MODEL 1
REMARK VINA RESULT:      -6.2      0.000      0.000
REMARK  Name = 
REMARK  5 active torsions:
REMARK  status: ('A' for Active; 'I' for Inactive)
REMARK    1  A    between atoms: C_1  and  S_2
REMARK    2  A    between atoms: S_2  and  C_3
REMARK    3  A    between atoms: C_7  and  C_8
REMARK    4  A    between atoms: C_9  and  C_10
REMARK    5  A    between atoms: N_13  and  C_14
REMARK                            x       y       z     vdW  Elec       q    Type
REMARK                         _______ _______ _______ _____ _____    ______ ____
ROOT
ATOM      1  C   UNL     1       4.415   4.862  18.153  0.00  0.00    +0.000 C 
ATOM      2  C   UNL     1       3.686   5.972  18.368  0.00  0.00    +0.000 C 
ATOM      3  C   UNL     1       3.754   7.226  17.539  0.00  0.00    +0.000 C 
ATOM      4  C   UNL     1       2.735   6.046  19.526  0.00  0.00    +0.000 C 
ATOM      5  C   UNL     1       2.615   4.795  20.421  0.00  0.00    +0.000 C 
ATOM      6  N   UNL     1       3.297   3.564  20.038  0.00  0.00    +0.000 NA
ATOM      7  C   UNL     1       2.392   2.463  19.749  0.00  0.00    +0.000 C 
ATOM      8  C   UNL     1       4.404   3.674  19.085  0.00  0.00    +0.000 C 
ENDROOT
BRANCH   1  13
ATOM      9  C   UNL     1       6.716   5.135  17.052  0.00  0.00    +0.000 A 
ATOM     10  N   UNL     1       7.410   4.850  15.944  0.00  0.00    +0.000 NA
ATOM     11  S   UNL     1       6.323   4.080  14.943  0.00  0.00    +0.000 S 
ATOM     12  N   UNL     1       4.958   4.109  15.905  0.00  0.00    +0.000 NA
ATOM     13  C   UNL     1       5.331   4.702  17.046  0.00  0.00    +0.000 A 
BRANCH   9  15
ATOM     14  C   UNL     1       7.675   7.646  17.704  0.00  0.00    +0.000 C 
ATOM     15  S   UNL     1       7.502   5.982  18.387  0.00  0.00    +0.000 S 
ENDBRANCH   9  15
ENDBRANCH   1  13
TORSDOF 2
ENDMDL
MODEL 2
REMARK VINA RESULT:      -6.1      1.625      2.414
REMARK  Name = 
REMARK  5 active torsions:
REMARK  status: ('A' for Active; 'I' for Inactive)
REMARK    1  A    between atoms: C_1  and  S_2
REMARK    2  A    between atoms: S_2  and  C_3
REMARK    3  A    between atoms: C_7  and  C_8
REMARK    4  A    between atoms: C_9  and  C_10
REMARK    5  A    between atoms: N_13  and  C_14
REMARK                            x       y       z     vdW  Elec       q    Type
REMARK                         _______ _______ _______ _____ _____    ______ ____
ROOT
ATOM      1  C   UNL     1       4.271   4.712  18.696  0.00  0.00    +0.000 C 
ATOM      2  C   UNL     1       3.359   5.599  18.260  0.00  0.00    +0.000 C 
ATOM      3  C   UNL     1       3.676   6.947  17.671  0.00  0.00    +0.000 C 
ATOM      4  C   UNL     1       1.893   5.300  18.367  0.00  0.00    +0.000 C 
ATOM      5  C   UNL     1       1.494   3.934  18.963  0.00  0.00    +0.000 C 
ATOM      6  N   UNL     1       2.525   2.944  19.256  0.00  0.00    +0.000 NA
ATOM      7  C   UNL     1       2.410   1.732  18.461  0.00  0.00    +0.000 C 
ATOM      8  C   UNL     1       3.902   3.424  19.393  0.00  0.00    +0.000 C 
ENDROOT
BRANCH   1  13
ATOM      9  C   UNL     1       6.493   4.655  17.414  0.00  0.00    +0.000 A 
ATOM     10  N   UNL     1       7.794   4.953  17.520  0.00  0.00    +0.000 NA
ATOM     11  S   UNL     1       7.981   5.520  19.075  0.00  0.00    +0.000 S 
ATOM     12  N   UNL     1       6.412   5.384  19.634  0.00  0.00    +0.000 NA
ATOM     13  C   UNL     1       5.699   4.913  18.603  0.00  0.00    +0.000 A 
BRANCH   9  15
ATOM     14  C   UNL     1       6.943   4.787  14.690  0.00  0.00    +0.000 C 
ATOM     15  S   UNL     1       5.861   3.997  15.903  0.00  0.00    +0.000 S 
ENDBRANCH   9  15
ENDBRANCH   1  13
TORSDOF 2
ENDMDL
MODEL 3
REMARK VINA RESULT:      -5.7      2.622      5.060
REMARK  Name = 
REMARK  5 active torsions:
REMARK  status: ('A' for Active; 'I' for Inactive)
REMARK    1  A    between atoms: C_1  and  S_2
REMARK    2  A    between atoms: S_2  and  C_3
REMARK    3  A    between atoms: C_7  and  C_8
REMARK    4  A    between atoms: C_9  and  C_10
REMARK    5  A    between atoms: N_13  and  C_14
REMARK                            x       y       z     vdW  Elec       q    Type
REMARK                         _______ _______ _______ _____ _____    ______ ____
ROOT
ATOM      1  C   UNL     1       4.481   4.198  18.552  0.00  0.00    +0.000 C 
ATOM      2  C   UNL     1       4.199   3.841  17.287  0.00  0.00    +0.000 C 
ATOM      3  C   UNL     1       2.879   3.295  16.815  0.00  0.00    +0.000 C 
ATOM      4  C   UNL     1       5.247   3.938  16.217  0.00  0.00    +0.000 C 
ATOM      5  C   UNL     1       6.627   4.488  16.630  0.00  0.00    +0.000 C 
ATOM      6  N   UNL     1       6.821   5.023  17.974  0.00  0.00    +0.000 NA
ATOM      7  C   UNL     1       7.137   6.441  17.996  0.00  0.00    +0.000 C 
ATOM      8  C   UNL     1       5.858   4.623  19.003  0.00  0.00    +0.000 C 
ENDROOT
BRANCH   1  13
ATOM      9  C   UNL     1       2.623   5.247  19.977  0.00  0.00    +0.000 A 
ATOM     10  N   UNL     1       1.776   4.993  20.981  0.00  0.00    +0.000 NA
ATOM     11  S   UNL     1       2.134   3.439  21.463  0.00  0.00    +0.000 S 
ATOM     12  N   UNL     1       3.376   3.076  20.406  0.00  0.00    +0.000 NA
ATOM     13  C   UNL     1       3.521   4.159  19.632  0.00  0.00    +0.000 A 
BRANCH   9  15
ATOM     14  C   UNL     1       1.715   7.825  20.397  0.00  0.00    +0.000 C 
ATOM     15  S   UNL     1       2.590   6.819  19.176  0.00  0.00    +0.000 S 
ENDBRANCH   9  15
ENDBRANCH   1  13
TORSDOF 2
ENDMDL
MODEL 4
REMARK VINA RESULT:      -5.6      1.732      3.315
REMARK  Name = 
REMARK  5 active torsions:
REMARK  status: ('A' for Active; 'I' for Inactive)
REMARK    1  A    between atoms: C_1  and  S_2
REMARK    2  A    between atoms: S_2  and  C_3
REMARK    3  A    between atoms: C_7  and  C_8
REMARK    4  A    between atoms: C_9  and  C_10
REMARK    5  A    between atoms: N_13  and  C_14
REMARK                            x       y       z     vdW  Elec       q    Type
REMARK                         _______ _______ _______ _____ _____    ______ ____
ROOT
ATOM      1  C   UNL     1       4.231   4.627  19.254  0.00  0.00    +0.000 C 
ATOM      2  C   UNL     1       3.777   3.464  19.752  0.00  0.00    +0.000 C 
ATOM      3  C   UNL     1       4.605   2.222  19.942  0.00  0.00    +0.000 C 
ATOM      4  C   UNL     1       2.335   3.312  20.141  0.00  0.00    +0.000 C 
ATOM      5  C   UNL     1       1.426   4.546  19.971  0.00  0.00    +0.000 C 
ATOM      6  N   UNL     1       2.011   5.829  19.592  0.00  0.00    +0.000 NA
ATOM      7  C   UNL     1       1.868   6.857  20.610  0.00  0.00    +0.000 C 
ATOM      8  C   UNL     1       3.335   5.808  18.966  0.00  0.00    +0.000 C 
ENDROOT
BRANCH   1  13
ATOM      9  C   UNL     1       6.154   4.643  17.555  0.00  0.00    +0.000 A 
ATOM     10  N   UNL     1       7.444   4.967  17.407  0.00  0.00    +0.000 NA
ATOM     11  S   UNL     1       7.927   5.508  18.907  0.00  0.00    +0.000 S 
ATOM     12  N   UNL     1       6.503   5.328  19.763  0.00  0.00    +0.000 NA
ATOM     13  C   UNL     1       5.608   4.861  18.883  0.00  0.00    +0.000 A 
BRANCH   9  15
ATOM     14  C   UNL     1       6.440   4.192  14.843  0.00  0.00    +0.000 C 
ATOM     15  S   UNL     1       5.246   3.999  16.185  0.00  0.00    +0.000 S 
ENDBRANCH   9  15
ENDBRANCH   1  13
TORSDOF 2
ENDMDL
MODEL 5
REMARK VINA RESULT:      -5.4      2.747      5.269
REMARK  Name = 
REMARK  5 active torsions:
REMARK  status: ('A' for Active; 'I' for Inactive)
REMARK    1  A    between atoms: C_1  and  S_2
REMARK    2  A    between atoms: S_2  and  C_3
REMARK    3  A    between atoms: C_7  and  C_8
REMARK    4  A    between atoms: C_9  and  C_10
REMARK    5  A    between atoms: N_13  and  C_14
REMARK                            x       y       z     vdW  Elec       q    Type
REMARK                         _______ _______ _______ _____ _____    ______ ____
ROOT
ATOM      1  C   UNL     1       4.818   5.044  18.578  0.00  0.00    +0.000 C 
ATOM      2  C   UNL     1       4.788   4.459  17.367  0.00  0.00    +0.000 C 
ATOM      3  C   UNL     1       3.543   3.993  16.662  0.00  0.00    +0.000 C 
ATOM      4  C   UNL     1       6.060   4.190  16.619  0.00  0.00    +0.000 C 
ATOM      5  C   UNL     1       7.377   4.641  17.284  0.00  0.00    +0.000 C 
ATOM      6  N   UNL     1       7.335   5.425  18.514  0.00  0.00    +0.000 NA
ATOM      7  C   UNL     1       7.882   6.764  18.368  0.00  0.00    +0.000 C 
ATOM      8  C   UNL     1       6.100   5.382  19.300  0.00  0.00    +0.000 C 
ENDROOT
BRANCH   1  13
ATOM      9  C   UNL     1       2.900   4.409  20.160  0.00  0.00    +0.000 A 
ATOM     10  N   UNL     1       1.861   4.915  20.835  0.00  0.00    +0.000 NA
ATOM     11  S   UNL     1       1.830   6.530  20.428  0.00  0.00    +0.000 S 
ATOM     12  N   UNL     1       3.131   6.601  19.382  0.00  0.00    +0.000 NA
ATOM     13  C   UNL     1       3.636   5.361  19.348  0.00  0.00    +0.000 A 
BRANCH   9  15
ATOM     14  C   UNL     1       1.939   1.946  19.352  0.00  0.00    +0.000 C 
ATOM     15  S   UNL     1       3.286   2.692  20.298  0.00  0.00    +0.000 S 
ENDBRANCH   9  15
ENDBRANCH   1  13
TORSDOF 2
ENDMDL
MODEL 6
REMARK VINA RESULT:      -5.4      1.330      2.431
REMARK  Name = 
REMARK  5 active torsions:
REMARK  status: ('A' for Active; 'I' for Inactive)
REMARK    1  A    between atoms: C_1  and  S_2
REMARK    2  A    between atoms: S_2  and  C_3
REMARK    3  A    between atoms: C_7  and  C_8
REMARK    4  A    between atoms: C_9  and  C_10
REMARK    5  A    between atoms: N_13  and  C_14
REMARK                            x       y       z     vdW  Elec       q    Type
REMARK                         _______ _______ _______ _____ _____    ______ ____
ROOT
ATOM      1  C   UNL     1       3.817   4.250  17.627  0.00  0.00    +0.000 C 
ATOM      2  C   UNL     1       3.364   3.098  18.151  0.00  0.00    +0.000 C 
ATOM      3  C   UNL     1       3.989   1.746  17.938  0.00  0.00    +0.000 C 
ATOM      4  C   UNL     1       2.127   3.081  19.000  0.00  0.00    +0.000 C 
ATOM      5  C   UNL     1       1.433   4.434  19.260  0.00  0.00    +0.000 C 
ATOM      6  N   UNL     1       2.066   5.670  18.812  0.00  0.00    +0.000 NA
ATOM      7  C   UNL     1       2.440   6.559  19.900  0.00  0.00    +0.000 C 
ATOM      8  C   UNL     1       3.087   5.565  17.768  0.00  0.00    +0.000 C 
ENDROOT
BRANCH   1  13
ATOM      9  C   UNL     1       6.315   4.758  17.329  0.00  0.00    +0.000 A 
ATOM     10  N   UNL     1       7.307   4.743  16.432  0.00  0.00    +0.000 NA
ATOM     11  S   UNL     1       6.593   4.249  15.010  0.00  0.00    +0.000 S 
ATOM     12  N   UNL     1       5.013   4.058  15.518  0.00  0.00    +0.000 NA
ATOM     13  C   UNL     1       5.015   4.354  16.824  0.00  0.00    +0.000 A 
BRANCH   9  15
ATOM     14  C   UNL     1       7.937   6.486  18.754  0.00  0.00    +0.000 C 
ATOM     15  S   UNL     1       6.642   5.248  18.993  0.00  0.00    +0.000 S 
ENDBRANCH   9  15
ENDBRANCH   1  13
TORSDOF 2
ENDMDL
MODEL 7
REMARK VINA RESULT:      -5.2      1.793      3.207
REMARK  Name = 
REMARK  5 active torsions:
REMARK  status: ('A' for Active; 'I' for Inactive)
REMARK    1  A    between atoms: C_1  and  S_2
REMARK    2  A    between atoms: S_2  and  C_3
REMARK    3  A    between atoms: C_7  and  C_8
REMARK    4  A    between atoms: C_9  and  C_10
REMARK    5  A    between atoms: N_13  and  C_14
REMARK                            x       y       z     vdW  Elec       q    Type
REMARK                         _______ _______ _______ _____ _____    ______ ____
ROOT
ATOM      1  C   UNL     1       4.057   4.110  18.328  0.00  0.00    +0.000 C 
ATOM      2  C   UNL     1       3.483   2.895  18.295  0.00  0.00    +0.000 C 
ATOM      3  C   UNL     1       4.185   1.615  17.929  0.00  0.00    +0.000 C 
ATOM      4  C   UNL     1       2.024   2.733  18.604  0.00  0.00    +0.000 C 
ATOM      5  C   UNL     1       1.239   4.005  18.986  0.00  0.00    +0.000 C 
ATOM      6  N   UNL     1       1.951   5.265  19.175  0.00  0.00    +0.000 NA
ATOM      7  C   UNL     1       1.877   5.775  20.534  0.00  0.00    +0.000 C 
ATOM      8  C   UNL     1       3.284   5.383  18.579  0.00  0.00    +0.000 C 
ENDROOT
BRANCH   1  13
ATOM      9  C   UNL     1       6.043   4.492  16.748  0.00  0.00    +0.000 A 
ATOM     10  N   UNL     1       7.356   4.752  16.728  0.00  0.00    +0.000 NA
ATOM     11  S   UNL     1       7.812   4.789  18.330  0.00  0.00    +0.000 S 
ATOM     12  N   UNL     1       6.347   4.464  19.066  0.00  0.00    +0.000 NA
ATOM     13  C   UNL     1       5.460   4.345  18.070  0.00  0.00    +0.000 A 
BRANCH   9  15
ATOM     14  C   UNL     1       6.499   4.253  14.032  0.00  0.00    +0.000 C 
ATOM     15  S   UNL     1       5.151   4.350  15.232  0.00  0.00    +0.000 S 
ENDBRANCH   9  15
ENDBRANCH   1  13
TORSDOF 2
ENDMDL
MODEL 8
REMARK VINA RESULT:      -5.2      2.644      4.924
REMARK  Name = 
REMARK  5 active torsions:
REMARK  status: ('A' for Active; 'I' for Inactive)
REMARK    1  A    between atoms: C_1  and  S_2
REMARK    2  A    between atoms: S_2  and  C_3
REMARK    3  A    between atoms: C_7  and  C_8
REMARK    4  A    between atoms: C_9  and  C_10
REMARK    5  A    between atoms: N_13  and  C_14
REMARK                            x       y       z     vdW  Elec       q    Type
REMARK                         _______ _______ _______ _____ _____    ______ ____
ROOT
ATOM      1  C   UNL     1       4.586   5.537  18.508  0.00  0.00    +0.000 C 
ATOM      2  C   UNL     1       4.672   6.529  17.603  0.00  0.00    +0.000 C 
ATOM      3  C   UNL     1       3.513   7.349  17.106  0.00  0.00    +0.000 C 
ATOM      4  C   UNL     1       5.990   6.876  16.976  0.00  0.00    +0.000 C 
ATOM      5  C   UNL     1       7.223   6.072  17.438  0.00  0.00    +0.000 C 
ATOM      6  N   UNL     1       7.100   5.131  18.546  0.00  0.00    +0.000 NA
ATOM      7  C   UNL     1       7.895   5.494  19.708  0.00  0.00    +0.000 C 
ATOM      8  C   UNL     1       5.755   4.659  18.885  0.00  0.00    +0.000 C 
ENDROOT
BRANCH   1  13
ATOM      9  C   UNL     1       2.504   4.061  18.773  0.00  0.00    +0.000 A 
ATOM     10  N   UNL     1       1.439   3.848  19.555  0.00  0.00    +0.000 NA
ATOM     11  S   UNL     1       1.533   5.018  20.738  0.00  0.00    +0.000 S 
ATOM     12  N   UNL     1       2.924   5.814  20.262  0.00  0.00    +0.000 NA
ATOM     13  C   UNL     1       3.361   5.162  19.177  0.00  0.00    +0.000 A 
BRANCH   9  15
ATOM     14  C   UNL     1       3.528   1.575  18.128  0.00  0.00    +0.000 C 
ATOM     15  S   UNL     1       2.780   3.033  17.365  0.00  0.00    +0.000 S 
ENDBRANCH   9  15
ENDBRANCH   1  13
TORSDOF 2
ENDMDL
MODEL 9
REMARK VINA RESULT:      -5.2      1.975      2.979
REMARK  Name = 
REMARK  5 active torsions:
REMARK  status: ('A' for Active; 'I' for Inactive)
REMARK    1  A    between atoms: C_1  and  S_2
REMARK    2  A    between atoms: S_2  and  C_3
REMARK    3  A    between atoms: C_7  and  C_8
REMARK    4  A    between atoms: C_9  and  C_10
REMARK    5  A    between atoms: N_13  and  C_14
REMARK                            x       y       z     vdW  Elec       q    Type
REMARK                         _______ _______ _______ _____ _____    ______ ____
ROOT
ATOM      1  C   UNL     1       4.036   4.483  18.834  0.00  0.00    +0.000 C 
ATOM      2  C   UNL     1       3.578   3.600  17.929  0.00  0.00    +0.000 C 
ATOM      3  C   UNL     1       4.319   3.162  16.695  0.00  0.00    +0.000 C 
ATOM      4  C   UNL     1       2.216   2.990  18.083  0.00  0.00    +0.000 C 
ATOM      5  C   UNL     1       1.398   3.395  19.326  0.00  0.00    +0.000 C 
ATOM      6  N   UNL     1       2.015   4.219  20.360  0.00  0.00    +0.000 NA
ATOM      7  C   UNL     1       2.133   3.548  21.645  0.00  0.00    +0.000 C 
ATOM      8  C   UNL     1       3.206   4.987  19.991  0.00  0.00    +0.000 C 
ENDROOT
BRANCH   1  13
ATOM      9  C   UNL     1       5.720   6.151  17.850  0.00  0.00    +0.000 A 
ATOM     10  N   UNL     1       6.969   6.614  17.987  0.00  0.00    +0.000 NA
ATOM     11  S   UNL     1       7.625   5.719  19.229  0.00  0.00    +0.000 S 
ATOM     12  N   UNL     1       6.332   4.727  19.600  0.00  0.00    +0.000 NA
ATOM     13  C   UNL     1       5.345   5.094  18.772  0.00  0.00    +0.000 A 
BRANCH   9  15
ATOM     14  C   UNL     1       3.460   7.727  17.618  0.00  0.00    +0.000 C 
ATOM     15  S   UNL     1       4.662   6.829  16.610  0.00  0.00    +0.000 S 
ENDBRANCH   9  15
ENDBRANCH   1  13
TORSDOF 2
ENDMDL
