MODEL 1
REMARK VINA RESULT:      -8.0      0.000      0.000
REMARK  Name = 
REMARK  8 active torsions:
REMARK  status: ('A' for Active; 'I' for Inactive)
REMARK    1  A    between atoms: C_1  and  C_2
REMARK    2  A    between atoms: C_2  and  C_3
REMARK    3  A    between atoms: C_2  and  O_4
REMARK    4  A    between atoms: C_2  and  C_5
REMARK    5  A    between atoms: C_8  and  C_9
REMARK    6  A    between atoms: C_13  and  N_14
REMARK    7  A    between atoms: C_16  and  C_17
REMARK    8  A    between atoms: N_19  and  C_20
REMARK                            x       y       z     vdW  Elec       q    Type
REMARK                         _______ _______ _______ _____ _____    ______ ____
ROOT
ATOM      1  C   UNL     1       1.580   9.177  18.743  0.00  0.00    +0.000 A 
ATOM      2  C   UNL     1       2.553  10.116  18.367  0.00  0.00    +0.000 A 
ATOM      3  C   UNL     1       2.222  11.455  18.168  0.00  0.00    +0.000 A 
ATOM      4  C   UNL     1       0.899  11.881  18.308  0.00  0.00    +0.000 A 
ATOM      5  C   UNL     1      -0.121  10.977  18.647  0.00  0.00    +0.000 A 
ATOM      6  C   UNL     1       0.255   9.640  18.872  0.00  0.00    +0.000 A 
ENDROOT
BRANCH   5   7
ATOM      7  N   UNL     1      -1.491  11.394  18.795  0.00  0.00    +0.000 N 
ATOM      8  C   UNL     1      -1.922  11.940  20.002  0.00  0.00    +0.000 A 
ATOM      9  C   UNL     1      -3.161  12.346  20.320  0.00  0.00    +0.000 A 
ATOM     10  C   UNL     1      -4.205  12.168  19.291  0.00  0.00    +0.000 A 
ATOM     11  O   UNL     1      -5.380  12.449  19.516  0.00  0.00    +0.000 OA
ATOM     12  C   UNL     1      -3.793  11.651  17.971  0.00  0.00    +0.000 A 
ATOM     13  C   UNL     1      -4.743  11.552  16.947  0.00  0.00    +0.000 A 
ATOM     14  C   UNL     1      -4.351  11.098  15.696  0.00  0.00    +0.000 A 
ATOM     15  C   UNL     1      -3.024  10.761  15.520  0.00  0.00    +0.000 A 
ATOM     16  N   UNL     1      -2.094  10.848  16.497  0.00  0.00    +0.000 NA
ATOM     17  C   UNL     1      -2.464  11.280  17.733  0.00  0.00    +0.000 A 
BRANCH   9  18
ATOM     18  C   UNL     1      -3.384  12.945  21.665  0.00  0.00    +0.000 C 
ATOM     19  O   UNL     1      -2.575  13.730  22.154  0.00  0.00    +0.000 OA
ATOM     20  N   UNL     1      -4.553  12.580  22.297  0.00  0.00    +0.000 N 
ATOM     21  H   UNL     1      -5.176  11.916  21.834  0.00  0.00    +0.000 HD
BRANCH  20  22
ATOM     22  C   UNL     1      -4.935  13.147  23.548  0.00  0.00    +0.000 C 
ATOM     23  C   UNL     1      -6.110  12.572  24.292  0.00  0.00    +0.000 C 
ATOM     24  C   UNL     1      -4.727  12.434  24.854  0.00  0.00    +0.000 C 
ENDBRANCH  20  22
ENDBRANCH   9  18
ENDBRANCH   5   7
BRANCH   1  28
ATOM     25  C   UNL     1       2.363   5.029  19.629  0.00  0.00    +0.000 A 
ATOM     26  C   UNL     1       1.851   5.897  20.610  0.00  0.00    +0.000 A 
ATOM     27  C   UNL     1       1.636   7.244  20.333  0.00  0.00    +0.000 A 
ATOM     28  C   UNL     1       1.923   7.778  19.077  0.00  0.00    +0.000 A 
ATOM     29  C   UNL     1       2.485   6.908  18.134  0.00  0.00    +0.000 A 
ATOM     30  N   UNL     1       2.695   5.551  18.382  0.00  0.00    +0.000 N 
ATOM     31  O   UNL     1       3.174   4.833  17.444  0.00  0.00    +0.000 OA
BRANCH  25  33
ATOM     32  C   UNL     1       1.570   2.693  19.052  0.00  0.00    +0.000 C 
ATOM     33  C   UNL     1       2.535   3.542  19.886  0.00  0.00    +0.000 C 
ATOM     34  C   UNL     1       2.451   3.198  21.379  0.00  0.00    +0.000 C 
BRANCH  33  35
ATOM     35  O   UNL     1       3.866   3.159  19.471  0.00  0.00    +0.000 OA
ATOM     36  H   UNL     1       4.010   2.240  19.752  0.00  0.00    +0.000 HD
ENDBRANCH  33  35
ENDBRANCH  25  33
ENDBRANCH   1  28
TORSDOF 6
ENDMDL
MODEL 2
REMARK VINA RESULT:      -7.9      3.138      5.337
REMARK  Name = 
REMARK  8 active torsions:
REMARK  status: ('A' for Active; 'I' for Inactive)
REMARK    1  A    between atoms: C_1  and  C_2
REMARK    2  A    between atoms: C_2  and  C_3
REMARK    3  A    between atoms: C_2  and  O_4
REMARK    4  A    between atoms: C_2  and  C_5
REMARK    5  A    between atoms: C_8  and  C_9
REMARK    6  A    between atoms: C_13  and  N_14
REMARK    7  A    between atoms: C_16  and  C_17
REMARK    8  A    between atoms: N_19  and  C_20
REMARK                            x       y       z     vdW  Elec       q    Type
REMARK                         _______ _______ _______ _____ _____    ______ ____
ROOT
ATOM      1  C   UNL     1       2.460   7.087  19.155  0.00  0.00    +0.000 A 
ATOM      2  C   UNL     1       2.076   6.448  20.344  0.00  0.00    +0.000 A 
ATOM      3  C   UNL     1       1.226   7.073  21.255  0.00  0.00    +0.000 A 
ATOM      4  C   UNL     1       0.768   8.370  21.013  0.00  0.00    +0.000 A 
ATOM      5  C   UNL     1       1.151   9.070  19.858  0.00  0.00    +0.000 A 
ATOM      6  C   UNL     1       1.982   8.396  18.944  0.00  0.00    +0.000 A 
ENDROOT
BRANCH   5   7
ATOM      7  N   UNL     1       0.691  10.409  19.589  0.00  0.00    +0.000 N 
ATOM      8  C   UNL     1       1.472  11.499  19.968  0.00  0.00    +0.000 A 
ATOM      9  C   UNL     1       1.181  12.801  19.826  0.00  0.00    +0.000 A 
ATOM     10  C   UNL     1      -0.128  13.130  19.228  0.00  0.00    +0.000 A 
ATOM     11  O   UNL     1      -0.508  14.294  19.120  0.00  0.00    +0.000 OA
ATOM     12  C   UNL     1      -0.969  12.016  18.751  0.00  0.00    +0.000 A 
ATOM     13  C   UNL     1      -2.178  12.298  18.102  0.00  0.00    +0.000 A 
ATOM     14  C   UNL     1      -2.955  11.253  17.623  0.00  0.00    +0.000 A 
ATOM     15  C   UNL     1      -2.491   9.967  17.812  0.00  0.00    +0.000 A 
ATOM     16  N   UNL     1      -1.329   9.675  18.438  0.00  0.00    +0.000 NA
ATOM     17  C   UNL     1      -0.560  10.688  18.924  0.00  0.00    +0.000 A 
BRANCH   9  18
ATOM     18  C   UNL     1       2.193  13.801  20.268  0.00  0.00    +0.000 C 
ATOM     19  O   UNL     1       2.630  13.799  21.416  0.00  0.00    +0.000 OA
ATOM     20  N   UNL     1       2.612  14.693  19.305  0.00  0.00    +0.000 N 
ATOM     21  H   UNL     1       2.200  14.641  18.372  0.00  0.00    +0.000 HD
BRANCH  20  22
ATOM     22  C   UNL     1       3.640  15.646  19.565  0.00  0.00    +0.000 C 
ATOM     23  C   UNL     1       4.975  15.496  18.887  0.00  0.00    +0.000 C 
ATOM     24  C   UNL     1       4.085  16.652  18.543  0.00  0.00    +0.000 C 
ENDBRANCH  20  22
ENDBRANCH   9  18
ENDBRANCH   5   7
BRANCH   1  28
ATOM     25  C   UNL     1       4.965   5.048  16.297  0.00  0.00    +0.000 A 
ATOM     26  C   UNL     1       4.989   6.450  16.412  0.00  0.00    +0.000 A 
ATOM     27  C   UNL     1       4.151   7.108  17.308  0.00  0.00    +0.000 A 
ATOM     28  C   UNL     1       3.260   6.402  18.116  0.00  0.00    +0.000 A 
ATOM     29  C   UNL     1       3.213   5.013  17.943  0.00  0.00    +0.000 A 
ATOM     30  N   UNL     1       4.054   4.329  17.064  0.00  0.00    +0.000 N 
ATOM     31  O   UNL     1       3.963   3.058  17.008  0.00  0.00    +0.000 OA
BRANCH  25  33
ATOM     32  C   UNL     1       7.309   4.954  15.339  0.00  0.00    +0.000 C 
ATOM     33  C   UNL     1       5.921   4.304  15.381  0.00  0.00    +0.000 C 
ATOM     34  C   UNL     1       5.342   4.108  13.973  0.00  0.00    +0.000 C 
BRANCH  33  35
ATOM     35  O   UNL     1       6.119   2.974  15.911  0.00  0.00    +0.000 OA
ATOM     36  H   UNL     1       6.054   2.348  15.170  0.00  0.00    +0.000 HD
ENDBRANCH  33  35
ENDBRANCH  25  33
ENDBRANCH   1  28
TORSDOF 6
ENDMDL
MODEL 3
REMARK VINA RESULT:      -7.9      1.825      2.400
REMARK  Name = 
REMARK  8 active torsions:
REMARK  status: ('A' for Active; 'I' for Inactive)
REMARK    1  A    between atoms: C_1  and  C_2
REMARK    2  A    between atoms: C_2  and  C_3
REMARK    3  A    between atoms: C_2  and  O_4
REMARK    4  A    between atoms: C_2  and  C_5
REMARK    5  A    between atoms: C_8  and  C_9
REMARK    6  A    between atoms: C_13  and  N_14
REMARK    7  A    between atoms: C_16  and  C_17
REMARK    8  A    between atoms: N_19  and  C_20
REMARK                            x       y       z     vdW  Elec       q    Type
REMARK                         _______ _______ _______ _____ _____    ______ ____
ROOT
ATOM      1  C   UNL     1       0.678  10.641  19.119  0.00  0.00    +0.000 A 
ATOM      2  C   UNL     1       1.343  11.744  18.562  0.00  0.00    +0.000 A 
ATOM      3  C   UNL     1       0.736  12.998  18.509  0.00  0.00    +0.000 A 
ATOM      4  C   UNL     1      -0.567  13.169  18.981  0.00  0.00    +0.000 A 
ATOM      5  C   UNL     1      -1.292  12.091  19.514  0.00  0.00    +0.000 A 
ATOM      6  C   UNL     1      -0.636  10.848  19.583  0.00  0.00    +0.000 A 
ENDROOT
BRANCH   5   7
ATOM      7  N   UNL     1      -2.637  12.245  20.007  0.00  0.00    +0.000 N 
ATOM      8  C   UNL     1      -2.851  12.590  21.339  0.00  0.00    +0.000 A 
ATOM      9  C   UNL     1      -4.029  12.739  21.966  0.00  0.00    +0.000 A 
ATOM     10  C   UNL     1      -5.244  12.481  21.169  0.00  0.00    +0.000 A 
ATOM     11  O   UNL     1      -6.363  12.528  21.675  0.00  0.00    +0.000 OA
ATOM     12  C   UNL     1      -5.079  12.172  19.736  0.00  0.00    +0.000 A 
ATOM     13  C   UNL     1      -6.215  12.005  18.934  0.00  0.00    +0.000 A 
ATOM     14  C   UNL     1      -6.062  11.748  17.579  0.00  0.00    +0.000 A 
ATOM     15  C   UNL     1      -4.777  11.667  17.081  0.00  0.00    +0.000 A 
ATOM     16  N   UNL     1      -3.669  11.823  17.839  0.00  0.00    +0.000 NA
ATOM     17  C   UNL     1      -3.801  12.064  19.172  0.00  0.00    +0.000 A 
BRANCH   9  18
ATOM     18  C   UNL     1      -4.019  13.159  23.394  0.00  0.00    +0.000 C 
ATOM     19  O   UNL     1      -4.349  12.383  24.288  0.00  0.00    +0.000 OA
ATOM     20  N   UNL     1      -3.594  14.448  23.637  0.00  0.00    +0.000 N 
ATOM     21  H   UNL     1      -3.341  15.040  22.844  0.00  0.00    +0.000 HD
BRANCH  20  22
ATOM     22  C   UNL     1      -3.450  14.951  24.963  0.00  0.00    +0.000 C 
ATOM     23  C   UNL     1      -2.085  15.342  25.461  0.00  0.00    +0.000 C 
ATOM     24  C   UNL     1      -3.134  16.391  25.249  0.00  0.00    +0.000 C 
ENDBRANCH  20  22
ENDBRANCH   9  18
ENDBRANCH   5   7
BRANCH   1  28
ATOM     25  C   UNL     1       2.418   6.716  19.534  0.00  0.00    +0.000 A 
ATOM     26  C   UNL     1       1.687   7.300  20.584  0.00  0.00    +0.000 A 
ATOM     27  C   UNL     1       1.160   8.583  20.462  0.00  0.00    +0.000 A 
ATOM     28  C   UNL     1       1.341   9.331  19.299  0.00  0.00    +0.000 A 
ATOM     29  C   UNL     1       2.120   8.751  18.289  0.00  0.00    +0.000 A 
ATOM     30  N   UNL     1       2.645   7.461  18.381  0.00  0.00    +0.000 N 
ATOM     31  O   UNL     1       3.307   7.008  17.390  0.00  0.00    +0.000 OA
BRANCH  25  33
ATOM     32  C   UNL     1       2.369   4.534  20.821  0.00  0.00    +0.000 C 
ATOM     33  C   UNL     1       2.938   5.291  19.616  0.00  0.00    +0.000 C 
ATOM     34  C   UNL     1       4.471   5.230  19.577  0.00  0.00    +0.000 C 
BRANCH  33  35
ATOM     35  O   UNL     1       2.489   4.573  18.444  0.00  0.00    +0.000 OA
ATOM     36  H   UNL     1       3.008   4.890  17.686  0.00  0.00    +0.000 HD
ENDBRANCH  33  35
ENDBRANCH  25  33
ENDBRANCH   1  28
TORSDOF 6
ENDMDL
MODEL 4
REMARK VINA RESULT:      -7.8      3.207      5.131
REMARK  Name = 
REMARK  8 active torsions:
REMARK  status: ('A' for Active; 'I' for Inactive)
REMARK    1  A    between atoms: C_1  and  C_2
REMARK    2  A    between atoms: C_2  and  C_3
REMARK    3  A    between atoms: C_2  and  O_4
REMARK    4  A    between atoms: C_2  and  C_5
REMARK    5  A    between atoms: C_8  and  C_9
REMARK    6  A    between atoms: C_13  and  N_14
REMARK    7  A    between atoms: C_16  and  C_17
REMARK    8  A    between atoms: N_19  and  C_20
REMARK                            x       y       z     vdW  Elec       q    Type
REMARK                         _______ _______ _______ _____ _____    ______ ____
ROOT
ATOM      1  C   UNL     1       2.495   7.010  19.151  0.00  0.00    +0.000 A 
ATOM      2  C   UNL     1       2.133   6.337  20.328  0.00  0.00    +0.000 A 
ATOM      3  C   UNL     1       1.284   6.929  21.262  0.00  0.00    +0.000 A 
ATOM      4  C   UNL     1       0.806   8.225  21.056  0.00  0.00    +0.000 A 
ATOM      5  C   UNL     1       1.166   8.957  19.914  0.00  0.00    +0.000 A 
ATOM      6  C   UNL     1       1.997   8.316  18.976  0.00  0.00    +0.000 A 
ENDROOT
BRANCH   5   7
ATOM      7  N   UNL     1       0.685  10.295  19.681  0.00  0.00    +0.000 N 
ATOM      8  C   UNL     1       1.248  11.364  20.375  0.00  0.00    +0.000 A 
ATOM      9  C   UNL     1       0.899  12.658  20.306  0.00  0.00    +0.000 A 
ATOM     10  C   UNL     1      -0.231  12.997  19.419  0.00  0.00    +0.000 A 
ATOM     11  O   UNL     1      -0.663  14.144  19.342  0.00  0.00    +0.000 OA
ATOM     12  C   UNL     1      -0.826  11.913  18.613  0.00  0.00    +0.000 A 
ATOM     13  C   UNL     1      -1.843  12.216  17.699  0.00  0.00    +0.000 A 
ATOM     14  C   UNL     1      -2.381  11.205  16.916  0.00  0.00    +0.000 A 
ATOM     15  C   UNL     1      -1.879   9.930  17.079  0.00  0.00    +0.000 A 
ATOM     16  N   UNL     1      -0.900   9.617  17.958  0.00  0.00    +0.000 NA
ATOM     17  C   UNL     1      -0.370  10.595  18.741  0.00  0.00    +0.000 A 
BRANCH   9  18
ATOM     18  C   UNL     1       1.677  13.641  21.110  0.00  0.00    +0.000 C 
ATOM     19  O   UNL     1       1.178  14.202  22.083  0.00  0.00    +0.000 OA
ATOM     20  N   UNL     1       2.977  13.850  20.706  0.00  0.00    +0.000 N 
ATOM     21  H   UNL     1       3.323  13.354  19.883  0.00  0.00    +0.000 HD
BRANCH  20  22
ATOM     22  C   UNL     1       3.861  14.696  21.438  0.00  0.00    +0.000 C 
ATOM     23  C   UNL     1       5.071  14.100  22.105  0.00  0.00    +0.000 C 
ATOM     24  C   UNL     1       5.239  15.040  20.948  0.00  0.00    +0.000 C 
ENDBRANCH  20  22
ENDBRANCH   9  18
ENDBRANCH   5   7
BRANCH   1  28
ATOM     25  C   UNL     1       4.995   5.072  16.219  0.00  0.00    +0.000 A 
ATOM     26  C   UNL     1       5.011   6.470  16.376  0.00  0.00    +0.000 A 
ATOM     27  C   UNL     1       4.175   7.096  17.295  0.00  0.00    +0.000 A 
ATOM     28  C   UNL     1       3.293   6.361  18.087  0.00  0.00    +0.000 A 
ATOM     29  C   UNL     1       3.254   4.977  17.873  0.00  0.00    +0.000 A 
ATOM     30  N   UNL     1       4.094   4.325  16.970  0.00  0.00    +0.000 N 
ATOM     31  O   UNL     1       4.010   3.056  16.877  0.00  0.00    +0.000 OA
BRANCH  25  33
ATOM     32  C   UNL     1       7.311   5.062  15.191  0.00  0.00    +0.000 C 
ATOM     33  C   UNL     1       5.951   4.362  15.276  0.00  0.00    +0.000 C 
ATOM     34  C   UNL     1       5.337   4.140  13.886  0.00  0.00    +0.000 C 
BRANCH  33  35
ATOM     35  O   UNL     1       6.213   3.040  15.801  0.00  0.00    +0.000 OA
ATOM     36  H   UNL     1       5.483   2.462  15.524  0.00  0.00    +0.000 HD
ENDBRANCH  33  35
ENDBRANCH  25  33
ENDBRANCH   1  28
TORSDOF 6
ENDMDL
MODEL 5
REMARK VINA RESULT:      -7.8      1.281      1.746
REMARK  Name = 
REMARK  8 active torsions:
REMARK  status: ('A' for Active; 'I' for Inactive)
REMARK    1  A    between atoms: C_1  and  C_2
REMARK    2  A    between atoms: C_2  and  C_3
REMARK    3  A    between atoms: C_2  and  O_4
REMARK    4  A    between atoms: C_2  and  C_5
REMARK    5  A    between atoms: C_8  and  C_9
REMARK    6  A    between atoms: C_13  and  N_14
REMARK    7  A    between atoms: C_16  and  C_17
REMARK    8  A    between atoms: N_19  and  C_20
REMARK                            x       y       z     vdW  Elec       q    Type
REMARK                         _______ _______ _______ _____ _____    ______ ____
ROOT
ATOM      1  C   UNL     1       1.601  10.060  18.423  0.00  0.00    +0.000 A 
ATOM      2  C   UNL     1       2.466  11.164  18.371  0.00  0.00    +0.000 A 
ATOM      3  C   UNL     1       1.976  12.465  18.466  0.00  0.00    +0.000 A 
ATOM      4  C   UNL     1       0.603  12.694  18.580  0.00  0.00    +0.000 A 
ATOM      5  C   UNL     1      -0.310  11.627  18.600  0.00  0.00    +0.000 A 
ATOM      6  C   UNL     1       0.222  10.326  18.535  0.00  0.00    +0.000 A 
ENDROOT
BRANCH   5   7
ATOM      7  N   UNL     1      -1.730  11.839  18.716  0.00  0.00    +0.000 N 
ATOM      8  C   UNL     1      -2.251  12.424  19.868  0.00  0.00    +0.000 A 
ATOM      9  C   UNL     1      -3.540  12.661  20.153  0.00  0.00    +0.000 A 
ATOM     10  C   UNL     1      -4.535  12.228  19.151  0.00  0.00    +0.000 A 
ATOM     11  O   UNL     1      -5.741  12.344  19.355  0.00  0.00    +0.000 OA
ATOM     12  C   UNL     1      -4.036  11.659  17.884  0.00  0.00    +0.000 A 
ATOM     13  C   UNL     1      -4.950  11.317  16.879  0.00  0.00    +0.000 A 
ATOM     14  C   UNL     1      -4.482  10.813  15.675  0.00  0.00    +0.000 A 
ATOM     15  C   UNL     1      -3.117  10.670  15.524  0.00  0.00    +0.000 A 
ATOM     16  N   UNL     1      -2.220  10.992  16.484  0.00  0.00    +0.000 NA
ATOM     17  C   UNL     1      -2.663  11.477  17.675  0.00  0.00    +0.000 A 
BRANCH   9  18
ATOM     18  C   UNL     1      -3.865  13.343  21.437  0.00  0.00    +0.000 C 
ATOM     19  O   UNL     1      -3.679  14.549  21.581  0.00  0.00    +0.000 OA
ATOM     20  N   UNL     1      -4.401  12.542  22.421  0.00  0.00    +0.000 N 
ATOM     21  H   UNL     1      -4.521  11.545  22.234  0.00  0.00    +0.000 HD
BRANCH  20  22
ATOM     22  C   UNL     1      -4.840  13.079  23.667  0.00  0.00    +0.000 C 
ATOM     23  C   UNL     1      -4.712  12.250  24.916  0.00  0.00    +0.000 C 
ATOM     24  C   UNL     1      -3.884  13.490  24.750  0.00  0.00    +0.000 C 
ENDBRANCH  20  22
ENDBRANCH   9  18
ENDBRANCH   5   7
BRANCH   1  28
ATOM     25  C   UNL     1       3.261   6.083  18.619  0.00  0.00    +0.000 A 
ATOM     26  C   UNL     1       3.462   6.898  17.490  0.00  0.00    +0.000 A 
ATOM     27  C   UNL     1       2.892   8.166  17.413  0.00  0.00    +0.000 A 
ATOM     28  C   UNL     1       2.103   8.668  18.447  0.00  0.00    +0.000 A 
ATOM     29  C   UNL     1       1.870   7.817  19.535  0.00  0.00    +0.000 A 
ATOM     30  N   UNL     1       2.443   6.549  19.643  0.00  0.00    +0.000 N 
ATOM     31  O   UNL     1       2.202   5.866  20.693  0.00  0.00    +0.000 OA
BRANCH  25  33
ATOM     32  C   UNL     1       5.300   4.824  19.441  0.00  0.00    +0.000 C 
ATOM     33  C   UNL     1       3.932   4.728  18.757  0.00  0.00    +0.000 C 
ATOM     34  C   UNL     1       4.017   3.983  17.417  0.00  0.00    +0.000 C 
BRANCH  33  35
ATOM     35  O   UNL     1       3.114   3.898  19.613  0.00  0.00    +0.000 OA
ATOM     36  H   UNL     1       3.643   3.123  19.866  0.00  0.00    +0.000 HD
ENDBRANCH  33  35
ENDBRANCH  25  33
ENDBRANCH   1  28
TORSDOF 6
ENDMDL
MODEL 6
REMARK VINA RESULT:      -7.8      1.434      1.599
REMARK  Name = 
REMARK  8 active torsions:
REMARK  status: ('A' for Active; 'I' for Inactive)
REMARK    1  A    between atoms: C_1  and  C_2
REMARK    2  A    between atoms: C_2  and  C_3
REMARK    3  A    between atoms: C_2  and  O_4
REMARK    4  A    between atoms: C_2  and  C_5
REMARK    5  A    between atoms: C_8  and  C_9
REMARK    6  A    between atoms: C_13  and  N_14
REMARK    7  A    between atoms: C_16  and  C_17
REMARK    8  A    between atoms: N_19  and  C_20
REMARK                            x       y       z     vdW  Elec       q    Type
REMARK                         _______ _______ _______ _____ _____    ______ ____
ROOT
ATOM      1  C   UNL     1       1.600   9.141  18.852  0.00  0.00    +0.000 A 
ATOM      2  C   UNL     1       2.503   9.948  18.142  0.00  0.00    +0.000 A 
ATOM      3  C   UNL     1       2.252  11.305  17.945  0.00  0.00    +0.000 A 
ATOM      4  C   UNL     1       1.072  11.879  18.424  0.00  0.00    +0.000 A 
ATOM      5  C   UNL     1       0.118  11.110  19.108  0.00  0.00    +0.000 A 
ATOM      6  C   UNL     1       0.419   9.752  19.318  0.00  0.00    +0.000 A 
ENDROOT
BRANCH   5   7
ATOM      7  N   UNL     1      -1.106  11.681  19.610  0.00  0.00    +0.000 N 
ATOM      8  C   UNL     1      -1.116  12.316  20.850  0.00  0.00    +0.000 A 
ATOM      9  C   UNL     1      -2.166  12.867  21.478  0.00  0.00    +0.000 A 
ATOM     10  C   UNL     1      -3.474  12.769  20.800  0.00  0.00    +0.000 A 
ATOM     11  O   UNL     1      -4.502  13.186  21.328  0.00  0.00    +0.000 OA
ATOM     12  C   UNL     1      -3.511  12.162  19.455  0.00  0.00    +0.000 A 
ATOM     13  C   UNL     1      -4.721  12.131  18.750  0.00  0.00    +0.000 A 
ATOM     14  C   UNL     1      -4.752  11.590  17.472  0.00  0.00    +0.000 A 
ATOM     15  C   UNL     1      -3.570  11.103  16.952  0.00  0.00    +0.000 A 
ATOM     16  N   UNL     1      -2.394  11.122  17.618  0.00  0.00    +0.000 NA
ATOM     17  C   UNL     1      -2.349  11.637  18.876  0.00  0.00    +0.000 A 
BRANCH   9  18
ATOM     18  C   UNL     1      -1.933  13.536  22.788  0.00  0.00    +0.000 C 
ATOM     19  O   UNL     1      -1.123  13.088  23.595  0.00  0.00    +0.000 OA
ATOM     20  N   UNL     1      -2.660  14.685  23.011  0.00  0.00    +0.000 N 
ATOM     21  H   UNL     1      -3.322  14.996  22.298  0.00  0.00    +0.000 HD
BRANCH  20  22
ATOM     22  C   UNL     1      -2.471  15.474  24.183  0.00  0.00    +0.000 C 
ATOM     23  C   UNL     1      -3.661  16.116  24.842  0.00  0.00    +0.000 C 
ATOM     24  C   UNL     1      -2.917  15.019  25.543  0.00  0.00    +0.000 C 
ENDBRANCH  20  22
ENDBRANCH   9  18
ENDBRANCH   5   7
BRANCH   1  28
ATOM     25  C   UNL     1       2.246   4.966  19.719  0.00  0.00    +0.000 A 
ATOM     26  C   UNL     1       1.756   5.844  20.703  0.00  0.00    +0.000 A 
ATOM     27  C   UNL     1       1.586   7.198  20.432  0.00  0.00    +0.000 A 
ATOM     28  C   UNL     1       1.897   7.730  19.181  0.00  0.00    +0.000 A 
ATOM     29  C   UNL     1       2.437   6.848  18.236  0.00  0.00    +0.000 A 
ATOM     30  N   UNL     1       2.601   5.483  18.478  0.00  0.00    +0.000 N 
ATOM     31  O   UNL     1       3.064   4.756  17.538  0.00  0.00    +0.000 OA
BRANCH  25  33
ATOM     32  C   UNL     1       1.363   2.661  19.147  0.00  0.00    +0.000 C 
ATOM     33  C   UNL     1       2.370   3.473  19.969  0.00  0.00    +0.000 C 
ATOM     34  C   UNL     1       2.296   3.126  21.463  0.00  0.00    +0.000 C 
BRANCH  33  35
ATOM     35  O   UNL     1       3.680   3.044  19.534  0.00  0.00    +0.000 OA
ATOM     36  H   UNL     1       3.701   2.073  19.569  0.00  0.00    +0.000 HD
ENDBRANCH  33  35
ENDBRANCH  25  33
ENDBRANCH   1  28
TORSDOF 6
ENDMDL
MODEL 7
REMARK VINA RESULT:      -7.8      2.465      4.417
REMARK  Name = 
REMARK  8 active torsions:
REMARK  status: ('A' for Active; 'I' for Inactive)
REMARK    1  A    between atoms: C_1  and  C_2
REMARK    2  A    between atoms: C_2  and  C_3
REMARK    3  A    between atoms: C_2  and  O_4
REMARK    4  A    between atoms: C_2  and  C_5
REMARK    5  A    between atoms: C_8  and  C_9
REMARK    6  A    between atoms: C_13  and  N_14
REMARK    7  A    between atoms: C_16  and  C_17
REMARK    8  A    between atoms: N_19  and  C_20
REMARK                            x       y       z     vdW  Elec       q    Type
REMARK                         _______ _______ _______ _____ _____    ______ ____
ROOT
ATOM      1  C   UNL     1       0.981  11.295  19.117  0.00  0.00    +0.000 A 
ATOM      2  C   UNL     1       1.736  12.388  18.663  0.00  0.00    +0.000 A 
ATOM      3  C   UNL     1       1.338  13.697  18.929  0.00  0.00    +0.000 A 
ATOM      4  C   UNL     1       0.154  13.944  19.628  0.00  0.00    +0.000 A 
ATOM      5  C   UNL     1      -0.658  12.889  20.073  0.00  0.00    +0.000 A 
ATOM      6  C   UNL     1      -0.209  11.580  19.815  0.00  0.00    +0.000 A 
ENDROOT
BRANCH   5   7
ATOM      7  N   UNL     1      -1.883  13.121  20.794  0.00  0.00    +0.000 N 
ATOM      8  C   UNL     1      -3.089  12.650  20.280  0.00  0.00    +0.000 A 
ATOM      9  C   UNL     1      -4.317  12.807  20.800  0.00  0.00    +0.000 A 
ATOM     10  C   UNL     1      -4.417  13.593  22.046  0.00  0.00    +0.000 A 
ATOM     11  O   UNL     1      -5.505  13.845  22.558  0.00  0.00    +0.000 OA
ATOM     12  C   UNL     1      -3.164  14.064  22.668  0.00  0.00    +0.000 A 
ATOM     13  C   UNL     1      -3.219  14.739  23.894  0.00  0.00    +0.000 A 
ATOM     14  C   UNL     1      -2.041  15.154  24.498  0.00  0.00    +0.000 A 
ATOM     15  C   UNL     1      -0.854  14.875  23.850  0.00  0.00    +0.000 A 
ATOM     16  N   UNL     1      -0.781  14.227  22.666  0.00  0.00    +0.000 NA
ATOM     17  C   UNL     1      -1.928  13.824  22.054  0.00  0.00    +0.000 A 
BRANCH   9  18
ATOM     18  C   UNL     1      -5.466  12.174  20.096  0.00  0.00    +0.000 C 
ATOM     19  O   UNL     1      -5.584  12.249  18.876  0.00  0.00    +0.000 OA
ATOM     20  N   UNL     1      -6.356  11.491  20.897  0.00  0.00    +0.000 N 
ATOM     21  H   UNL     1      -6.199  11.476  21.906  0.00  0.00    +0.000 HD
BRANCH  20  22
ATOM     22  C   UNL     1      -7.452  10.763  20.347  0.00  0.00    +0.000 C 
ATOM     23  C   UNL     1      -7.189   9.482  19.603  0.00  0.00    +0.000 C 
ATOM     24  C   UNL     1      -7.916   9.453  20.914  0.00  0.00    +0.000 C 
ENDBRANCH  20  22
ENDBRANCH   9  18
ENDBRANCH   5   7
BRANCH   1  28
ATOM     25  C   UNL     1       2.528   7.284  18.767  0.00  0.00    +0.000 A 
ATOM     26  C   UNL     1       2.700   8.221  17.732  0.00  0.00    +0.000 A 
ATOM     27  C   UNL     1       2.166   9.502  17.831  0.00  0.00    +0.000 A 
ATOM     28  C   UNL     1       1.441   9.899  18.955  0.00  0.00    +0.000 A 
ATOM     29  C   UNL     1       1.234   8.932  19.947  0.00  0.00    +0.000 A 
ATOM     30  N   UNL     1       1.773   7.646  19.878  0.00  0.00    +0.000 N 
ATOM     31  O   UNL     1       1.561   6.851  20.852  0.00  0.00    +0.000 OA
BRANCH  25  33
ATOM     32  C   UNL     1       4.336   5.845  17.728  0.00  0.00    +0.000 C 
ATOM     33  C   UNL     1       3.164   5.906  18.714  0.00  0.00    +0.000 C 
ATOM     34  C   UNL     1       2.134   4.801  18.442  0.00  0.00    +0.000 C 
BRANCH  33  35
ATOM     35  O   UNL     1       3.720   5.609  20.015  0.00  0.00    +0.000 OA
ATOM     36  H   UNL     1       3.810   4.644  20.084  0.00  0.00    +0.000 HD
ENDBRANCH  33  35
ENDBRANCH  25  33
ENDBRANCH   1  28
TORSDOF 6
ENDMDL
MODEL 8
REMARK VINA RESULT:      -7.7      3.276      4.934
REMARK  Name = 
REMARK  8 active torsions:
REMARK  status: ('A' for Active; 'I' for Inactive)
REMARK    1  A    between atoms: C_1  and  C_2
REMARK    2  A    between atoms: C_2  and  C_3
REMARK    3  A    between atoms: C_2  and  O_4
REMARK    4  A    between atoms: C_2  and  C_5
REMARK    5  A    between atoms: C_8  and  C_9
REMARK    6  A    between atoms: C_13  and  N_14
REMARK    7  A    between atoms: C_16  and  C_17
REMARK    8  A    between atoms: N_19  and  C_20
REMARK                            x       y       z     vdW  Elec       q    Type
REMARK                         _______ _______ _______ _____ _____    ______ ____
ROOT
ATOM      1  C   UNL     1       2.328   7.230  19.634  0.00  0.00    +0.000 A 
ATOM      2  C   UNL     1       1.796   6.661  20.802  0.00  0.00    +0.000 A 
ATOM      3  C   UNL     1       0.832   7.333  21.553  0.00  0.00    +0.000 A 
ATOM      4  C   UNL     1       0.403   8.606  21.171  0.00  0.00    +0.000 A 
ATOM      5  C   UNL     1       0.930   9.236  20.033  0.00  0.00    +0.000 A 
ATOM      6  C   UNL     1       1.876   8.516  19.280  0.00  0.00    +0.000 A 
ENDROOT
BRANCH   5   7
ATOM      7  N   UNL     1       0.503  10.549  19.621  0.00  0.00    +0.000 N 
ATOM      8  C   UNL     1       1.112  11.678  20.166  0.00  0.00    +0.000 A 
ATOM      9  C   UNL     1       0.816  12.964  19.922  0.00  0.00    +0.000 A 
ATOM     10  C   UNL     1      -0.302  13.226  18.994  0.00  0.00    +0.000 A 
ATOM     11  O   UNL     1      -0.687  14.370  18.762  0.00  0.00    +0.000 OA
ATOM     12  C   UNL     1      -0.943  12.069  18.339  0.00  0.00    +0.000 A 
ATOM     13  C   UNL     1      -1.949  12.288  17.390  0.00  0.00    +0.000 A 
ATOM     14  C   UNL     1      -2.530  11.203  16.749  0.00  0.00    +0.000 A 
ATOM     15  C   UNL     1      -2.080   9.942  17.084  0.00  0.00    +0.000 A 
ATOM     16  N   UNL     1      -1.112   9.711  17.999  0.00  0.00    +0.000 NA
ATOM     17  C   UNL     1      -0.540  10.763  18.646  0.00  0.00    +0.000 A 
BRANCH   9  18
ATOM     18  C   UNL     1       1.635  14.014  20.589  0.00  0.00    +0.000 C 
ATOM     19  O   UNL     1       2.166  13.810  21.677  0.00  0.00    +0.000 OA
ATOM     20  N   UNL     1       1.770  15.198  19.896  0.00  0.00    +0.000 N 
ATOM     21  H   UNL     1       1.293  15.300  18.999  0.00  0.00    +0.000 HD
BRANCH  20  22
ATOM     22  C   UNL     1       2.598  16.254  20.375  0.00  0.00    +0.000 C 
ATOM     23  C   UNL     1       3.533  16.950  19.424  0.00  0.00    +0.000 C 
ATOM     24  C   UNL     1       2.367  17.691  20.005  0.00  0.00    +0.000 C 
ENDBRANCH  20  22
ENDBRANCH   9  18
ENDBRANCH   5   7
BRANCH   1  28
ATOM     25  C   UNL     1       5.229   5.184  17.185  0.00  0.00    +0.000 A 
ATOM     26  C   UNL     1       4.621   6.375  16.748  0.00  0.00    +0.000 A 
ATOM     27  C   UNL     1       3.657   7.012  17.523  0.00  0.00    +0.000 A 
ATOM     28  C   UNL     1       3.259   6.491  18.754  0.00  0.00    +0.000 A 
ATOM     29  C   UNL     1       3.836   5.275  19.142  0.00  0.00    +0.000 A 
ATOM     30  N   UNL     1       4.817   4.626  18.391  0.00  0.00    +0.000 N 
ATOM     31  O   UNL     1       5.310   3.543  18.850  0.00  0.00    +0.000 OA
BRANCH  25  33
ATOM     32  C   UNL     1       7.668   4.498  17.150  0.00  0.00    +0.000 C 
ATOM     33  C   UNL     1       6.337   4.512  16.391  0.00  0.00    +0.000 C 
ATOM     34  C   UNL     1       6.489   5.112  14.986  0.00  0.00    +0.000 C 
BRANCH  33  35
ATOM     35  O   UNL     1       5.977   3.127  16.187  0.00  0.00    +0.000 OA
ATOM     36  H   UNL     1       5.754   2.749  17.054  0.00  0.00    +0.000 HD
ENDBRANCH  33  35
ENDBRANCH  25  33
ENDBRANCH   1  28
TORSDOF 6
ENDMDL
MODEL 9
REMARK VINA RESULT:      -7.7      1.755      2.342
REMARK  Name = 
REMARK  8 active torsions:
REMARK  status: ('A' for Active; 'I' for Inactive)
REMARK    1  A    between atoms: C_1  and  C_2
REMARK    2  A    between atoms: C_2  and  C_3
REMARK    3  A    between atoms: C_2  and  O_4
REMARK    4  A    between atoms: C_2  and  C_5
REMARK    5  A    between atoms: C_8  and  C_9
REMARK    6  A    between atoms: C_13  and  N_14
REMARK    7  A    between atoms: C_16  and  C_17
REMARK    8  A    between atoms: N_19  and  C_20
REMARK                            x       y       z     vdW  Elec       q    Type
REMARK                         _______ _______ _______ _____ _____    ______ ____
ROOT
ATOM      1  C   UNL     1       0.838  10.074  19.609  0.00  0.00    +0.000 A 
ATOM      2  C   UNL     1       1.377  10.944  20.570  0.00  0.00    +0.000 A 
ATOM      3  C   UNL     1       0.633  12.010  21.072  0.00  0.00    +0.000 A 
ATOM      4  C   UNL     1      -0.658  12.252  20.598  0.00  0.00    +0.000 A 
ATOM      5  C   UNL     1      -1.232  11.436  19.610  0.00  0.00    +0.000 A 
ATOM      6  C   UNL     1      -0.465  10.349  19.150  0.00  0.00    +0.000 A 
ENDROOT
BRANCH   5   7
ATOM      7  N   UNL     1      -2.561  11.667  19.106  0.00  0.00    +0.000 N 
ATOM      8  C   UNL     1      -3.511  12.288  19.916  0.00  0.00    +0.000 A 
ATOM      9  C   UNL     1      -4.794  12.547  19.619  0.00  0.00    +0.000 A 
ATOM     10  C   UNL     1      -5.275  12.101  18.297  0.00  0.00    +0.000 A 
ATOM     11  O   UNL     1      -6.451  12.235  17.965  0.00  0.00    +0.000 OA
ATOM     12  C   UNL     1      -4.297  11.493  17.375  0.00  0.00    +0.000 A 
ATOM     13  C   UNL     1      -4.703  11.136  16.082  0.00  0.00    +0.000 A 
ATOM     14  C   UNL     1      -3.777  10.595  15.202  0.00  0.00    +0.000 A 
ATOM     15  C   UNL     1      -2.482  10.433  15.650  0.00  0.00    +0.000 A 
ATOM     16  N   UNL     1      -2.073  10.768  16.894  0.00  0.00    +0.000 NA
ATOM     17  C   UNL     1      -2.970  11.289  17.774  0.00  0.00    +0.000 A 
BRANCH   9  18
ATOM     18  C   UNL     1      -5.619  13.266  20.630  0.00  0.00    +0.000 C 
ATOM     19  O   UNL     1      -5.942  14.440  20.468  0.00  0.00    +0.000 OA
ATOM     20  N   UNL     1      -6.006  12.523  21.724  0.00  0.00    +0.000 N 
ATOM     21  H   UNL     1      -5.694  11.553  21.796  0.00  0.00    +0.000 HD
BRANCH  20  22
ATOM     22  C   UNL     1      -6.872  13.057  22.723  0.00  0.00    +0.000 C 
ATOM     23  C   UNL     1      -7.916  12.172  23.346  0.00  0.00    +0.000 C 
ATOM     24  C   UNL     1      -6.768  12.672  24.170  0.00  0.00    +0.000 C 
ENDBRANCH  20  22
ENDBRANCH   9  18
ENDBRANCH   5   7
BRANCH   1  28
ATOM     25  C   UNL     1       3.139   6.640  18.379  0.00  0.00    +0.000 A 
ATOM     26  C   UNL     1       2.962   7.740  17.520  0.00  0.00    +0.000 A 
ATOM     27  C   UNL     1       2.187   8.830  17.904  0.00  0.00    +0.000 A 
ATOM     28  C   UNL     1       1.558   8.866  19.149  0.00  0.00    +0.000 A 
ATOM     29  C   UNL     1       1.702   7.736  19.964  0.00  0.00    +0.000 A 
ATOM     30  N   UNL     1       2.487   6.639  19.608  0.00  0.00    +0.000 N 
ATOM     31  O   UNL     1       2.587   5.675  20.436  0.00  0.00    +0.000 OA
BRANCH  25  33
ATOM     32  C   UNL     1       4.971   5.806  16.839  0.00  0.00    +0.000 C 
ATOM     33  C   UNL     1       4.040   5.474  18.010  0.00  0.00    +0.000 C 
ATOM     34  C   UNL     1       3.247   4.184  17.759  0.00  0.00    +0.000 C 
BRANCH  33  35
ATOM     35  O   UNL     1       4.901   5.189  19.137  0.00  0.00    +0.000 OA
ATOM     36  H   UNL     1       5.811   5.117  18.802  0.00  0.00    +0.000 HD
ENDBRANCH  33  35
ENDBRANCH  25  33
ENDBRANCH   1  28
TORSDOF 6
ENDMDL
