MODEL 1
REMARK VINA RESULT:      -8.0      0.000      0.000
REMARK  Name = 
REMARK  6 active torsions:
REMARK  status: ('A' for Active; 'I' for Inactive)
REMARK    1  A    between atoms: C_1  and  C_2
REMARK    2  A    between atoms: C_3  and  C_4
REMARK    3  A    between atoms: N_5  and  C_6
REMARK    4  A    between atoms: C_6  and  C_7
REMARK    5  A    between atoms: C_7  and  C_8
REMARK    6  A    between atoms: C_8  and  C_9
REMARK                            x       y       z     vdW  Elec       q    Type
REMARK                         _______ _______ _______ _____ _____    ______ ____
ROOT
ATOM      1  C   UNL     1       1.148   5.957  20.606  0.00  0.00    +0.000 C 
ATOM      2  C   UNL     1       2.420   5.481  19.992  0.00  0.00    +0.000 A 
ATOM      3  C   UNL     1       3.210   6.123  19.042  0.00  0.00    +0.000 A 
ATOM      4  C   UNL     1       3.009   7.446  18.382  0.00  0.00    +0.000 C 
ATOM      5  N   UNL     1       4.300   5.304  18.761  0.00  0.00    +0.000 N 
ATOM      6  C   UNL     1       4.193   4.176  19.532  0.00  0.00    +0.000 A 
ATOM      7  N   UNL     1       5.025   3.101  19.601  0.00  0.00    +0.000 N 
ATOM      8  C   UNL     1       4.714   2.063  20.462  0.00  0.00    +0.000 A 
ATOM      9  O   UNL     1       5.471   1.092  20.529  0.00  0.00    +0.000 OA
ATOM     10  O   UNL     1       3.587   2.108  21.229  0.00  0.00    +0.000 OA
ATOM     11  C   UNL     1       2.723   3.169  21.194  0.00  0.00    +0.000 A 
ATOM     12  O   UNL     1       1.720   3.192  21.892  0.00  0.00    +0.000 OA
ATOM     13  C   UNL     1       3.061   4.248  20.289  0.00  0.00    +0.000 A 
ATOM     14  H   UNL     1       5.873   3.004  19.065  0.00  0.00    +0.000 HD
ENDROOT
BRANCH   5  15
ATOM     15  C   UNL     1       5.354   5.635  17.794  0.00  0.00    +0.000 C 
BRANCH  15  16
ATOM     16  C   UNL     1       4.900   5.381  16.353  0.00  0.00    +0.000 C 
BRANCH  16  17
ATOM     17  C   UNL     1       5.276   3.999  15.799  0.00  0.00    +0.000 C 
BRANCH  17  18
ATOM     18  C   UNL     1       6.009   4.131  14.477  0.00  0.00    +0.000 A 
ATOM     19  C   UNL     1       7.070   5.033  14.311  0.00  0.00    +0.000 A 
ATOM     20  C   UNL     1       7.708   5.163  13.071  0.00  0.00    +0.000 A 
ATOM     21  C   UNL     1       7.290   4.399  11.983  0.00  0.00    +0.000 A 
ATOM     22  C   UNL     1       6.232   3.505  12.134  0.00  0.00    +0.000 A 
ATOM     23  C   UNL     1       5.594   3.373  13.371  0.00  0.00    +0.000 A 
ENDBRANCH  17  18
ENDBRANCH  16  17
ENDBRANCH  15  16
ENDBRANCH   5  15
TORSDOF 4
ENDMDL
MODEL 2
REMARK VINA RESULT:      -7.8      2.819      6.170
REMARK  Name = 
REMARK  6 active torsions:
REMARK  status: ('A' for Active; 'I' for Inactive)
REMARK    1  A    between atoms: C_1  and  C_2
REMARK    2  A    between atoms: C_3  and  C_4
REMARK    3  A    between atoms: N_5  and  C_6
REMARK    4  A    between atoms: C_6  and  C_7
REMARK    5  A    between atoms: C_7  and  C_8
REMARK    6  A    between atoms: C_8  and  C_9
REMARK                            x       y       z     vdW  Elec       q    Type
REMARK                         _______ _______ _______ _____ _____    ______ ____
ROOT
ATOM      1  C   UNL     1       5.039   4.808  14.818  0.00  0.00    +0.000 C 
ATOM      2  C   UNL     1       4.943   4.553  16.283  0.00  0.00    +0.000 A 
ATOM      3  C   UNL     1       3.935   3.889  16.978  0.00  0.00    +0.000 A 
ATOM      4  C   UNL     1       2.687   3.257  16.459  0.00  0.00    +0.000 C 
ATOM      5  N   UNL     1       4.265   3.893  18.329  0.00  0.00    +0.000 N 
ATOM      6  C   UNL     1       5.466   4.541  18.471  0.00  0.00    +0.000 A 
ATOM      7  N   UNL     1       6.183   4.783  19.603  0.00  0.00    +0.000 N 
ATOM      8  C   UNL     1       7.384   5.463  19.506  0.00  0.00    +0.000 A 
ATOM      9  O   UNL     1       8.036   5.677  20.530  0.00  0.00    +0.000 OA
ATOM     10  O   UNL     1       7.845   5.895  18.297  0.00  0.00    +0.000 OA
ATOM     11  C   UNL     1       7.159   5.672  17.134  0.00  0.00    +0.000 A 
ATOM     12  O   UNL     1       7.590   6.064  16.059  0.00  0.00    +0.000 OA
ATOM     13  C   UNL     1       5.904   4.958  17.250  0.00  0.00    +0.000 A 
ATOM     14  H   UNL     1       5.901   4.491  20.526  0.00  0.00    +0.000 HD
ENDROOT
BRANCH   5  15
ATOM     15  C   UNL     1       3.437   3.296  19.384  0.00  0.00    +0.000 C 
BRANCH  15  16
ATOM     16  C   UNL     1       2.226   4.173  19.717  0.00  0.00    +0.000 C 
BRANCH  16  17
ATOM     17  C   UNL     1       2.536   5.374  20.622  0.00  0.00    +0.000 C 
BRANCH  17  18
ATOM     18  C   UNL     1       2.262   6.679  19.898  0.00  0.00    +0.000 A 
ATOM     19  C   UNL     1       1.637   7.759  20.538  0.00  0.00    +0.000 A 
ATOM     20  C   UNL     1       1.363   8.941  19.838  0.00  0.00    +0.000 A 
ATOM     21  C   UNL     1       1.704   9.054  18.492  0.00  0.00    +0.000 A 
ATOM     22  C   UNL     1       2.319   7.985  17.844  0.00  0.00    +0.000 A 
ATOM     23  C   UNL     1       2.595   6.805  18.540  0.00  0.00    +0.000 A 
ENDBRANCH  17  18
ENDBRANCH  16  17
ENDBRANCH  15  16
ENDBRANCH   5  15
TORSDOF 4
ENDMDL
MODEL 3
REMARK VINA RESULT:      -7.8      1.209      1.766
REMARK  Name = 
REMARK  6 active torsions:
REMARK  status: ('A' for Active; 'I' for Inactive)
REMARK    1  A    between atoms: C_1  and  C_2
REMARK    2  A    between atoms: C_3  and  C_4
REMARK    3  A    between atoms: N_5  and  C_6
REMARK    4  A    between atoms: C_6  and  C_7
REMARK    5  A    between atoms: C_7  and  C_8
REMARK    6  A    between atoms: C_8  and  C_9
REMARK                            x       y       z     vdW  Elec       q    Type
REMARK                         _______ _______ _______ _____ _____    ______ ____
ROOT
ATOM      1  C   UNL     1       1.928   6.471  18.054  0.00  0.00    +0.000 C 
ATOM      2  C   UNL     1       3.259   5.821  18.215  0.00  0.00    +0.000 A 
ATOM      3  C   UNL     1       4.488   6.236  17.708  0.00  0.00    +0.000 A 
ATOM      4  C   UNL     1       4.812   7.429  16.873  0.00  0.00    +0.000 C 
ATOM      5  N   UNL     1       5.454   5.318  18.109  0.00  0.00    +0.000 N 
ATOM      6  C   UNL     1       4.836   4.353  18.862  0.00  0.00    +0.000 A 
ATOM      7  N   UNL     1       5.377   3.262  19.470  0.00  0.00    +0.000 N 
ATOM      8  C   UNL     1       4.552   2.414  20.188  0.00  0.00    +0.000 A 
ATOM      9  O   UNL     1       5.043   1.429  20.743  0.00  0.00    +0.000 OA
ATOM     10  O   UNL     1       3.214   2.660  20.284  0.00  0.00    +0.000 OA
ATOM     11  C   UNL     1       2.628   3.746  19.692  0.00  0.00    +0.000 A 
ATOM     12  O   UNL     1       1.427   3.951  19.793  0.00  0.00    +0.000 OA
ATOM     13  C   UNL     1       3.503   4.625  18.944  0.00  0.00    +0.000 A 
ATOM     14  H   UNL     1       6.356   3.022  19.441  0.00  0.00    +0.000 HD
ENDROOT
BRANCH   5  15
ATOM     15  C   UNL     1       6.876   5.409  17.757  0.00  0.00    +0.000 C 
BRANCH  15  16
ATOM     16  C   UNL     1       7.259   4.388  16.681  0.00  0.00    +0.000 C 
BRANCH  16  17
ATOM     17  C   UNL     1       6.102   3.957  15.768  0.00  0.00    +0.000 C 
BRANCH  17  18
ATOM     18  C   UNL     1       6.470   4.147  14.308  0.00  0.00    +0.000 A 
ATOM     19  C   UNL     1       5.898   3.361  13.297  0.00  0.00    +0.000 A 
ATOM     20  C   UNL     1       6.279   3.531  11.960  0.00  0.00    +0.000 A 
ATOM     21  C   UNL     1       7.239   4.483  11.620  0.00  0.00    +0.000 A 
ATOM     22  C   UNL     1       7.818   5.264  12.617  0.00  0.00    +0.000 A 
ATOM     23  C   UNL     1       7.439   5.097  13.951  0.00  0.00    +0.000 A 
ENDBRANCH  17  18
ENDBRANCH  16  17
ENDBRANCH  15  16
ENDBRANCH   5  15
TORSDOF 4
ENDMDL
MODEL 4
REMARK VINA RESULT:      -7.7      0.359      1.096
REMARK  Name = 
REMARK  6 active torsions:
REMARK  status: ('A' for Active; 'I' for Inactive)
REMARK    1  A    between atoms: C_1  and  C_2
REMARK    2  A    between atoms: C_3  and  C_4
REMARK    3  A    between atoms: N_5  and  C_6
REMARK    4  A    between atoms: C_6  and  C_7
REMARK    5  A    between atoms: C_7  and  C_8
REMARK    6  A    between atoms: C_8  and  C_9
REMARK                            x       y       z     vdW  Elec       q    Type
REMARK                         _______ _______ _______ _____ _____    ______ ____
ROOT
ATOM      1  C   UNL     1       1.234   6.044  20.319  0.00  0.00    +0.000 C 
ATOM      2  C   UNL     1       2.526   5.526  19.788  0.00  0.00    +0.000 A 
ATOM      3  C   UNL     1       3.386   6.129  18.873  0.00  0.00    +0.000 A 
ATOM      4  C   UNL     1       3.256   7.442  18.177  0.00  0.00    +0.000 C 
ATOM      5  N   UNL     1       4.468   5.278  18.670  0.00  0.00    +0.000 N 
ATOM      6  C   UNL     1       4.289   4.169  19.455  0.00  0.00    +0.000 A 
ATOM      7  N   UNL     1       5.089   3.076  19.592  0.00  0.00    +0.000 N 
ATOM      8  C   UNL     1       4.705   2.064  20.454  0.00  0.00    +0.000 A 
ATOM      9  O   UNL     1       5.432   1.077  20.583  0.00  0.00    +0.000 OA
ATOM     10  O   UNL     1       3.537   2.151  21.154  0.00  0.00    +0.000 OA
ATOM     11  C   UNL     1       2.703   3.231  21.049  0.00  0.00    +0.000 A 
ATOM     12  O   UNL     1       1.662   3.293  21.687  0.00  0.00    +0.000 OA
ATOM     13  C   UNL     1       3.119   4.284  20.144  0.00  0.00    +0.000 A 
ATOM     14  H   UNL     1       5.965   2.948  19.108  0.00  0.00    +0.000 HD
ENDROOT
BRANCH   5  15
ATOM     15  C   UNL     1       5.584   5.564  17.759  0.00  0.00    +0.000 C 
BRANCH  15  16
ATOM     16  C   UNL     1       5.874   4.380  16.831  0.00  0.00    +0.000 C 
BRANCH  16  17
ATOM     17  C   UNL     1       4.946   4.282  15.611  0.00  0.00    +0.000 C 
BRANCH  17  18
ATOM     18  C   UNL     1       5.749   4.275  14.324  0.00  0.00    +0.000 A 
ATOM     19  C   UNL     1       5.360   3.505  13.218  0.00  0.00    +0.000 A 
ATOM     20  C   UNL     1       6.137   3.487  12.053  0.00  0.00    +0.000 A 
ATOM     21  C   UNL     1       7.313   4.232  11.982  0.00  0.00    +0.000 A 
ATOM     22  C   UNL     1       7.712   4.995  13.077  0.00  0.00    +0.000 A 
ATOM     23  C   UNL     1       6.938   5.015  14.241  0.00  0.00    +0.000 A 
ENDBRANCH  17  18
ENDBRANCH  16  17
ENDBRANCH  15  16
ENDBRANCH   5  15
TORSDOF 4
ENDMDL
MODEL 5
REMARK VINA RESULT:      -7.7      2.824      6.271
REMARK  Name = 
REMARK  6 active torsions:
REMARK  status: ('A' for Active; 'I' for Inactive)
REMARK    1  A    between atoms: C_1  and  C_2
REMARK    2  A    between atoms: C_3  and  C_4
REMARK    3  A    between atoms: N_5  and  C_6
REMARK    4  A    between atoms: C_6  and  C_7
REMARK    5  A    between atoms: C_7  and  C_8
REMARK    6  A    between atoms: C_8  and  C_9
REMARK                            x       y       z     vdW  Elec       q    Type
REMARK                         _______ _______ _______ _____ _____    ______ ____
ROOT
ATOM      1  C   UNL     1       5.035   3.940  14.951  0.00  0.00    +0.000 C 
ATOM      2  C   UNL     1       4.881   3.982  16.433  0.00  0.00    +0.000 A 
ATOM      3  C   UNL     1       3.786   3.586  17.197  0.00  0.00    +0.000 A 
ATOM      4  C   UNL     1       2.479   3.018  16.754  0.00  0.00    +0.000 C 
ATOM      5  N   UNL     1       4.089   3.810  18.537  0.00  0.00    +0.000 N 
ATOM      6  C   UNL     1       5.357   4.328  18.604  0.00  0.00    +0.000 A 
ATOM      7  N   UNL     1       6.077   4.695  19.699  0.00  0.00    +0.000 N 
ATOM      8  C   UNL     1       7.355   5.199  19.527  0.00  0.00    +0.000 A 
ATOM      9  O   UNL     1       8.009   5.527  20.519  0.00  0.00    +0.000 OA
ATOM     10  O   UNL     1       7.888   5.334  18.278  0.00  0.00    +0.000 OA
ATOM     11  C   UNL     1       7.201   4.976  17.150  0.00  0.00    +0.000 A 
ATOM     12  O   UNL     1       7.697   5.101  16.040  0.00  0.00    +0.000 OA
ATOM     13  C   UNL     1       5.866   4.449  17.346  0.00  0.00    +0.000 A 
ATOM     14  H   UNL     1       5.745   4.620  20.648  0.00  0.00    +0.000 HD
ENDROOT
BRANCH   5  15
ATOM     15  C   UNL     1       3.175   3.527  19.649  0.00  0.00    +0.000 C 
BRANCH  15  16
ATOM     16  C   UNL     1       2.112   4.620  19.800  0.00  0.00    +0.000 C 
BRANCH  16  17
ATOM     17  C   UNL     1       2.592   5.882  20.531  0.00  0.00    +0.000 C 
BRANCH  17  18
ATOM     18  C   UNL     1       2.145   7.132  19.795  0.00  0.00    +0.000 A 
ATOM     19  C   UNL     1       2.498   7.364  18.458  0.00  0.00    +0.000 A 
ATOM     20  C   UNL     1       2.104   8.542  17.810  0.00  0.00    +0.000 A 
ATOM     21  C   UNL     1       1.359   9.502  18.493  0.00  0.00    +0.000 A 
ATOM     22  C   UNL     1       1.009   9.285  19.823  0.00  0.00    +0.000 A 
ATOM     23  C   UNL     1       1.400   8.110  20.471  0.00  0.00    +0.000 A 
ENDBRANCH  17  18
ENDBRANCH  16  17
ENDBRANCH  15  16
ENDBRANCH   5  15
TORSDOF 4
ENDMDL
MODEL 6
REMARK VINA RESULT:      -7.7      3.294      6.327
REMARK  Name = 
REMARK  6 active torsions:
REMARK  status: ('A' for Active; 'I' for Inactive)
REMARK    1  A    between atoms: C_1  and  C_2
REMARK    2  A    between atoms: C_3  and  C_4
REMARK    3  A    between atoms: N_5  and  C_6
REMARK    4  A    between atoms: C_6  and  C_7
REMARK    5  A    between atoms: C_7  and  C_8
REMARK    6  A    between atoms: C_8  and  C_9
REMARK                            x       y       z     vdW  Elec       q    Type
REMARK                         _______ _______ _______ _____ _____    ______ ____
ROOT
ATOM      1  C   UNL     1       6.925   5.716  19.324  0.00  0.00    +0.000 C 
ATOM      2  C   UNL     1       6.100   4.822  18.464  0.00  0.00    +0.000 A 
ATOM      3  C   UNL     1       5.165   3.868  18.860  0.00  0.00    +0.000 A 
ATOM      4  C   UNL     1       4.734   3.480  20.235  0.00  0.00    +0.000 C 
ATOM      5  N   UNL     1       4.644   3.272  17.716  0.00  0.00    +0.000 N 
ATOM      6  C   UNL     1       5.238   3.853  16.626  0.00  0.00    +0.000 A 
ATOM      7  N   UNL     1       5.040   3.599  15.303  0.00  0.00    +0.000 N 
ATOM      8  C   UNL     1       5.760   4.318  14.365  0.00  0.00    +0.000 A 
ATOM      9  O   UNL     1       5.576   4.092  13.167  0.00  0.00    +0.000 OA
ATOM     10  O   UNL     1       6.661   5.265  14.754  0.00  0.00    +0.000 OA
ATOM     11  C   UNL     1       6.890   5.555  16.072  0.00  0.00    +0.000 A 
ATOM     12  O   UNL     1       7.700   6.410  16.401  0.00  0.00    +0.000 OA
ATOM     13  C   UNL     1       6.130   4.795  17.043  0.00  0.00    +0.000 A 
ATOM     14  H   UNL     1       4.389   2.916  14.947  0.00  0.00    +0.000 HD
ENDROOT
BRANCH   5  15
ATOM     15  C   UNL     1       3.635   2.205  17.727  0.00  0.00    +0.000 C 
BRANCH  15  16
ATOM     16  C   UNL     1       2.254   2.729  17.320  0.00  0.00    +0.000 C 
BRANCH  16  17
ATOM     17  C   UNL     1       1.355   3.142  18.496  0.00  0.00    +0.000 C 
BRANCH  17  18
ATOM     18  C   UNL     1       1.645   4.571  18.917  0.00  0.00    +0.000 A 
ATOM     19  C   UNL     1       2.136   5.521  18.009  0.00  0.00    +0.000 A 
ATOM     20  C   UNL     1       2.429   6.824  18.430  0.00  0.00    +0.000 A 
ATOM     21  C   UNL     1       2.242   7.190  19.762  0.00  0.00    +0.000 A 
ATOM     22  C   UNL     1       1.762   6.253  20.673  0.00  0.00    +0.000 A 
ATOM     23  C   UNL     1       1.467   4.952  20.256  0.00  0.00    +0.000 A 
ENDBRANCH  17  18
ENDBRANCH  16  17
ENDBRANCH  15  16
ENDBRANCH   5  15
TORSDOF 4
ENDMDL
MODEL 7
REMARK VINA RESULT:      -7.6      3.297      6.314
REMARK  Name = 
REMARK  6 active torsions:
REMARK  status: ('A' for Active; 'I' for Inactive)
REMARK    1  A    between atoms: C_1  and  C_2
REMARK    2  A    between atoms: C_3  and  C_4
REMARK    3  A    between atoms: N_5  and  C_6
REMARK    4  A    between atoms: C_6  and  C_7
REMARK    5  A    between atoms: C_7  and  C_8
REMARK    6  A    between atoms: C_8  and  C_9
REMARK                            x       y       z     vdW  Elec       q    Type
REMARK                         _______ _______ _______ _____ _____    ______ ____
ROOT
ATOM      1  C   UNL     1       6.959   5.731  19.364  0.00  0.00    +0.000 C 
ATOM      2  C   UNL     1       6.124   4.843  18.506  0.00  0.00    +0.000 A 
ATOM      3  C   UNL     1       5.184   3.896  18.904  0.00  0.00    +0.000 A 
ATOM      4  C   UNL     1       4.756   3.509  20.280  0.00  0.00    +0.000 C 
ATOM      5  N   UNL     1       4.655   3.305  17.761  0.00  0.00    +0.000 N 
ATOM      6  C   UNL     1       5.249   3.884  16.669  0.00  0.00    +0.000 A 
ATOM      7  N   UNL     1       5.045   3.633  15.347  0.00  0.00    +0.000 N 
ATOM      8  C   UNL     1       5.767   4.349  14.407  0.00  0.00    +0.000 A 
ATOM      9  O   UNL     1       5.578   4.126  13.210  0.00  0.00    +0.000 OA
ATOM     10  O   UNL     1       6.676   5.288  14.795  0.00  0.00    +0.000 OA
ATOM     11  C   UNL     1       6.912   5.574  16.113  0.00  0.00    +0.000 A 
ATOM     12  O   UNL     1       7.729   6.423  16.440  0.00  0.00    +0.000 OA
ATOM     13  C   UNL     1       6.149   4.819  17.085  0.00  0.00    +0.000 A 
ATOM     14  H   UNL     1       4.388   2.956  14.992  0.00  0.00    +0.000 HD
ENDROOT
BRANCH   5  15
ATOM     15  C   UNL     1       3.638   2.246  17.774  0.00  0.00    +0.000 C 
BRANCH  15  16
ATOM     16  C   UNL     1       2.273   2.767  17.313  0.00  0.00    +0.000 C 
BRANCH  16  17
ATOM     17  C   UNL     1       1.336   3.197  18.451  0.00  0.00    +0.000 C 
BRANCH  17  18
ATOM     18  C   UNL     1       1.672   4.598  18.924  0.00  0.00    +0.000 A 
ATOM     19  C   UNL     1       1.498   4.986  20.261  0.00  0.00    +0.000 A 
ATOM     20  C   UNL     1       1.782   6.295  20.667  0.00  0.00    +0.000 A 
ATOM     21  C   UNL     1       2.236   7.234  19.742  0.00  0.00    +0.000 A 
ATOM     22  C   UNL     1       2.406   6.862  18.410  0.00  0.00    +0.000 A 
ATOM     23  C   UNL     1       2.124   5.555  18.003  0.00  0.00    +0.000 A 
ENDBRANCH  17  18
ENDBRANCH  16  17
ENDBRANCH  15  16
ENDBRANCH   5  15
TORSDOF 4
ENDMDL
MODEL 8
REMARK VINA RESULT:      -7.6      1.306      1.351
REMARK  Name = 
REMARK  6 active torsions:
REMARK  status: ('A' for Active; 'I' for Inactive)
REMARK    1  A    between atoms: C_1  and  C_2
REMARK    2  A    between atoms: C_3  and  C_4
REMARK    3  A    between atoms: N_5  and  C_6
REMARK    4  A    between atoms: C_6  and  C_7
REMARK    5  A    between atoms: C_7  and  C_8
REMARK    6  A    between atoms: C_8  and  C_9
REMARK                            x       y       z     vdW  Elec       q    Type
REMARK                         _______ _______ _______ _____ _____    ______ ____
ROOT
ATOM      1  C   UNL     1       1.493   5.780  17.864  0.00  0.00    +0.000 C 
ATOM      2  C   UNL     1       2.901   5.389  18.158  0.00  0.00    +0.000 A 
ATOM      3  C   UNL     1       4.071   6.065  17.821  0.00  0.00    +0.000 A 
ATOM      4  C   UNL     1       4.242   7.350  17.083  0.00  0.00    +0.000 C 
ATOM      5  N   UNL     1       5.150   5.325  18.297  0.00  0.00    +0.000 N 
ATOM      6  C   UNL     1       4.657   4.213  18.928  0.00  0.00    +0.000 A 
ATOM      7  N   UNL     1       5.333   3.208  19.549  0.00  0.00    +0.000 N 
ATOM      8  C   UNL     1       4.619   2.172  20.126  0.00  0.00    +0.000 A 
ATOM      9  O   UNL     1       5.231   1.265  20.694  0.00  0.00    +0.000 OA
ATOM     10  O   UNL     1       3.256   2.149  20.070  0.00  0.00    +0.000 OA
ATOM     11  C   UNL     1       2.536   3.139  19.458  0.00  0.00    +0.000 A 
ATOM     12  O   UNL     1       1.314   3.102  19.421  0.00  0.00    +0.000 OA
ATOM     13  C   UNL     1       3.296   4.217  18.859  0.00  0.00    +0.000 A 
ATOM     14  H   UNL     1       6.338   3.164  19.629  0.00  0.00    +0.000 HD
ENDROOT
BRANCH   5  15
ATOM     15  C   UNL     1       6.556   5.711  18.124  0.00  0.00    +0.000 C 
BRANCH  15  16
ATOM     16  C   UNL     1       7.067   5.373  16.720  0.00  0.00    +0.000 C 
BRANCH  16  17
ATOM     17  C   UNL     1       6.225   4.334  15.966  0.00  0.00    +0.000 C 
BRANCH  17  18
ATOM     18  C   UNL     1       6.572   4.330  14.489  0.00  0.00    +0.000 A 
ATOM     19  C   UNL     1       7.562   5.173  13.964  0.00  0.00    +0.000 A 
ATOM     20  C   UNL     1       7.841   5.177  12.592  0.00  0.00    +0.000 A 
ATOM     21  C   UNL     1       7.131   4.344  11.729  0.00  0.00    +0.000 A 
ATOM     22  C   UNL     1       6.141   3.507  12.239  0.00  0.00    +0.000 A 
ATOM     23  C   UNL     1       5.861   3.501  13.608  0.00  0.00    +0.000 A 
ENDBRANCH  17  18
ENDBRANCH  16  17
ENDBRANCH  15  16
ENDBRANCH   5  15
TORSDOF 4
ENDMDL
MODEL 9
REMARK VINA RESULT:      -7.5      1.455      1.893
REMARK  Name = 
REMARK  6 active torsions:
REMARK  status: ('A' for Active; 'I' for Inactive)
REMARK    1  A    between atoms: C_1  and  C_2
REMARK    2  A    between atoms: C_3  and  C_4
REMARK    3  A    between atoms: N_5  and  C_6
REMARK    4  A    between atoms: C_6  and  C_7
REMARK    5  A    between atoms: C_7  and  C_8
REMARK    6  A    between atoms: C_8  and  C_9
REMARK                            x       y       z     vdW  Elec       q    Type
REMARK                         _______ _______ _______ _____ _____    ______ ____
ROOT
ATOM      1  C   UNL     1       1.299   5.070  17.539  0.00  0.00    +0.000 C 
ATOM      2  C   UNL     1       2.703   4.875  17.999  0.00  0.00    +0.000 A 
ATOM      3  C   UNL     1       3.792   5.725  17.827  0.00  0.00    +0.000 A 
ATOM      4  C   UNL     1       3.858   7.050  17.143  0.00  0.00    +0.000 C 
ATOM      5  N   UNL     1       4.903   5.132  18.418  0.00  0.00    +0.000 N 
ATOM      6  C   UNL     1       4.507   3.936  18.959  0.00  0.00    +0.000 A 
ATOM      7  N   UNL     1       5.244   3.016  19.640  0.00  0.00    +0.000 N 
ATOM      8  C   UNL     1       4.627   1.866  20.100  0.00  0.00    +0.000 A 
ATOM      9  O   UNL     1       5.294   1.036  20.722  0.00  0.00    +0.000 OA
ATOM     10  O   UNL     1       3.300   1.649  19.873  0.00  0.00    +0.000 OA
ATOM     11  C   UNL     1       2.520   2.547  19.195  0.00  0.00    +0.000 A 
ATOM     12  O   UNL     1       1.331   2.335  19.005  0.00  0.00    +0.000 OA
ATOM     13  C   UNL     1       3.179   3.746  18.720  0.00  0.00    +0.000 A 
ATOM     14  H   UNL     1       6.227   3.114  19.844  0.00  0.00    +0.000 HD
ENDROOT
BRANCH   5  15
ATOM     15  C   UNL     1       6.246   5.723  18.432  0.00  0.00    +0.000 C 
BRANCH  15  16
ATOM     16  C   UNL     1       7.132   5.141  17.327  0.00  0.00    +0.000 C 
BRANCH  16  17
ATOM     17  C   UNL     1       7.191   5.983  16.044  0.00  0.00    +0.000 C 
BRANCH  17  18
ATOM     18  C   UNL     1       6.775   5.159  14.840  0.00  0.00    +0.000 A 
ATOM     19  C   UNL     1       5.600   4.391  14.844  0.00  0.00    +0.000 A 
ATOM     20  C   UNL     1       5.255   3.611  13.734  0.00  0.00    +0.000 A 
ATOM     21  C   UNL     1       6.081   3.583  12.611  0.00  0.00    +0.000 A 
ATOM     22  C   UNL     1       7.253   4.336  12.599  0.00  0.00    +0.000 A 
ATOM     23  C   UNL     1       7.599   5.117  13.705  0.00  0.00    +0.000 A 
ENDBRANCH  17  18
ENDBRANCH  16  17
ENDBRANCH  15  16
ENDBRANCH   5  15
TORSDOF 4
ENDMDL
