MODEL 1
REMARK VINA RESULT:      -8.1      0.000      0.000
REMARK  Name = 
REMARK  8 active torsions:
REMARK  status: ('A' for Active; 'I' for Inactive)
REMARK    1  A    between atoms: C_1  and  C_2
REMARK    2  A    between atoms: C_2  and  C_3
REMARK    3  A    between atoms: C_3  and  O_4
REMARK    4  A    between atoms: C_26  and  C_27
REMARK    5  A    between atoms: N_28  and  O_29
REMARK    6  A    between atoms: O_29  and  C_30
REMARK    7  A    between atoms: C_30  and  C_31
REMARK    8  A    between atoms: C_31  and  N_32
REMARK                            x       y       z     vdW  Elec       q    Type
REMARK                         _______ _______ _______ _____ _____    ______ ____
ROOT
ATOM      1  C   UNL     1      -1.110  10.826  18.624  0.00  0.00    +0.000 C 
ATOM      2  C   UNL     1      -1.322  11.936  19.743  0.00  0.00    +0.000 C 
ATOM      3  O   UNL     1      -1.907  13.002  19.569  0.00  0.00    +0.000 OA
ATOM      4  O   UNL     1      -0.994  11.550  20.997  0.00  0.00    +0.000 OA
ATOM      5  C   UNL     1       0.337  11.085  21.118  0.00  0.00    +0.000 C 
ATOM      6  C   UNL     1       0.708  10.100  20.072  0.00  0.00    +0.000 A 
ATOM      7  C   UNL     1       0.283  10.126  18.784  0.00  0.00    +0.000 A 
ATOM      8  C   UNL     1       1.149   9.327  17.825  0.00  0.00    +0.000 A 
ATOM      9  C   UNL     1       1.965   8.332  18.296  0.00  0.00    +0.000 A 
ATOM     10  N   UNL     1       1.803   8.010  19.640  0.00  0.00    +0.000 N 
ATOM     11  C   UNL     1       1.258   8.822  20.580  0.00  0.00    +0.000 A 
ATOM     12  O   UNL     1       1.195   8.522  21.768  0.00  0.00    +0.000 OA
ATOM     13  C   UNL     1       2.333   6.712  19.991  0.00  0.00    +0.000 C 
ATOM     14  C   UNL     1       3.180   6.383  18.818  0.00  0.00    +0.000 A 
ATOM     15  C   UNL     1       3.052   7.353  17.828  0.00  0.00    +0.000 A 
ATOM     16  N   UNL     1       3.962   7.429  16.833  0.00  0.00    +0.000 NA
ATOM     17  C   UNL     1       4.958   6.446  16.770  0.00  0.00    +0.000 A 
ATOM     18  C   UNL     1       5.999   6.492  15.828  0.00  0.00    +0.000 A 
ATOM     19  C   UNL     1       6.988   5.492  15.704  0.00  0.00    +0.000 A 
ATOM     20  C   UNL     1       6.974   4.381  16.522  0.00  0.00    +0.000 A 
ATOM     21  C   UNL     1       5.992   4.312  17.497  0.00  0.00    +0.000 A 
ATOM     22  C   UNL     1       5.020   5.341  17.669  0.00  0.00    +0.000 A 
ATOM     23  C   UNL     1       4.102   5.342  18.730  0.00  0.00    +0.000 A 
ENDROOT
BRANCH   1  25
ATOM     24  C   UNL     1      -2.596  10.640  16.452  0.00  0.00    +0.000 C 
ATOM     25  C   UNL     1      -1.718  11.480  17.356  0.00  0.00    +0.000 C 
ENDBRANCH   1  25
BRANCH   1  26
ATOM     26  O   UNL     1      -2.055   9.771  18.989  0.00  0.00    +0.000 OA
ATOM     27  H   UNL     1      -2.291   9.292  18.171  0.00  0.00    +0.000 HD
ENDBRANCH   1  26
BRANCH  23  28
ATOM     28  C   UNL     1       4.057   4.310  19.799  0.00  0.00    +0.000 C 
ATOM     29  N   UNL     1       3.388   3.209  19.706  0.00  0.00    +0.000 NA
BRANCH  29  30
ATOM     30  O   UNL     1       3.512   2.469  20.898  0.00  0.00    +0.000 OA
BRANCH  30  31
ATOM     31  C   UNL     1       2.249   2.506  21.575  0.00  0.00    +0.000 C 
BRANCH  31  32
ATOM     32  C   UNL     1       1.115   2.506  20.548  0.00  0.00    +0.000 C 
BRANCH  32  33
ATOM     33  N   UNL     1       0.473   3.816  20.415  0.00  0.00    +0.000 NA
ATOM     34  H   UNL     1       0.966   4.376  19.721  0.00  0.00    +0.000 HD
ATOM     35  H   UNL     1       0.552   4.321  21.298  0.00  0.00    +0.000 HD
ENDBRANCH  32  33
ENDBRANCH  31  32
ENDBRANCH  30  31
ENDBRANCH  29  30
ENDBRANCH  23  28
TORSDOF 7
ENDMDL
MODEL 2
REMARK VINA RESULT:      -8.0      2.428      4.539
REMARK  Name = 
REMARK  8 active torsions:
REMARK  status: ('A' for Active; 'I' for Inactive)
REMARK    1  A    between atoms: C_1  and  C_2
REMARK    2  A    between atoms: C_2  and  C_3
REMARK    3  A    between atoms: C_3  and  O_4
REMARK    4  A    between atoms: C_26  and  C_27
REMARK    5  A    between atoms: N_28  and  O_29
REMARK    6  A    between atoms: O_29  and  C_30
REMARK    7  A    between atoms: C_30  and  C_31
REMARK    8  A    between atoms: C_31  and  N_32
REMARK                            x       y       z     vdW  Elec       q    Type
REMARK                         _______ _______ _______ _____ _____    ______ ____
ROOT
ATOM      1  C   UNL     1       0.077  10.992  21.253  0.00  0.00    +0.000 C 
ATOM      2  C   UNL     1      -0.786  12.103  20.510  0.00  0.00    +0.000 C 
ATOM      3  O   UNL     1      -1.674  12.768  21.037  0.00  0.00    +0.000 OA
ATOM      4  O   UNL     1      -0.341  12.438  19.278  0.00  0.00    +0.000 OA
ATOM      5  C   UNL     1      -0.231  11.336  18.396  0.00  0.00    +0.000 C 
ATOM      6  C   UNL     1       0.479  10.179  18.994  0.00  0.00    +0.000 A 
ATOM      7  C   UNL     1       0.400   9.797  20.293  0.00  0.00    +0.000 A 
ATOM      8  C   UNL     1       0.814   8.357  20.546  0.00  0.00    +0.000 A 
ATOM      9  C   UNL     1       1.611   7.699  19.646  0.00  0.00    +0.000 A 
ATOM     10  N   UNL     1       2.134   8.483  18.623  0.00  0.00    +0.000 N 
ATOM     11  C   UNL     1       1.621   9.667  18.203  0.00  0.00    +0.000 A 
ATOM     12  O   UNL     1       2.078  10.294  17.252  0.00  0.00    +0.000 OA
ATOM     13  C   UNL     1       3.281   7.893  17.972  0.00  0.00    +0.000 C 
ATOM     14  C   UNL     1       3.223   6.484  18.432  0.00  0.00    +0.000 A 
ATOM     15  C   UNL     1       2.202   6.311  19.362  0.00  0.00    +0.000 A 
ATOM     16  N   UNL     1       1.762   5.068  19.660  0.00  0.00    +0.000 NA
ATOM     17  C   UNL     1       2.432   3.975  19.096  0.00  0.00    +0.000 A 
ATOM     18  C   UNL     1       1.993   2.653  19.275  0.00  0.00    +0.000 A 
ATOM     19  C   UNL     1       2.675   1.526  18.764  0.00  0.00    +0.000 A 
ATOM     20  C   UNL     1       3.845   1.674  18.049  0.00  0.00    +0.000 A 
ATOM     21  C   UNL     1       4.295   2.962  17.809  0.00  0.00    +0.000 A 
ATOM     22  C   UNL     1       3.588   4.111  18.272  0.00  0.00    +0.000 A 
ATOM     23  C   UNL     1       3.965   5.419  17.928  0.00  0.00    +0.000 A 
ENDROOT
BRANCH   1  25
ATOM     24  C   UNL     1      -0.334   9.713  23.524  0.00  0.00    +0.000 C 
ATOM     25  C   UNL     1      -0.552  10.945  22.671  0.00  0.00    +0.000 C 
ENDBRANCH   1  25
BRANCH   1  26
ATOM     26  O   UNL     1       1.380  11.626  21.445  0.00  0.00    +0.000 OA
ATOM     27  H   UNL     1       1.480  12.309  20.754  0.00  0.00    +0.000 HD
ENDBRANCH   1  26
BRANCH  23  28
ATOM     28  C   UNL     1       5.101   5.753  17.030  0.00  0.00    +0.000 C 
ATOM     29  N   UNL     1       5.032   5.721  15.742  0.00  0.00    +0.000 NA
BRANCH  29  30
ATOM     30  O   UNL     1       6.285   6.043  15.184  0.00  0.00    +0.000 OA
BRANCH  30  31
ATOM     31  C   UNL     1       6.896   4.827  14.736  0.00  0.00    +0.000 C 
BRANCH  31  32
ATOM     32  C   UNL     1       5.839   3.928  14.090  0.00  0.00    +0.000 C 
BRANCH  32  33
ATOM     33  N   UNL     1       6.336   3.239  12.897  0.00  0.00    +0.000 NA
ATOM     34  H   UNL     1       6.570   2.274  13.125  0.00  0.00    +0.000 HD
ATOM     35  H   UNL     1       7.204   3.679  12.591  0.00  0.00    +0.000 HD
ENDBRANCH  32  33
ENDBRANCH  31  32
ENDBRANCH  30  31
ENDBRANCH  29  30
ENDBRANCH  23  28
TORSDOF 7
ENDMDL
MODEL 3
REMARK VINA RESULT:      -7.9      2.055      4.453
REMARK  Name = 
REMARK  8 active torsions:
REMARK  status: ('A' for Active; 'I' for Inactive)
REMARK    1  A    between atoms: C_1  and  C_2
REMARK    2  A    between atoms: C_2  and  C_3
REMARK    3  A    between atoms: C_3  and  O_4
REMARK    4  A    between atoms: C_26  and  C_27
REMARK    5  A    between atoms: N_28  and  O_29
REMARK    6  A    between atoms: O_29  and  C_30
REMARK    7  A    between atoms: C_30  and  C_31
REMARK    8  A    between atoms: C_31  and  N_32
REMARK                            x       y       z     vdW  Elec       q    Type
REMARK                         _______ _______ _______ _____ _____    ______ ____
ROOT
ATOM      1  C   UNL     1      -0.435  11.923  21.077  0.00  0.00    +0.000 C 
ATOM      2  C   UNL     1      -1.530  12.684  20.209  0.00  0.00    +0.000 C 
ATOM      3  O   UNL     1      -2.405  13.413  20.669  0.00  0.00    +0.000 OA
ATOM      4  O   UNL     1      -1.317  12.655  18.874  0.00  0.00    +0.000 OA
ATOM      5  C   UNL     1      -1.204  11.346  18.347  0.00  0.00    +0.000 C 
ATOM      6  C   UNL     1      -0.275  10.485  19.119  0.00  0.00    +0.000 A 
ATOM      7  C   UNL     1      -0.112  10.517  20.465  0.00  0.00    +0.000 A 
ATOM      8  C   UNL     1       0.509   9.260  21.049  0.00  0.00    +0.000 A 
ATOM      9  C   UNL     1       1.240   8.416  20.253  0.00  0.00    +0.000 A 
ATOM     10  N   UNL     1       1.504   8.883  18.970  0.00  0.00    +0.000 N 
ATOM     11  C   UNL     1       0.792   9.838  18.321  0.00  0.00    +0.000 A 
ATOM     12  O   UNL     1       1.022  10.174  17.163  0.00  0.00    +0.000 OA
ATOM     13  C   UNL     1       2.606   8.206  18.324  0.00  0.00    +0.000 C 
ATOM     14  C   UNL     1       2.792   7.007  19.179  0.00  0.00    +0.000 A 
ATOM     15  C   UNL     1       1.949   7.055  20.285  0.00  0.00    +0.000 A 
ATOM     16  N   UNL     1       1.716   5.936  21.007  0.00  0.00    +0.000 NA
ATOM     17  C   UNL     1       2.425   4.775  20.675  0.00  0.00    +0.000 A 
ATOM     18  C   UNL     1       2.185   3.543  21.307  0.00  0.00    +0.000 A 
ATOM     19  C   UNL     1       2.917   2.367  21.034  0.00  0.00    +0.000 A 
ATOM     20  C   UNL     1       3.941   2.372  20.110  0.00  0.00    +0.000 A 
ATOM     21  C   UNL     1       4.187   3.553  19.428  0.00  0.00    +0.000 A 
ATOM     22  C   UNL     1       3.420   4.734  19.655  0.00  0.00    +0.000 A 
ATOM     23  C   UNL     1       3.577   5.895  18.883  0.00  0.00    +0.000 A 
ENDROOT
BRANCH   1  25
ATOM     24  C   UNL     1      -1.834  11.382  23.248  0.00  0.00    +0.000 C 
ATOM     25  C   UNL     1      -0.836  12.269  22.536  0.00  0.00    +0.000 C 
ENDBRANCH   1  25
BRANCH   1  26
ATOM     26  O   UNL     1       0.794  12.679  20.839  0.00  0.00    +0.000 OA
ATOM     27  H   UNL     1       1.523  12.035  20.748  0.00  0.00    +0.000 HD
ENDBRANCH   1  26
BRANCH  23  28
ATOM     28  C   UNL     1       4.517   6.019  17.739  0.00  0.00    +0.000 C 
ATOM     29  N   UNL     1       5.740   6.417  17.854  0.00  0.00    +0.000 NA
BRANCH  29  30
ATOM     30  O   UNL     1       6.350   6.469  16.585  0.00  0.00    +0.000 OA
BRANCH  30  31
ATOM     31  C   UNL     1       5.844   5.379  15.805  0.00  0.00    +0.000 C 
BRANCH  31  32
ATOM     32  C   UNL     1       6.887   4.261  15.744  0.00  0.00    +0.000 C 
BRANCH  32  33
ATOM     33  N   UNL     1       7.802   4.280  16.888  0.00  0.00    +0.000 NA
ATOM     34  H   UNL     1       8.751   4.077  16.578  0.00  0.00    +0.000 HD
ATOM     35  H   UNL     1       7.547   3.535  17.536  0.00  0.00    +0.000 HD
ENDBRANCH  32  33
ENDBRANCH  31  32
ENDBRANCH  30  31
ENDBRANCH  29  30
ENDBRANCH  23  28
TORSDOF 7
ENDMDL
MODEL 4
REMARK VINA RESULT:      -7.4      2.627      8.682
REMARK  Name = 
REMARK  8 active torsions:
REMARK  status: ('A' for Active; 'I' for Inactive)
REMARK    1  A    between atoms: C_1  and  C_2
REMARK    2  A    between atoms: C_2  and  C_3
REMARK    3  A    between atoms: C_3  and  O_4
REMARK    4  A    between atoms: C_26  and  C_27
REMARK    5  A    between atoms: N_28  and  O_29
REMARK    6  A    between atoms: O_29  and  C_30
REMARK    7  A    between atoms: C_30  and  C_31
REMARK    8  A    between atoms: C_31  and  N_32
REMARK                            x       y       z     vdW  Elec       q    Type
REMARK                         _______ _______ _______ _____ _____    ______ ____
ROOT
ATOM      1  C   UNL     1       3.117   4.526  19.669  0.00  0.00    +0.000 C 
ATOM      2  C   UNL     1       4.566   4.296  19.053  0.00  0.00    +0.000 C 
ATOM      3  O   UNL     1       5.336   3.401  19.391  0.00  0.00    +0.000 OA
ATOM      4  O   UNL     1       4.841   5.037  17.956  0.00  0.00    +0.000 OA
ATOM      5  C   UNL     1       4.690   6.429  18.158  0.00  0.00    +0.000 C 
ATOM      6  C   UNL     1       3.409   6.787  18.815  0.00  0.00    +0.000 A 
ATOM      7  C   UNL     1       2.786   6.054  19.772  0.00  0.00    +0.000 A 
ATOM      8  C   UNL     1       1.783   6.835  20.603  0.00  0.00    +0.000 A 
ATOM      9  C   UNL     1       1.245   8.000  20.121  0.00  0.00    +0.000 A 
ATOM     10  N   UNL     1       1.543   8.294  18.795  0.00  0.00    +0.000 N 
ATOM     11  C   UNL     1       2.598   7.799  18.100  0.00  0.00    +0.000 A 
ATOM     12  O   UNL     1       2.859   8.137  16.950  0.00  0.00    +0.000 OA
ATOM     13  C   UNL     1       0.640   9.253  18.199  0.00  0.00    +0.000 C 
ATOM     14  C   UNL     1      -0.049   9.824  19.382  0.00  0.00    +0.000 A 
ATOM     15  C   UNL     1       0.338   9.165  20.545  0.00  0.00    +0.000 A 
ATOM     16  N   UNL     1       0.095   9.722  21.752  0.00  0.00    +0.000 NA
ATOM     17  C   UNL     1      -0.646  10.910  21.795  0.00  0.00    +0.000 A 
ATOM     18  C   UNL     1      -0.871  11.609  22.993  0.00  0.00    +0.000 A 
ATOM     19  C   UNL     1      -1.657  12.780  23.079  0.00  0.00    +0.000 A 
ATOM     20  C   UNL     1      -2.266  13.305  21.958  0.00  0.00    +0.000 A 
ATOM     21  C   UNL     1      -2.038  12.675  20.746  0.00  0.00    +0.000 A 
ATOM     22  C   UNL     1      -1.203  11.523  20.635  0.00  0.00    +0.000 A 
ATOM     23  C   UNL     1      -0.864  10.954  19.398  0.00  0.00    +0.000 A 
ENDROOT
BRANCH   1  25
ATOM     24  C   UNL     1       1.705   3.231  21.483  0.00  0.00    +0.000 C 
ATOM     25  C   UNL     1       3.028   3.445  20.778  0.00  0.00    +0.000 C 
ENDBRANCH   1  25
BRANCH   1  26
ATOM     26  O   UNL     1       2.210   4.059  18.621  0.00  0.00    +0.000 OA
ATOM     27  H   UNL     1       2.626   4.260  17.760  0.00  0.00    +0.000 HD
ENDBRANCH   1  26
BRANCH  23  28
ATOM     28  C   UNL     1      -1.297  11.492  18.082  0.00  0.00    +0.000 C 
ATOM     29  N   UNL     1      -2.276  11.006  17.395  0.00  0.00    +0.000 NA
BRANCH  29  30
ATOM     30  O   UNL     1      -2.403  11.706  16.179  0.00  0.00    +0.000 OA
BRANCH  30  31
ATOM     31  C   UNL     1      -3.535  11.174  15.479  0.00  0.00    +0.000 C 
BRANCH  31  32
ATOM     32  C   UNL     1      -3.160   9.838  14.833  0.00  0.00    +0.000 C 
BRANCH  32  33
ATOM     33  N   UNL     1      -2.663   9.994  13.464  0.00  0.00    +0.000 NA
ATOM     34  H   UNL     1      -2.160  10.875  13.375  0.00  0.00    +0.000 HD
ATOM     35  H   UNL     1      -3.454  10.050  12.822  0.00  0.00    +0.000 HD
ENDBRANCH  32  33
ENDBRANCH  31  32
ENDBRANCH  30  31
ENDBRANCH  29  30
ENDBRANCH  23  28
TORSDOF 7
ENDMDL
MODEL 5
REMARK VINA RESULT:      -7.3      1.312      1.470
REMARK  Name = 
REMARK  8 active torsions:
REMARK  status: ('A' for Active; 'I' for Inactive)
REMARK    1  A    between atoms: C_1  and  C_2
REMARK    2  A    between atoms: C_2  and  C_3
REMARK    3  A    between atoms: C_3  and  O_4
REMARK    4  A    between atoms: C_26  and  C_27
REMARK    5  A    between atoms: N_28  and  O_29
REMARK    6  A    between atoms: O_29  and  C_30
REMARK    7  A    between atoms: C_30  and  C_31
REMARK    8  A    between atoms: C_31  and  N_32
REMARK                            x       y       z     vdW  Elec       q    Type
REMARK                         _______ _______ _______ _____ _____    ______ ____
ROOT
ATOM      1  C   UNL     1      -0.109  11.473  19.464  0.00  0.00    +0.000 C 
ATOM      2  C   UNL     1      -0.229  12.142  20.902  0.00  0.00    +0.000 C 
ATOM      3  O   UNL     1      -0.479  13.328  21.104  0.00  0.00    +0.000 OA
ATOM      4  O   UNL     1      -0.245  11.270  21.935  0.00  0.00    +0.000 OA
ATOM      5  C   UNL     1       0.878  10.409  21.968  0.00  0.00    +0.000 C 
ATOM      6  C   UNL     1       1.167   9.778  20.657  0.00  0.00    +0.000 A 
ATOM      7  C   UNL     1       1.005  10.371  19.448  0.00  0.00    +0.000 A 
ATOM      8  C   UNL     1       1.796   9.724  18.324  0.00  0.00    +0.000 A 
ATOM      9  C   UNL     1       2.230   8.430  18.440  0.00  0.00    +0.000 A 
ATOM     10  N   UNL     1       1.749   7.734  19.545  0.00  0.00    +0.000 N 
ATOM     11  C   UNL     1       1.269   8.300  20.680  0.00  0.00    +0.000 A 
ATOM     12  O   UNL     1       0.916   7.647  21.656  0.00  0.00    +0.000 OA
ATOM     13  C   UNL     1       1.855   6.298  19.414  0.00  0.00    +0.000 C 
ATOM     14  C   UNL     1       2.788   6.148  18.270  0.00  0.00    +0.000 A 
ATOM     15  C   UNL     1       3.095   7.387  17.717  0.00  0.00    +0.000 A 
ATOM     16  N   UNL     1       4.160   7.517  16.895  0.00  0.00    +0.000 NA
ATOM     17  C   UNL     1       4.865   6.361  16.537  0.00  0.00    +0.000 A 
ATOM     18  C   UNL     1       6.036   6.406  15.763  0.00  0.00    +0.000 A 
ATOM     19  C   UNL     1       6.741   5.257  15.341  0.00  0.00    +0.000 A 
ATOM     20  C   UNL     1       6.293   3.995  15.672  0.00  0.00    +0.000 A 
ATOM     21  C   UNL     1       5.166   3.900  16.472  0.00  0.00    +0.000 A 
ATOM     22  C   UNL     1       4.476   5.052  16.950  0.00  0.00    +0.000 A 
ATOM     23  C   UNL     1       3.412   4.971  17.861  0.00  0.00    +0.000 A 
ENDROOT
BRANCH   1  25
ATOM     24  C   UNL     1       0.907  13.554  18.198  0.00  0.00    +0.000 C 
ATOM     25  C   UNL     1      -0.288  12.674  18.498  0.00  0.00    +0.000 C 
ENDBRANCH   1  25
BRANCH   1  26
ATOM     26  O   UNL     1      -1.343  10.700  19.330  0.00  0.00    +0.000 OA
ATOM     27  H   UNL     1      -1.832  10.778  20.172  0.00  0.00    +0.000 HD
ENDBRANCH   1  26
BRANCH  23  28
ATOM     28  C   UNL     1       2.910   3.702  18.450  0.00  0.00    +0.000 C 
ATOM     29  N   UNL     1       3.541   3.031  19.355  0.00  0.00    +0.000 NA
BRANCH  29  30
ATOM     30  O   UNL     1       2.828   1.858  19.669  0.00  0.00    +0.000 OA
BRANCH  30  31
ATOM     31  C   UNL     1       1.501   2.236  20.057  0.00  0.00    +0.000 C 
BRANCH  31  32
ATOM     32  C   UNL     1       1.448   2.439  21.573  0.00  0.00    +0.000 C 
BRANCH  32  33
ATOM     33  N   UNL     1       2.248   3.583  22.018  0.00  0.00    +0.000 NA
ATOM     34  H   UNL     1       2.890   3.867  21.278  0.00  0.00    +0.000 HD
ATOM     35  H   UNL     1       2.828   3.302  22.808  0.00  0.00    +0.000 HD
ENDBRANCH  32  33
ENDBRANCH  31  32
ENDBRANCH  30  31
ENDBRANCH  29  30
ENDBRANCH  23  28
TORSDOF 7
ENDMDL
MODEL 6
REMARK VINA RESULT:      -7.3      2.260      4.532
REMARK  Name = 
REMARK  8 active torsions:
REMARK  status: ('A' for Active; 'I' for Inactive)
REMARK    1  A    between atoms: C_1  and  C_2
REMARK    2  A    between atoms: C_2  and  C_3
REMARK    3  A    between atoms: C_3  and  O_4
REMARK    4  A    between atoms: C_26  and  C_27
REMARK    5  A    between atoms: N_28  and  O_29
REMARK    6  A    between atoms: O_29  and  C_30
REMARK    7  A    between atoms: C_30  and  C_31
REMARK    8  A    between atoms: C_31  and  N_32
REMARK                            x       y       z     vdW  Elec       q    Type
REMARK                         _______ _______ _______ _____ _____    ______ ____
ROOT
ATOM      1  C   UNL     1      -0.016  11.131  21.253  0.00  0.00    +0.000 C 
ATOM      2  C   UNL     1      -0.757  12.258  20.410  0.00  0.00    +0.000 C 
ATOM      3  O   UNL     1      -1.646  12.986  20.844  0.00  0.00    +0.000 OA
ATOM      4  O   UNL     1      -0.201  12.525  19.207  0.00  0.00    +0.000 OA
ATOM      5  C   UNL     1      -0.083  11.389  18.371  0.00  0.00    +0.000 C 
ATOM      6  C   UNL     1       0.514  10.218  19.060  0.00  0.00    +0.000 A 
ATOM      7  C   UNL     1       0.316   9.887  20.360  0.00  0.00    +0.000 A 
ATOM      8  C   UNL     1       0.629   8.438  20.689  0.00  0.00    +0.000 A 
ATOM      9  C   UNL     1       1.457   7.708  19.877  0.00  0.00    +0.000 A 
ATOM     10  N   UNL     1       2.099   8.427  18.874  0.00  0.00    +0.000 N 
ATOM     11  C   UNL     1       1.685   9.620  18.378  0.00  0.00    +0.000 A 
ATOM     12  O   UNL     1       2.247  10.188  17.447  0.00  0.00    +0.000 OA
ATOM     13  C   UNL     1       3.259   7.755  18.334  0.00  0.00    +0.000 C 
ATOM     14  C   UNL     1       3.089   6.368  18.832  0.00  0.00    +0.000 A 
ATOM     15  C   UNL     1       1.992   6.281  19.684  0.00  0.00    +0.000 A 
ATOM     16  N   UNL     1       1.463   5.075  19.985  0.00  0.00    +0.000 NA
ATOM     17  C   UNL     1       2.114   3.929  19.510  0.00  0.00    +0.000 A 
ATOM     18  C   UNL     1       1.592   2.638  19.695  0.00  0.00    +0.000 A 
ATOM     19  C   UNL     1       2.248   1.460  19.275  0.00  0.00    +0.000 A 
ATOM     20  C   UNL     1       3.477   1.522  18.651  0.00  0.00    +0.000 A 
ATOM     21  C   UNL     1       4.013   2.776  18.406  0.00  0.00    +0.000 A 
ATOM     22  C   UNL     1       3.336   3.975  18.776  0.00  0.00    +0.000 A 
ATOM     23  C   UNL     1       3.809   5.249  18.422  0.00  0.00    +0.000 A 
ENDROOT
BRANCH   1  25
ATOM     24  C   UNL     1      -0.615   9.983  23.553  0.00  0.00    +0.000 C 
ATOM     25  C   UNL     1      -0.753  11.166  22.618  0.00  0.00    +0.000 C 
ENDBRANCH   1  25
BRANCH   1  26
ATOM     26  O   UNL     1       1.301  11.703  21.527  0.00  0.00    +0.000 OA
ATOM     27  H   UNL     1       1.165  12.611  21.861  0.00  0.00    +0.000 HD
ENDBRANCH   1  26
BRANCH  23  28
ATOM     28  C   UNL     1       5.027   5.492  17.607  0.00  0.00    +0.000 C 
ATOM     29  N   UNL     1       6.223   5.517  18.092  0.00  0.00    +0.000 NA
BRANCH  29  30
ATOM     30  O   UNL     1       7.150   5.816  17.074  0.00  0.00    +0.000 OA
BRANCH  30  31
ATOM     31  C   UNL     1       7.034   7.210  16.765  0.00  0.00    +0.000 C 
BRANCH  31  32
ATOM     32  C   UNL     1       7.829   8.031  17.783  0.00  0.00    +0.000 C 
BRANCH  32  33
ATOM     33  N   UNL     1       8.440   7.200  18.823  0.00  0.00    +0.000 NA
ATOM     34  H   UNL     1       8.663   6.279  18.447  0.00  0.00    +0.000 HD
ATOM     35  H   UNL     1       7.765   7.047  19.573  0.00  0.00    +0.000 HD
ENDBRANCH  32  33
ENDBRANCH  31  32
ENDBRANCH  30  31
ENDBRANCH  29  30
ENDBRANCH  23  28
TORSDOF 7
ENDMDL
MODEL 7
REMARK VINA RESULT:      -6.7      2.812      8.716
REMARK  Name = 
REMARK  8 active torsions:
REMARK  status: ('A' for Active; 'I' for Inactive)
REMARK    1  A    between atoms: C_1  and  C_2
REMARK    2  A    between atoms: C_2  and  C_3
REMARK    3  A    between atoms: C_3  and  O_4
REMARK    4  A    between atoms: C_26  and  C_27
REMARK    5  A    between atoms: N_28  and  O_29
REMARK    6  A    between atoms: O_29  and  C_30
REMARK    7  A    between atoms: C_30  and  C_31
REMARK    8  A    between atoms: C_31  and  N_32
REMARK                            x       y       z     vdW  Elec       q    Type
REMARK                         _______ _______ _______ _____ _____    ______ ____
ROOT
ATOM      1  C   UNL     1       3.934   4.545  18.961  0.00  0.00    +0.000 C 
ATOM      2  C   UNL     1       5.380   4.520  18.299  0.00  0.00    +0.000 C 
ATOM      3  O   UNL     1       6.245   3.682  18.540  0.00  0.00    +0.000 OA
ATOM      4  O   UNL     1       5.547   5.377  17.267  0.00  0.00    +0.000 OA
ATOM      5  C   UNL     1       5.263   6.724  17.597  0.00  0.00    +0.000 C 
ATOM      6  C   UNL     1       3.972   6.890  18.309  0.00  0.00    +0.000 A 
ATOM      7  C   UNL     1       3.454   6.017  19.207  0.00  0.00    +0.000 A 
ATOM      8  C   UNL     1       2.402   6.616  20.125  0.00  0.00    +0.000 A 
ATOM      9  C   UNL     1       1.736   7.757  19.761  0.00  0.00    +0.000 A 
ATOM     10  N   UNL     1       1.965   8.195  18.461  0.00  0.00    +0.000 N 
ATOM     11  C   UNL     1       3.044   7.873  17.704  0.00  0.00    +0.000 A 
ATOM     12  O   UNL     1       3.236   8.335  16.583  0.00  0.00    +0.000 OA
ATOM     13  C   UNL     1       0.954   9.104  17.971  0.00  0.00    +0.000 C 
ATOM     14  C   UNL     1       0.245   9.497  19.215  0.00  0.00    +0.000 A 
ATOM     15  C   UNL     1       0.730   8.781  20.306  0.00  0.00    +0.000 A 
ATOM     16  N   UNL     1       0.468   9.203  21.562  0.00  0.00    +0.000 NA
ATOM     17  C   UNL     1      -0.386  10.301  21.727  0.00  0.00    +0.000 A 
ATOM     18  C   UNL     1      -0.646  10.867  22.987  0.00  0.00    +0.000 A 
ATOM     19  C   UNL     1      -1.542  11.939  23.194  0.00  0.00    +0.000 A 
ATOM     20  C   UNL     1      -2.233  12.494  22.137  0.00  0.00    +0.000 A 
ATOM     21  C   UNL     1      -1.978  11.999  20.868  0.00  0.00    +0.000 A 
ATOM     22  C   UNL     1      -1.036  10.953  20.638  0.00  0.00    +0.000 A 
ATOM     23  C   UNL     1      -0.677  10.531  19.348  0.00  0.00    +0.000 A 
ENDROOT
BRANCH   1  25
ATOM     24  C   UNL     1       2.697   2.907  20.619  0.00  0.00    +0.000 C 
ATOM     25  C   UNL     1       3.985   3.368  19.971  0.00  0.00    +0.000 C 
ENDBRANCH   1  25
BRANCH   1  26
ATOM     26  O   UNL     1       3.048   4.082  17.894  0.00  0.00    +0.000 OA
ATOM     27  H   UNL     1       2.179   3.888  18.296  0.00  0.00    +0.000 HD
ENDBRANCH   1  26
BRANCH  23  28
ATOM     28  C   UNL     1      -1.200  11.135  18.095  0.00  0.00    +0.000 C 
ATOM     29  N   UNL     1      -2.197  10.656  17.429  0.00  0.00    +0.000 NA
BRANCH  29  30
ATOM     30  O   UNL     1      -2.415  11.427  16.270  0.00  0.00    +0.000 OA
BRANCH  30  31
ATOM     31  C   UNL     1      -3.777  11.240  15.864  0.00  0.00    +0.000 C 
BRANCH  31  32
ATOM     32  C   UNL     1      -4.697  11.360  17.082  0.00  0.00    +0.000 C 
BRANCH  32  33
ATOM     33  N   UNL     1      -5.468  12.606  17.084  0.00  0.00    +0.000 NA
ATOM     34  H   UNL     1      -5.331  13.102  16.205  0.00  0.00    +0.000 HD
ATOM     35  H   UNL     1      -5.115  13.220  17.818  0.00  0.00    +0.000 HD
ENDBRANCH  32  33
ENDBRANCH  31  32
ENDBRANCH  30  31
ENDBRANCH  29  30
ENDBRANCH  23  28
TORSDOF 7
ENDMDL
MODEL 8
REMARK VINA RESULT:      -6.7      2.854      8.759
REMARK  Name = 
REMARK  8 active torsions:
REMARK  status: ('A' for Active; 'I' for Inactive)
REMARK    1  A    between atoms: C_1  and  C_2
REMARK    2  A    between atoms: C_2  and  C_3
REMARK    3  A    between atoms: C_3  and  O_4
REMARK    4  A    between atoms: C_26  and  C_27
REMARK    5  A    between atoms: N_28  and  O_29
REMARK    6  A    between atoms: O_29  and  C_30
REMARK    7  A    between atoms: C_30  and  C_31
REMARK    8  A    between atoms: C_31  and  N_32
REMARK                            x       y       z     vdW  Elec       q    Type
REMARK                         _______ _______ _______ _____ _____    ______ ____
ROOT
ATOM      1  C   UNL     1       2.433   3.458  18.747  0.00  0.00    +0.000 C 
ATOM      2  C   UNL     1       3.898   2.850  18.619  0.00  0.00    +0.000 C 
ATOM      3  O   UNL     1       4.185   1.671  18.811  0.00  0.00    +0.000 OA
ATOM      4  O   UNL     1       4.812   3.680  18.070  0.00  0.00    +0.000 OA
ATOM      5  C   UNL     1       4.933   4.918  18.745  0.00  0.00    +0.000 C 
ATOM      6  C   UNL     1       3.625   5.564  19.017  0.00  0.00    +0.000 A 
ATOM      7  C   UNL     1       2.478   4.911  19.331  0.00  0.00    +0.000 A 
ATOM      8  C   UNL     1       1.434   5.779  20.013  0.00  0.00    +0.000 A 
ATOM      9  C   UNL     1       1.476   7.142  19.883  0.00  0.00    +0.000 A 
ATOM     10  N   UNL     1       2.405   7.628  18.969  0.00  0.00    +0.000 N 
ATOM     11  C   UNL     1       3.502   6.959  18.535  0.00  0.00    +0.000 A 
ATOM     12  O   UNL     1       4.330   7.453  17.776  0.00  0.00    +0.000 OA
ATOM     13  C   UNL     1       2.136   8.982  18.537  0.00  0.00    +0.000 C 
ATOM     14  C   UNL     1       1.150   9.450  19.542  0.00  0.00    +0.000 A 
ATOM     15  C   UNL     1       0.793   8.416  20.403  0.00  0.00    +0.000 A 
ATOM     16  N   UNL     1       0.175   8.692  21.572  0.00  0.00    +0.000 NA
ATOM     17  C   UNL     1      -0.188  10.019  21.832  0.00  0.00    +0.000 A 
ATOM     18  C   UNL     1      -0.752  10.417  23.056  0.00  0.00    +0.000 A 
ATOM     19  C   UNL     1      -1.177  11.735  23.331  0.00  0.00    +0.000 A 
ATOM     20  C   UNL     1      -1.063  12.726  22.377  0.00  0.00    +0.000 A 
ATOM     21  C   UNL     1      -0.472  12.393  21.169  0.00  0.00    +0.000 A 
ATOM     22  C   UNL     1       0.010  11.079  20.898  0.00  0.00    +0.000 A 
ATOM     23  C   UNL     1       0.722  10.762  19.731  0.00  0.00    +0.000 A 
ENDROOT
BRANCH   1  25
ATOM     24  C   UNL     1       1.128   2.217  20.675  0.00  0.00    +0.000 C 
ATOM     25  C   UNL     1       1.589   2.251  19.234  0.00  0.00    +0.000 C 
ENDBRANCH   1  25
BRANCH   1  26
ATOM     26  O   UNL     1       2.016   3.670  17.362  0.00  0.00    +0.000 OA
ATOM     27  H   UNL     1       1.071   3.918  17.373  0.00  0.00    +0.000 HD
ENDBRANCH   1  26
BRANCH  23  28
ATOM     28  C   UNL     1       1.079  11.746  18.676  0.00  0.00    +0.000 C 
ATOM     29  N   UNL     1       2.068  12.570  18.767  0.00  0.00    +0.000 NA
BRANCH  29  30
ATOM     30  O   UNL     1       2.111  13.399  17.629  0.00  0.00    +0.000 OA
BRANCH  30  31
ATOM     31  C   UNL     1       2.472  14.718  18.055  0.00  0.00    +0.000 C 
BRANCH  31  32
ATOM     32  C   UNL     1       3.854  14.686  18.714  0.00  0.00    +0.000 C 
BRANCH  32  33
ATOM     33  N   UNL     1       4.911  14.274  17.787  0.00  0.00    +0.000 NA
ATOM     34  H   UNL     1       5.466  15.083  17.511  0.00  0.00    +0.000 HD
ATOM     35  H   UNL     1       4.488  13.912  16.933  0.00  0.00    +0.000 HD
ENDBRANCH  32  33
ENDBRANCH  31  32
ENDBRANCH  30  31
ENDBRANCH  29  30
ENDBRANCH  23  28
TORSDOF 7
ENDMDL
MODEL 9
REMARK VINA RESULT:      -6.4      0.848      1.154
REMARK  Name = 
REMARK  8 active torsions:
REMARK  status: ('A' for Active; 'I' for Inactive)
REMARK    1  A    between atoms: C_1  and  C_2
REMARK    2  A    between atoms: C_2  and  C_3
REMARK    3  A    between atoms: C_3  and  O_4
REMARK    4  A    between atoms: C_26  and  C_27
REMARK    5  A    between atoms: N_28  and  O_29
REMARK    6  A    between atoms: O_29  and  C_30
REMARK    7  A    between atoms: C_30  and  C_31
REMARK    8  A    between atoms: C_31  and  N_32
REMARK                            x       y       z     vdW  Elec       q    Type
REMARK                         _______ _______ _______ _____ _____    ______ ____
ROOT
ATOM      1  C   UNL     1      -1.168  11.328  18.792  0.00  0.00    +0.000 C 
ATOM      2  C   UNL     1      -1.319  12.456  19.903  0.00  0.00    +0.000 C 
ATOM      3  O   UNL     1      -1.850  13.549  19.723  0.00  0.00    +0.000 OA
ATOM      4  O   UNL     1      -1.005  12.063  21.159  0.00  0.00    +0.000 OA
ATOM      5  C   UNL     1       0.302  11.533  21.277  0.00  0.00    +0.000 C 
ATOM      6  C   UNL     1       0.618  10.523  20.237  0.00  0.00    +0.000 A 
ATOM      7  C   UNL     1       0.189  10.560  18.951  0.00  0.00    +0.000 A 
ATOM      8  C   UNL     1       1.009   9.711  17.995  0.00  0.00    +0.000 A 
ATOM      9  C   UNL     1       1.776   8.680  18.471  0.00  0.00    +0.000 A 
ATOM     10  N   UNL     1       1.605   8.378  19.817  0.00  0.00    +0.000 N 
ATOM     11  C   UNL     1       1.106   9.223  20.753  0.00  0.00    +0.000 A 
ATOM     12  O   UNL     1       1.032   8.935  21.944  0.00  0.00    +0.000 OA
ATOM     13  C   UNL     1       2.070   7.057  20.176  0.00  0.00    +0.000 C 
ATOM     14  C   UNL     1       2.895   6.677  19.002  0.00  0.00    +0.000 A 
ATOM     15  C   UNL     1       2.810   7.644  18.006  0.00  0.00    +0.000 A 
ATOM     16  N   UNL     1       3.719   7.667  17.006  0.00  0.00    +0.000 NA
ATOM     17  C   UNL     1       4.664   6.635  16.947  0.00  0.00    +0.000 A 
ATOM     18  C   UNL     1       5.702   6.622  16.000  0.00  0.00    +0.000 A 
ATOM     19  C   UNL     1       6.639   5.572  15.879  0.00  0.00    +0.000 A 
ATOM     20  C   UNL     1       6.573   4.470  16.707  0.00  0.00    +0.000 A 
ATOM     21  C   UNL     1       5.593   4.457  17.686  0.00  0.00    +0.000 A 
ATOM     22  C   UNL     1       4.675   5.535  17.854  0.00  0.00    +0.000 A 
ATOM     23  C   UNL     1       3.762   5.591  18.919  0.00  0.00    +0.000 A 
ENDROOT
BRANCH   1  25
ATOM     24  C   UNL     1      -2.589  11.171  16.574  0.00  0.00    +0.000 C 
ATOM     25  C   UNL     1      -1.749  12.002  17.521  0.00  0.00    +0.000 C 
ENDBRANCH   1  25
BRANCH   1  26
ATOM     26  O   UNL     1      -2.163  10.325  19.169  0.00  0.00    +0.000 OA
ATOM     27  H   UNL     1      -1.825   9.453  18.887  0.00  0.00    +0.000 HD
ENDBRANCH   1  26
BRANCH  23  28
ATOM     28  C   UNL     1       3.671   4.570  19.996  0.00  0.00    +0.000 C 
ATOM     29  N   UNL     1       2.649   3.799  20.170  0.00  0.00    +0.000 NA
BRANCH  29  30
ATOM     30  O   UNL     1       2.852   2.979  21.297  0.00  0.00    +0.000 OA
BRANCH  30  31
ATOM     31  C   UNL     1       3.079   1.642  20.837  0.00  0.00    +0.000 C 
BRANCH  31  32
ATOM     32  C   UNL     1       4.219   1.636  19.815  0.00  0.00    +0.000 C 
BRANCH  32  33
ATOM     33  N   UNL     1       3.788   1.178  18.492  0.00  0.00    +0.000 NA
ATOM     34  H   UNL     1       3.838   0.162  18.442  0.00  0.00    +0.000 HD
ATOM     35  H   UNL     1       4.435   1.531  17.786  0.00  0.00    +0.000 HD
ENDBRANCH  32  33
ENDBRANCH  31  32
ENDBRANCH  30  31
ENDBRANCH  29  30
ENDBRANCH  23  28
TORSDOF 7
ENDMDL
