MODEL 1
REMARK VINA RESULT:      -6.3      0.000      0.000
REMARK  Name = 
REMARK  4 active torsions:
REMARK  status: ('A' for Active; 'I' for Inactive)
REMARK    1  A    between atoms: C_2  and  C_3
REMARK    2  A    between atoms: C_4  and  C_5
REMARK    3  A    between atoms: C_13  and  O_14
REMARK    4  A    between atoms: C_15  and  O_16
REMARK                            x       y       z     vdW  Elec       q    Type
REMARK                         _______ _______ _______ _____ _____    ______ ____
ROOT
ATOM      1  O   UNL     1       2.896   7.385  18.792  0.00  0.00    +0.000 OA
ATOM      2  C   UNL     1       2.302   6.764  19.670  0.00  0.00    +0.000 C 
ATOM      3  N   UNL     1       2.427   5.399  19.857  0.00  0.00    +0.000 N 
ATOM      4  C   UNL     1       1.675   4.605  20.835  0.00  0.00    +0.000 C 
ATOM      5  C   UNL     1       1.036   3.394  20.170  0.00  0.00    +0.000 C 
ATOM      6  C   UNL     1       2.078   2.577  19.410  0.00  0.00    +0.000 C 
ATOM      7  C   UNL     1       2.835   3.446  18.394  0.00  0.00    +0.000 C 
ATOM      8  C   UNL     1       3.444   4.669  19.086  0.00  0.00    +0.000 C 
ENDROOT
BRANCH   2   9
ATOM      9  C   UNL     1       1.426   7.493  20.606  0.00  0.00    +0.000 C 
ATOM     10  C   UNL     1       1.053   8.755  20.347  0.00  0.00    +0.000 C 
BRANCH  10  11
ATOM     11  C   UNL     1       0.335   9.593  21.266  0.00  0.00    +0.000 A 
ATOM     12  C   UNL     1      -0.168   9.202  22.545  0.00  0.00    +0.000 A 
ATOM     13  C   UNL     1      -0.762  10.246  23.219  0.00  0.00    +0.000 A 
ATOM     14  S   UNL     1      -0.730  11.693  22.314  0.00  0.00    +0.000 S 
ATOM     15  C   UNL     1       0.093  10.927  21.018  0.00  0.00    +0.000 A 
ENDBRANCH  10  11
ENDBRANCH   2   9
BRANCH   6  16
ATOM     16  O   UNL     1       1.418   1.507  18.733  0.00  0.00    +0.000 OA
ATOM     17  H   UNL     1       2.130   0.984  18.310  0.00  0.00    +0.000 HD
ENDBRANCH   6  16
BRANCH   7  18
ATOM     18  O   UNL     1       1.914   3.844  17.362  0.00  0.00    +0.000 OA
ATOM     19  H   UNL     1       1.020   3.838  17.756  0.00  0.00    +0.000 HD
ENDBRANCH   7  18
TORSDOF 4
ENDMDL
MODEL 2
REMARK VINA RESULT:      -6.3      5.281      7.721
REMARK  Name = 
REMARK  4 active torsions:
REMARK  status: ('A' for Active; 'I' for Inactive)
REMARK    1  A    between atoms: C_2  and  C_3
REMARK    2  A    between atoms: C_4  and  C_5
REMARK    3  A    between atoms: C_13  and  O_14
REMARK    4  A    between atoms: C_15  and  O_16
REMARK                            x       y       z     vdW  Elec       q    Type
REMARK                         _______ _______ _______ _____ _____    ______ ____
ROOT
ATOM      1  O   UNL     1       6.049   4.349  18.861  0.00  0.00    +0.000 OA
ATOM      2  C   UNL     1       5.095   4.219  18.096  0.00  0.00    +0.000 C 
ATOM      3  N   UNL     1       3.782   4.441  18.469  0.00  0.00    +0.000 N 
ATOM      4  C   UNL     1       2.610   4.218  17.616  0.00  0.00    +0.000 C 
ATOM      5  C   UNL     1       1.569   3.374  18.339  0.00  0.00    +0.000 C 
ATOM      6  C   UNL     1       1.217   3.986  19.693  0.00  0.00    +0.000 C 
ATOM      7  C   UNL     1       2.472   4.195  20.553  0.00  0.00    +0.000 C 
ATOM      8  C   UNL     1       3.510   5.024  19.791  0.00  0.00    +0.000 C 
ENDROOT
BRANCH   2   9
ATOM      9  C   UNL     1       5.341   3.837  16.693  0.00  0.00    +0.000 C 
ATOM     10  C   UNL     1       6.196   4.539  15.935  0.00  0.00    +0.000 C 
BRANCH  10  11
ATOM     11  C   UNL     1       6.381   4.339  14.525  0.00  0.00    +0.000 A 
ATOM     12  C   UNL     1       5.559   3.541  13.673  0.00  0.00    +0.000 A 
ATOM     13  C   UNL     1       5.958   3.592  12.355  0.00  0.00    +0.000 A 
ATOM     14  S   UNL     1       7.329   4.587  12.142  0.00  0.00    +0.000 S 
ATOM     15  C   UNL     1       7.385   4.962  13.814  0.00  0.00    +0.000 A 
ENDBRANCH  10  11
ENDBRANCH   2   9
BRANCH   6  16
ATOM     16  O   UNL     1       0.309   3.115  20.367  0.00  0.00    +0.000 OA
ATOM     17  H   UNL     1       0.736   2.900  21.222  0.00  0.00    +0.000 HD
ENDBRANCH   6  16
BRANCH   7  18
ATOM     18  O   UNL     1       3.001   2.904  20.905  0.00  0.00    +0.000 OA
ATOM     19  H   UNL     1       2.881   2.797  21.869  0.00  0.00    +0.000 HD
ENDBRANCH   7  18
TORSDOF 4
ENDMDL
MODEL 3
REMARK VINA RESULT:      -6.2      5.758      6.763
REMARK  Name = 
REMARK  4 active torsions:
REMARK  status: ('A' for Active; 'I' for Inactive)
REMARK    1  A    between atoms: C_2  and  C_3
REMARK    2  A    between atoms: C_4  and  C_5
REMARK    3  A    between atoms: C_13  and  O_14
REMARK    4  A    between atoms: C_15  and  O_16
REMARK                            x       y       z     vdW  Elec       q    Type
REMARK                         _______ _______ _______ _____ _____    ______ ____
ROOT
ATOM      1  O   UNL     1       7.703   6.664  16.091  0.00  0.00    +0.000 OA
ATOM      2  C   UNL     1       7.455   6.632  17.295  0.00  0.00    +0.000 C 
ATOM      3  N   UNL     1       6.786   5.589  17.908  0.00  0.00    +0.000 N 
ATOM      4  C   UNL     1       6.395   5.548  19.322  0.00  0.00    +0.000 C 
ATOM      5  C   UNL     1       4.922   5.188  19.464  0.00  0.00    +0.000 C 
ATOM      6  C   UNL     1       4.603   3.895  18.716  0.00  0.00    +0.000 C 
ATOM      7  C   UNL     1       5.022   3.986  17.241  0.00  0.00    +0.000 C 
ATOM      8  C   UNL     1       6.499   4.376  17.129  0.00  0.00    +0.000 C 
ENDROOT
BRANCH   2   9
ATOM      9  C   UNL     1       7.911   7.739  18.156  0.00  0.00    +0.000 C 
ATOM     10  C   UNL     1       8.065   8.973  17.656  0.00  0.00    +0.000 C 
BRANCH  10  11
ATOM     11  C   UNL     1       8.648  10.072  18.374  0.00  0.00    +0.000 A 
ATOM     12  C   UNL     1       9.339   9.990  19.622  0.00  0.00    +0.000 A 
ATOM     13  C   UNL     1       9.835  11.209  20.030  0.00  0.00    +0.000 A 
ATOM     14  S   UNL     1       9.461  12.455  18.924  0.00  0.00    +0.000 S 
ATOM     15  C   UNL     1       8.642  11.362  17.886  0.00  0.00    +0.000 A 
ENDBRANCH  10  11
ENDBRANCH   2   9
BRANCH   6  16
ATOM     16  O   UNL     1       3.199   3.649  18.805  0.00  0.00    +0.000 OA
ATOM     17  H   UNL     1       2.861   4.292  19.462  0.00  0.00    +0.000 HD
ENDBRANCH   6  16
BRANCH   7  18
ATOM     18  O   UNL     1       4.183   4.957  16.590  0.00  0.00    +0.000 OA
ATOM     19  H   UNL     1       3.576   4.465  16.004  0.00  0.00    +0.000 HD
ENDBRANCH   7  18
TORSDOF 4
ENDMDL
MODEL 4
REMARK VINA RESULT:      -6.2      0.558      1.018
REMARK  Name = 
REMARK  4 active torsions:
REMARK  status: ('A' for Active; 'I' for Inactive)
REMARK    1  A    between atoms: C_2  and  C_3
REMARK    2  A    between atoms: C_4  and  C_5
REMARK    3  A    between atoms: C_13  and  O_14
REMARK    4  A    between atoms: C_15  and  O_16
REMARK                            x       y       z     vdW  Elec       q    Type
REMARK                         _______ _______ _______ _____ _____    ______ ____
ROOT
ATOM      1  O   UNL     1       2.956   7.407  18.498  0.00  0.00    +0.000 OA
ATOM      2  C   UNL     1       2.422   6.841  19.450  0.00  0.00    +0.000 C 
ATOM      3  N   UNL     1       2.508   5.478  19.673  0.00  0.00    +0.000 N 
ATOM      4  C   UNL     1       1.819   4.750  20.744  0.00  0.00    +0.000 C 
ATOM      5  C   UNL     1       1.070   3.548  20.185  0.00  0.00    +0.000 C 
ATOM      6  C   UNL     1       2.001   2.662  19.360  0.00  0.00    +0.000 C 
ATOM      7  C   UNL     1       2.694   3.463  18.248  0.00  0.00    +0.000 C 
ATOM      8  C   UNL     1       3.416   4.679  18.836  0.00  0.00    +0.000 C 
ENDROOT
BRANCH   2   9
ATOM      9  C   UNL     1       1.670   7.638  20.436  0.00  0.00    +0.000 C 
ATOM     10  C   UNL     1       1.098   8.798  20.082  0.00  0.00    +0.000 C 
BRANCH  10  11
ATOM     11  C   UNL     1       0.482   9.712  21.002  0.00  0.00    +0.000 A 
ATOM     12  C   UNL     1       0.424  11.133  20.865  0.00  0.00    +0.000 A 
ATOM     13  C   UNL     1      -0.286  11.733  21.882  0.00  0.00    +0.000 A 
ATOM     14  S   UNL     1      -0.874  10.593  23.009  0.00  0.00    +0.000 S 
ATOM     15  C   UNL     1      -0.187   9.289  22.131  0.00  0.00    +0.000 A 
ENDBRANCH  10  11
ENDBRANCH   2   9
BRANCH   6  16
ATOM     16  O   UNL     1       1.236   1.602  18.787  0.00  0.00    +0.000 OA
ATOM     17  H   UNL     1       1.514   0.790  19.260  0.00  0.00    +0.000 HD
ENDBRANCH   6  16
BRANCH   7  18
ATOM     18  O   UNL     1       1.697   3.869  17.293  0.00  0.00    +0.000 OA
ATOM     19  H   UNL     1       2.050   3.666  16.405  0.00  0.00    +0.000 HD
ENDBRANCH   7  18
TORSDOF 4
ENDMDL
MODEL 5
REMARK VINA RESULT:      -6.2      2.168      2.408
REMARK  Name = 
REMARK  4 active torsions:
REMARK  status: ('A' for Active; 'I' for Inactive)
REMARK    1  A    between atoms: C_2  and  C_3
REMARK    2  A    between atoms: C_4  and  C_5
REMARK    3  A    between atoms: C_13  and  O_14
REMARK    4  A    between atoms: C_15  and  O_16
REMARK                            x       y       z     vdW  Elec       q    Type
REMARK                         _______ _______ _______ _____ _____    ______ ____
ROOT
ATOM      1  O   UNL     1       3.979   6.706  17.151  0.00  0.00    +0.000 OA
ATOM      2  C   UNL     1       3.203   6.537  18.089  0.00  0.00    +0.000 C 
ATOM      3  N   UNL     1       3.033   5.324  18.731  0.00  0.00    +0.000 N 
ATOM      4  C   UNL     1       2.061   5.057  19.796  0.00  0.00    +0.000 C 
ATOM      5  C   UNL     1       1.244   3.811  19.481  0.00  0.00    +0.000 C 
ATOM      6  C   UNL     1       2.157   2.621  19.192  0.00  0.00    +0.000 C 
ATOM      7  C   UNL     1       3.153   2.943  18.067  0.00  0.00    +0.000 C 
ATOM      8  C   UNL     1       3.940   4.215  18.398  0.00  0.00    +0.000 C 
ENDROOT
BRANCH   2   9
ATOM      9  C   UNL     1       2.422   7.681  18.595  0.00  0.00    +0.000 C 
ATOM     10  C   UNL     1       2.154   8.728  17.801  0.00  0.00    +0.000 C 
BRANCH  10  11
ATOM     11  C   UNL     1       1.539   9.947  18.247  0.00  0.00    +0.000 A 
ATOM     12  C   UNL     1       0.266  10.063  18.885  0.00  0.00    +0.000 A 
ATOM     13  C   UNL     1      -0.026  11.359  19.248  0.00  0.00    +0.000 A 
ATOM     14  S   UNL     1       1.221  12.441  18.813  0.00  0.00    +0.000 S 
ATOM     15  C   UNL     1       2.163  11.172  18.145  0.00  0.00    +0.000 A 
ENDBRANCH  10  11
ENDBRANCH   2   9
BRANCH   6  16
ATOM     16  O   UNL     1       1.350   1.505  18.817  0.00  0.00    +0.000 OA
ATOM     17  H   UNL     1       1.846   0.712  19.109  0.00  0.00    +0.000 HD
ENDBRANCH   6  16
BRANCH   7  18
ATOM     18  O   UNL     1       2.417   3.098  16.841  0.00  0.00    +0.000 OA
ATOM     19  H   UNL     1       2.935   3.697  16.269  0.00  0.00    +0.000 HD
ENDBRANCH   7  18
TORSDOF 4
ENDMDL
MODEL 6
REMARK VINA RESULT:      -6.2      2.041      2.750
REMARK  Name = 
REMARK  4 active torsions:
REMARK  status: ('A' for Active; 'I' for Inactive)
REMARK    1  A    between atoms: C_2  and  C_3
REMARK    2  A    between atoms: C_4  and  C_5
REMARK    3  A    between atoms: C_13  and  O_14
REMARK    4  A    between atoms: C_15  and  O_16
REMARK                            x       y       z     vdW  Elec       q    Type
REMARK                         _______ _______ _______ _____ _____    ______ ____
ROOT
ATOM      1  O   UNL     1       2.175   4.705  21.211  0.00  0.00    +0.000 OA
ATOM      2  C   UNL     1       2.333   5.395  20.206  0.00  0.00    +0.000 C 
ATOM      3  N   UNL     1       2.754   4.886  18.990  0.00  0.00    +0.000 N 
ATOM      4  C   UNL     1       3.036   5.682  17.791  0.00  0.00    +0.000 C 
ATOM      5  C   UNL     1       4.403   5.329  17.219  0.00  0.00    +0.000 C 
ATOM      6  C   UNL     1       4.522   3.825  16.981  0.00  0.00    +0.000 C 
ATOM      7  C   UNL     1       4.225   3.034  18.264  0.00  0.00    +0.000 C 
ATOM      8  C   UNL     1       2.857   3.428  18.830  0.00  0.00    +0.000 C 
ENDROOT
BRANCH   2   9
ATOM      9  C   UNL     1       2.038   6.838  20.265  0.00  0.00    +0.000 C 
ATOM     10  C   UNL     1       1.176   7.321  21.172  0.00  0.00    +0.000 C 
BRANCH  10  11
ATOM     11  C   UNL     1       0.711   8.679  21.206  0.00  0.00    +0.000 A 
ATOM     12  C   UNL     1       0.073   9.323  22.310  0.00  0.00    +0.000 A 
ATOM     13  C   UNL     1      -0.205  10.649  22.058  0.00  0.00    +0.000 A 
ATOM     14  S   UNL     1       0.287  11.119  20.492  0.00  0.00    +0.000 S 
ATOM     15  C   UNL     1       0.885   9.548  20.150  0.00  0.00    +0.000 A 
ENDBRANCH  10  11
ENDBRANCH   2   9
BRANCH   6  16
ATOM     16  O   UNL     1       5.845   3.536  16.531  0.00  0.00    +0.000 OA
ATOM     17  H   UNL     1       6.425   3.685  17.307  0.00  0.00    +0.000 HD
ENDBRANCH   6  16
BRANCH   7  18
ATOM     18  O   UNL     1       5.272   3.299  19.214  0.00  0.00    +0.000 OA
ATOM     19  H   UNL     1       5.620   2.435  19.507  0.00  0.00    +0.000 HD
ENDBRANCH   7  18
TORSDOF 4
ENDMDL
MODEL 7
REMARK VINA RESULT:      -6.0      3.348      4.326
REMARK  Name = 
REMARK  4 active torsions:
REMARK  status: ('A' for Active; 'I' for Inactive)
REMARK    1  A    between atoms: C_2  and  C_3
REMARK    2  A    between atoms: C_4  and  C_5
REMARK    3  A    between atoms: C_13  and  O_14
REMARK    4  A    between atoms: C_15  and  O_16
REMARK                            x       y       z     vdW  Elec       q    Type
REMARK                         _______ _______ _______ _____ _____    ______ ____
ROOT
ATOM      1  O   UNL     1       2.301   5.480  17.934  0.00  0.00    +0.000 OA
ATOM      2  C   UNL     1       3.226   6.258  17.713  0.00  0.00    +0.000 C 
ATOM      3  N   UNL     1       4.438   5.868  17.172  0.00  0.00    +0.000 N 
ATOM      4  C   UNL     1       5.597   6.744  16.969  0.00  0.00    +0.000 C 
ATOM      5  C   UNL     1       6.855   6.121  17.559  0.00  0.00    +0.000 C 
ATOM      6  C   UNL     1       7.069   4.710  17.016  0.00  0.00    +0.000 C 
ATOM      7  C   UNL     1       5.835   3.827  17.257  0.00  0.00    +0.000 C 
ATOM      8  C   UNL     1       4.582   4.491  16.677  0.00  0.00    +0.000 C 
ENDROOT
BRANCH   2   9
ATOM      9  C   UNL     1       3.049   7.693  18.001  0.00  0.00    +0.000 C 
ATOM     10  C   UNL     1       1.849   8.173  18.360  0.00  0.00    +0.000 C 
BRANCH  10  11
ATOM     11  C   UNL     1       1.546   9.569  18.510  0.00  0.00    +0.000 A 
ATOM     12  C   UNL     1       0.415  10.116  19.189  0.00  0.00    +0.000 A 
ATOM     13  C   UNL     1       0.431  11.494  19.214  0.00  0.00    +0.000 A 
ATOM     14  S   UNL     1       1.796  12.132  18.410  0.00  0.00    +0.000 S 
ATOM     15  C   UNL     1       2.377  10.562  18.037  0.00  0.00    +0.000 A 
ENDBRANCH  10  11
ENDBRANCH   2   9
BRANCH   6  16
ATOM     16  O   UNL     1       8.205   4.138  17.664  0.00  0.00    +0.000 OA
ATOM     17  H   UNL     1       8.489   4.800  18.329  0.00  0.00    +0.000 HD
ENDBRANCH   6  16
BRANCH   7  18
ATOM     18  O   UNL     1       5.697   3.616  18.673  0.00  0.00    +0.000 OA
ATOM     19  H   UNL     1       6.263   2.855  18.907  0.00  0.00    +0.000 HD
ENDBRANCH   7  18
TORSDOF 4
ENDMDL
MODEL 8
REMARK VINA RESULT:      -6.0      2.698      3.619
REMARK  Name = 
REMARK  4 active torsions:
REMARK  status: ('A' for Active; 'I' for Inactive)
REMARK    1  A    between atoms: C_2  and  C_3
REMARK    2  A    between atoms: C_4  and  C_5
REMARK    3  A    between atoms: C_13  and  O_14
REMARK    4  A    between atoms: C_15  and  O_16
REMARK                            x       y       z     vdW  Elec       q    Type
REMARK                         _______ _______ _______ _____ _____    ______ ____
ROOT
ATOM      1  O   UNL     1       2.648   4.828  19.848  0.00  0.00    +0.000 OA
ATOM      2  C   UNL     1       2.977   5.783  19.148  0.00  0.00    +0.000 C 
ATOM      3  N   UNL     1       3.761   5.664  18.014  0.00  0.00    +0.000 N 
ATOM      4  C   UNL     1       4.246   6.783  17.199  0.00  0.00    +0.000 C 
ATOM      5  C   UNL     1       5.747   6.672  16.970  0.00  0.00    +0.000 C 
ATOM      6  C   UNL     1       6.110   5.307  16.391  0.00  0.00    +0.000 C 
ATOM      7  C   UNL     1       5.589   4.168  17.280  0.00  0.00    +0.000 C 
ATOM      8  C   UNL     1       4.083   4.320  17.515  0.00  0.00    +0.000 C 
ENDROOT
BRANCH   2   9
ATOM      9  C   UNL     1       2.499   7.134  19.497  0.00  0.00    +0.000 C 
ATOM     10  C   UNL     1       1.704   7.322  20.561  0.00  0.00    +0.000 C 
BRANCH  10  11
ATOM     11  C   UNL     1       1.068   8.567  20.887  0.00  0.00    +0.000 A 
ATOM     12  C   UNL     1       0.625   8.972  22.184  0.00  0.00    +0.000 A 
ATOM     13  C   UNL     1       0.105  10.247  22.189  0.00  0.00    +0.000 A 
ATOM     14  S   UNL     1       0.134  10.956  20.635  0.00  0.00    +0.000 S 
ATOM     15  C   UNL     1       0.856   9.558  19.952  0.00  0.00    +0.000 A 
ENDBRANCH  10  11
ENDBRANCH   2   9
BRANCH   6  16
ATOM     16  O   UNL     1       7.531   5.220  16.279  0.00  0.00    +0.000 OA
ATOM     17  H   UNL     1       7.702   4.853  15.386  0.00  0.00    +0.000 HD
ENDBRANCH   6  16
BRANCH   7  18
ATOM     18  O   UNL     1       6.310   4.198  18.525  0.00  0.00    +0.000 OA
ATOM     19  H   UNL     1       6.694   3.310  18.656  0.00  0.00    +0.000 HD
ENDBRANCH   7  18
TORSDOF 4
ENDMDL
MODEL 9
REMARK VINA RESULT:      -6.0      2.320      2.411
REMARK  Name = 
REMARK  4 active torsions:
REMARK  status: ('A' for Active; 'I' for Inactive)
REMARK    1  A    between atoms: C_2  and  C_3
REMARK    2  A    between atoms: C_4  and  C_5
REMARK    3  A    between atoms: C_13  and  O_14
REMARK    4  A    between atoms: C_15  and  O_16
REMARK                            x       y       z     vdW  Elec       q    Type
REMARK                         _______ _______ _______ _____ _____    ______ ____
ROOT
ATOM      1  O   UNL     1       3.896   6.979  17.297  0.00  0.00    +0.000 OA
ATOM      2  C   UNL     1       3.107   6.770  18.216  0.00  0.00    +0.000 C 
ATOM      3  N   UNL     1       2.962   5.541  18.834  0.00  0.00    +0.000 N 
ATOM      4  C   UNL     1       1.977   5.226  19.874  0.00  0.00    +0.000 C 
ATOM      5  C   UNL     1       1.207   3.961  19.522  0.00  0.00    +0.000 C 
ATOM      6  C   UNL     1       2.162   2.805  19.232  0.00  0.00    +0.000 C 
ATOM      7  C   UNL     1       3.169   3.177  18.134  0.00  0.00    +0.000 C 
ATOM      8  C   UNL     1       3.909   4.466  18.502  0.00  0.00    +0.000 C 
ENDROOT
BRANCH   2   9
ATOM      9  C   UNL     1       2.281   7.880  18.725  0.00  0.00    +0.000 C 
ATOM     10  C   UNL     1       1.741   8.772  17.881  0.00  0.00    +0.000 C 
BRANCH  10  11
ATOM     11  C   UNL     1       1.056   9.965  18.291  0.00  0.00    +0.000 A 
ATOM     12  C   UNL     1       1.668  11.175  18.740  0.00  0.00    +0.000 A 
ATOM     13  C   UNL     1       0.747  12.164  19.007  0.00  0.00    +0.000 A 
ATOM     14  S   UNL     1      -0.854  11.639  18.732  0.00  0.00    +0.000 S 
ATOM     15  C   UNL     1      -0.317  10.085  18.242  0.00  0.00    +0.000 A 
ENDBRANCH  10  11
ENDBRANCH   2   9
BRANCH   6  16
ATOM     16  O   UNL     1       1.397   1.672  18.822  0.00  0.00    +0.000 OA
ATOM     17  H   UNL     1       1.243   1.792  17.862  0.00  0.00    +0.000 HD
ENDBRANCH   6  16
BRANCH   7  18
ATOM     18  O   UNL     1       2.454   3.330  16.895  0.00  0.00    +0.000 OA
ATOM     19  H   UNL     1       1.717   3.950  17.063  0.00  0.00    +0.000 HD
ENDBRANCH   7  18
TORSDOF 4
ENDMDL
