MODEL 1
REMARK VINA RESULT:      -9.5      0.000      0.000
REMARK  Name = 
REMARK  13 active torsions:
REMARK  status: ('A' for Active; 'I' for Inactive)
REMARK    1  A    between atoms: C_1  and  C_2
REMARK    2  A    between atoms: C_5  and  C_6
REMARK    3  A    between atoms: N_8  and  C_9
REMARK    4  A    between atoms: C_13  and  C_14
REMARK    5  A    between atoms: C_14  and  C_15
REMARK    6  A    between atoms: C_14  and  C_16
REMARK    7  A    between atoms: C_14  and  C_17
REMARK    8  A    between atoms: C_20  and  N_21
REMARK    9  A    between atoms: N_21  and  C_22
REMARK   10  A    between atoms: N_30  and  C_31
REMARK   11  A    between atoms: C_31  and  C_32
REMARK   12  A    between atoms: C_32  and  C_33
REMARK   13  A    between atoms: C_32  and  C_34
REMARK                            x       y       z     vdW  Elec       q    Type
REMARK                         _______ _______ _______ _____ _____    ______ ____
ROOT
ATOM      1  C   UNL     1       2.495   7.765  17.652  0.00  0.00    +0.000 C 
ATOM      2  C   UNL     1       1.869   8.380  18.872  0.00  0.00    +0.000 A 
ATOM      3  C   UNL     1       1.243   9.628  18.708  0.00  0.00    +0.000 A 
ATOM      4  C   UNL     1       0.649  10.266  19.786  0.00  0.00    +0.000 A 
ATOM      5  C   UNL     1       0.633   9.679  21.055  0.00  0.00    +0.000 A 
ATOM      6  C   UNL     1       1.252   8.436  21.224  0.00  0.00    +0.000 A 
ATOM      7  C   UNL     1       1.921   7.795  20.159  0.00  0.00    +0.000 A 
ENDROOT
BRANCH   5   8
ATOM      8  C   UNL     1      -0.070  10.439  22.135  0.00  0.00    +0.000 C 
ATOM      9  O   UNL     1       0.109  10.031  23.284  0.00  0.00    +0.000 OA
ATOM     10  N   UNL     1      -0.899  11.500  21.790  0.00  0.00    +0.000 N 
ATOM     11  H   UNL     1      -1.120  11.646  20.821  0.00  0.00    +0.000 HD
BRANCH  10  12
ATOM     12  C   UNL     1      -1.625  12.287  22.733  0.00  0.00    +0.000 A 
ATOM     13  C   UNL     1      -2.843  11.876  23.271  0.00  0.00    +0.000 A 
ATOM     14  C   UNL     1      -3.565  12.700  24.125  0.00  0.00    +0.000 A 
ATOM     15  C   UNL     1      -3.067  13.951  24.471  0.00  0.00    +0.000 A 
ATOM     16  C   UNL     1      -1.828  14.403  23.987  0.00  0.00    +0.000 A 
ATOM     17  C   UNL     1      -1.105  13.536  23.127  0.00  0.00    +0.000 A 
BRANCH  16  18
ATOM     18  C   UNL     1      -1.289  15.800  24.359  0.00  0.00    +0.000 C 
ATOM     19  C   UNL     1      -0.871  15.919  25.845  0.00  0.00    +0.000 C 
ATOM     20  C   UNL     1      -0.048  16.128  23.507  0.00  0.00    +0.000 C 
ATOM     21  C   UNL     1      -2.368  16.873  24.111  0.00  0.00    +0.000 C 
ENDBRANCH  16  18
ENDBRANCH  10  12
ENDBRANCH   5   8
BRANCH   7  22
ATOM     22  N   UNL     1       2.636   6.590  20.381  0.00  0.00    +0.000 N 
ATOM     23  H   UNL     1       3.231   6.589  21.205  0.00  0.00    +0.000 HD
BRANCH  22  24
ATOM     24  C   UNL     1       2.192   5.256  20.119  0.00  0.00    +0.000 A 
ATOM     25  N   UNL     1       0.977   4.865  20.582  0.00  0.00    +0.000 NA
ATOM     26  C   UNL     1       0.580   3.630  20.275  0.00  0.00    +0.000 A 
ATOM     27  N   UNL     1       1.257   2.760  19.537  0.00  0.00    +0.000 NA
ATOM     28  C   UNL     1       2.455   3.181  19.090  0.00  0.00    +0.000 A 
ATOM     29  C   UNL     1       3.253   2.379  18.305  0.00  0.00    +0.000 A 
ATOM     30  N   UNL     1       4.458   2.727  17.797  0.00  0.00    +0.000 NA
ATOM     31  C   UNL     1       4.919   3.932  18.132  0.00  0.00    +0.000 A 
ATOM     32  N   UNL     1       6.133   4.294  17.605  0.00  0.00    +0.000 N 
ATOM     33  N   UNL     1       4.246   4.793  18.911  0.00  0.00    +0.000 NA
ATOM     34  C   UNL     1       3.017   4.423  19.350  0.00  0.00    +0.000 A 
ATOM     35  H   UNL     1       6.548   3.577  17.027  0.00  0.00    +0.000 HD
BRANCH  32  36
ATOM     36  C   UNL     1       6.963   5.211  18.355  0.00  0.00    +0.000 C 
BRANCH  36  37
ATOM     37  C   UNL     1       7.329   6.447  17.515  0.00  0.00    +0.000 C 
ATOM     38  C   UNL     1       6.084   7.136  16.953  0.00  0.00    +0.000 C 
ATOM     39  C   UNL     1       8.126   7.432  18.374  0.00  0.00    +0.000 C 
ENDBRANCH  36  37
ENDBRANCH  32  36
ENDBRANCH  22  24
ENDBRANCH   7  22
TORSDOF 7
ENDMDL
MODEL 2
REMARK VINA RESULT:      -9.4      0.826      1.251
REMARK  Name = 
REMARK  13 active torsions:
REMARK  status: ('A' for Active; 'I' for Inactive)
REMARK    1  A    between atoms: C_1  and  C_2
REMARK    2  A    between atoms: C_5  and  C_6
REMARK    3  A    between atoms: N_8  and  C_9
REMARK    4  A    between atoms: C_13  and  C_14
REMARK    5  A    between atoms: C_14  and  C_15
REMARK    6  A    between atoms: C_14  and  C_16
REMARK    7  A    between atoms: C_14  and  C_17
REMARK    8  A    between atoms: C_20  and  N_21
REMARK    9  A    between atoms: N_21  and  C_22
REMARK   10  A    between atoms: N_30  and  C_31
REMARK   11  A    between atoms: C_31  and  C_32
REMARK   12  A    between atoms: C_32  and  C_33
REMARK   13  A    between atoms: C_32  and  C_34
REMARK                            x       y       z     vdW  Elec       q    Type
REMARK                         _______ _______ _______ _____ _____    ______ ____
ROOT
ATOM      1  C   UNL     1       2.149   8.430  17.600  0.00  0.00    +0.000 C 
ATOM      2  C   UNL     1       1.534   8.960  18.864  0.00  0.00    +0.000 A 
ATOM      3  C   UNL     1       0.801  10.155  18.766  0.00  0.00    +0.000 A 
ATOM      4  C   UNL     1       0.210  10.714  19.888  0.00  0.00    +0.000 A 
ATOM      5  C   UNL     1       0.303  10.096  21.140  0.00  0.00    +0.000 A 
ATOM      6  C   UNL     1       1.031   8.905  21.244  0.00  0.00    +0.000 A 
ATOM      7  C   UNL     1       1.697   8.349  20.130  0.00  0.00    +0.000 A 
ENDROOT
BRANCH   5   8
ATOM      8  C   UNL     1      -0.406  10.769  22.272  0.00  0.00    +0.000 C 
ATOM      9  O   UNL     1      -0.316  10.213  23.368  0.00  0.00    +0.000 OA
ATOM     10  N   UNL     1      -1.144  11.920  22.024  0.00  0.00    +0.000 N 
ATOM     11  H   UNL     1      -1.303  12.196  21.072  0.00  0.00    +0.000 HD
BRANCH  10  12
ATOM     12  C   UNL     1      -1.867  12.636  23.024  0.00  0.00    +0.000 A 
ATOM     13  C   UNL     1      -3.098  12.202  23.513  0.00  0.00    +0.000 A 
ATOM     14  C   UNL     1      -3.816  12.963  24.428  0.00  0.00    +0.000 A 
ATOM     15  C   UNL     1      -3.302  14.171  24.883  0.00  0.00    +0.000 A 
ATOM     16  C   UNL     1      -2.050  14.642  24.451  0.00  0.00    +0.000 A 
ATOM     17  C   UNL     1      -1.332  13.838  23.527  0.00  0.00    +0.000 A 
BRANCH  16  18
ATOM     18  C   UNL     1      -1.492  15.993  24.945  0.00  0.00    +0.000 C 
ATOM     19  C   UNL     1      -0.332  16.531  24.072  0.00  0.00    +0.000 C 
ATOM     20  C   UNL     1      -2.606  17.057  24.933  0.00  0.00    +0.000 C 
ATOM     21  C   UNL     1      -0.944  15.852  26.379  0.00  0.00    +0.000 C 
ENDBRANCH  16  18
ENDBRANCH  10  12
ENDBRANCH   5   8
BRANCH   7  22
ATOM     22  N   UNL     1       2.518   7.203  20.284  0.00  0.00    +0.000 N 
ATOM     23  H   UNL     1       3.167   7.241  21.066  0.00  0.00    +0.000 HD
BRANCH  22  24
ATOM     24  C   UNL     1       2.164   5.841  20.031  0.00  0.00    +0.000 A 
ATOM     25  N   UNL     1       1.203   5.259  20.794  0.00  0.00    +0.000 NA
ATOM     26  C   UNL     1       0.868   4.004  20.495  0.00  0.00    +0.000 A 
ATOM     27  N   UNL     1       1.374   3.283  19.503  0.00  0.00    +0.000 NA
ATOM     28  C   UNL     1       2.320   3.891  18.763  0.00  0.00    +0.000 A 
ATOM     29  C   UNL     1       2.918   3.257  17.696  0.00  0.00    +0.000 A 
ATOM     30  N   UNL     1       3.859   3.798  16.890  0.00  0.00    +0.000 NA
ATOM     31  C   UNL     1       4.267   5.031  17.193  0.00  0.00    +0.000 A 
ATOM     32  N   UNL     1       5.210   5.587  16.366  0.00  0.00    +0.000 N 
ATOM     33  N   UNL     1       3.779   5.740  18.222  0.00  0.00    +0.000 NA
ATOM     34  C   UNL     1       2.796   5.178  18.969  0.00  0.00    +0.000 A 
ATOM     35  H   UNL     1       5.502   4.971  15.619  0.00  0.00    +0.000 HD
BRANCH  32  36
ATOM     36  C   UNL     1       6.127   6.558  16.923  0.00  0.00    +0.000 C 
BRANCH  36  37
ATOM     37  C   UNL     1       6.984   5.940  18.041  0.00  0.00    +0.000 C 
ATOM     38  C   UNL     1       7.661   4.647  17.583  0.00  0.00    +0.000 C 
ATOM     39  C   UNL     1       8.043   6.951  18.491  0.00  0.00    +0.000 C 
ENDBRANCH  36  37
ENDBRANCH  32  36
ENDBRANCH  22  24
ENDBRANCH   7  22
TORSDOF 7
ENDMDL
MODEL 3
REMARK VINA RESULT:      -9.4      1.459      2.393
REMARK  Name = 
REMARK  13 active torsions:
REMARK  status: ('A' for Active; 'I' for Inactive)
REMARK    1  A    between atoms: C_1  and  C_2
REMARK    2  A    between atoms: C_5  and  C_6
REMARK    3  A    between atoms: N_8  and  C_9
REMARK    4  A    between atoms: C_13  and  C_14
REMARK    5  A    between atoms: C_14  and  C_15
REMARK    6  A    between atoms: C_14  and  C_16
REMARK    7  A    between atoms: C_14  and  C_17
REMARK    8  A    between atoms: C_20  and  N_21
REMARK    9  A    between atoms: N_21  and  C_22
REMARK   10  A    between atoms: N_30  and  C_31
REMARK   11  A    between atoms: C_31  and  C_32
REMARK   12  A    between atoms: C_32  and  C_33
REMARK   13  A    between atoms: C_32  and  C_34
REMARK                            x       y       z     vdW  Elec       q    Type
REMARK                         _______ _______ _______ _____ _____    ______ ____
ROOT
ATOM      1  C   UNL     1       3.261   7.347  17.404  0.00  0.00    +0.000 C 
ATOM      2  C   UNL     1       2.411   8.001  18.457  0.00  0.00    +0.000 A 
ATOM      3  C   UNL     1       1.831   9.240  18.131  0.00  0.00    +0.000 A 
ATOM      4  C   UNL     1       1.041   9.912  19.049  0.00  0.00    +0.000 A 
ATOM      5  C   UNL     1       0.776   9.369  20.311  0.00  0.00    +0.000 A 
ATOM      6  C   UNL     1       1.349   8.136  20.641  0.00  0.00    +0.000 A 
ATOM      7  C   UNL     1       2.210   7.462  19.749  0.00  0.00    +0.000 A 
ENDROOT
BRANCH   5   8
ATOM      8  C   UNL     1      -0.121  10.164  21.206  0.00  0.00    +0.000 C 
ATOM      9  O   UNL     1      -0.560   9.570  22.192  0.00  0.00    +0.000 OA
ATOM     10  N   UNL     1      -0.440  11.472  20.861  0.00  0.00    +0.000 N 
ATOM     11  H   UNL     1      -0.179  11.810  19.952  0.00  0.00    +0.000 HD
BRANCH  10  12
ATOM     12  C   UNL     1      -1.292  12.317  21.632  0.00  0.00    +0.000 A 
ATOM     13  C   UNL     1      -0.851  12.987  22.772  0.00  0.00    +0.000 A 
ATOM     14  C   UNL     1      -1.725  13.737  23.548  0.00  0.00    +0.000 A 
ATOM     15  C   UNL     1      -3.062  13.845  23.183  0.00  0.00    +0.000 A 
ATOM     16  C   UNL     1      -3.555  13.221  22.025  0.00  0.00    +0.000 A 
ATOM     17  C   UNL     1      -2.637  12.471  21.243  0.00  0.00    +0.000 A 
BRANCH  16  18
ATOM     18  C   UNL     1      -5.044  13.328  21.634  0.00  0.00    +0.000 C 
ATOM     19  C   UNL     1      -5.454  12.344  20.510  0.00  0.00    +0.000 C 
ATOM     20  C   UNL     1      -5.932  13.024  22.855  0.00  0.00    +0.000 C 
ATOM     21  C   UNL     1      -5.361  14.748  21.121  0.00  0.00    +0.000 C 
ENDBRANCH  16  18
ENDBRANCH  10  12
ENDBRANCH   5   8
BRANCH   7  22
ATOM     22  N   UNL     1       2.866   6.269  20.148  0.00  0.00    +0.000 N 
ATOM     23  H   UNL     1       3.448   6.355  20.977  0.00  0.00    +0.000 HD
BRANCH  22  24
ATOM     24  C   UNL     1       2.364   4.932  20.061  0.00  0.00    +0.000 A 
ATOM     25  N   UNL     1       1.240   4.605  20.748  0.00  0.00    +0.000 NA
ATOM     26  C   UNL     1       0.778   3.364  20.603  0.00  0.00    +0.000 A 
ATOM     27  N   UNL     1       1.308   2.427  19.826  0.00  0.00    +0.000 NA
ATOM     28  C   UNL     1       2.419   2.785  19.155  0.00  0.00    +0.000 A 
ATOM     29  C   UNL     1       3.060   1.910  18.307  0.00  0.00    +0.000 A 
ATOM     30  N   UNL     1       4.166   2.190  17.580  0.00  0.00    +0.000 NA
ATOM     31  C   UNL     1       4.695   3.403  17.745  0.00  0.00    +0.000 A 
ATOM     32  N   UNL     1       5.808   3.695  16.997  0.00  0.00    +0.000 N 
ATOM     33  N   UNL     1       4.177   4.332  18.561  0.00  0.00    +0.000 NA
ATOM     34  C   UNL     1       3.035   4.026  19.227  0.00  0.00    +0.000 A 
ATOM     35  H   UNL     1       6.109   2.929  16.410  0.00  0.00    +0.000 HD
BRANCH  32  36
ATOM     36  C   UNL     1       6.766   4.639  17.529  0.00  0.00    +0.000 C 
BRANCH  36  37
ATOM     37  C   UNL     1       6.995   5.809  16.556  0.00  0.00    +0.000 C 
ATOM     38  C   UNL     1       5.910   5.868  15.480  0.00  0.00    +0.000 C 
ATOM     39  C   UNL     1       7.025   7.126  17.338  0.00  0.00    +0.000 C 
ENDBRANCH  36  37
ENDBRANCH  32  36
ENDBRANCH  22  24
ENDBRANCH   7  22
TORSDOF 7
ENDMDL
MODEL 4
REMARK VINA RESULT:      -9.0      1.345      2.441
REMARK  Name = 
REMARK  13 active torsions:
REMARK  status: ('A' for Active; 'I' for Inactive)
REMARK    1  A    between atoms: C_1  and  C_2
REMARK    2  A    between atoms: C_5  and  C_6
REMARK    3  A    between atoms: N_8  and  C_9
REMARK    4  A    between atoms: C_13  and  C_14
REMARK    5  A    between atoms: C_14  and  C_15
REMARK    6  A    between atoms: C_14  and  C_16
REMARK    7  A    between atoms: C_14  and  C_17
REMARK    8  A    between atoms: C_20  and  N_21
REMARK    9  A    between atoms: N_21  and  C_22
REMARK   10  A    between atoms: N_30  and  C_31
REMARK   11  A    between atoms: C_31  and  C_32
REMARK   12  A    between atoms: C_32  and  C_33
REMARK   13  A    between atoms: C_32  and  C_34
REMARK                            x       y       z     vdW  Elec       q    Type
REMARK                         _______ _______ _______ _____ _____    ______ ____
ROOT
ATOM      1  C   UNL     1       2.424   8.248  17.565  0.00  0.00    +0.000 C 
ATOM      2  C   UNL     1       1.674   8.829  18.731  0.00  0.00    +0.000 A 
ATOM      3  C   UNL     1       0.980  10.031  18.509  0.00  0.00    +0.000 A 
ATOM      4  C   UNL     1       0.272  10.636  19.534  0.00  0.00    +0.000 A 
ATOM      5  C   UNL     1       0.205  10.059  20.807  0.00  0.00    +0.000 A 
ATOM      6  C   UNL     1       0.893   8.861  21.034  0.00  0.00    +0.000 A 
ATOM      7  C   UNL     1       1.675   8.259  20.025  0.00  0.00    +0.000 A 
ENDROOT
BRANCH   5   8
ATOM      8  C   UNL     1      -0.620  10.779  21.826  0.00  0.00    +0.000 C 
ATOM      9  O   UNL     1      -0.838  10.165  22.872  0.00  0.00    +0.000 OA
ATOM     10  N   UNL     1      -1.121  12.041  21.526  0.00  0.00    +0.000 N 
ATOM     11  H   UNL     1      -1.039  12.382  20.586  0.00  0.00    +0.000 HD
BRANCH  10  12
ATOM     12  C   UNL     1      -1.926  12.812  22.416  0.00  0.00    +0.000 A 
ATOM     13  C   UNL     1      -1.380  13.596  23.431  0.00  0.00    +0.000 A 
ATOM     14  C   UNL     1      -2.193  14.272  24.332  0.00  0.00    +0.000 A 
ATOM     15  C   UNL     1      -3.576  14.188  24.220  0.00  0.00    +0.000 A 
ATOM     16  C   UNL     1      -4.182  13.441  23.196  0.00  0.00    +0.000 A 
ATOM     17  C   UNL     1      -3.328  12.771  22.281  0.00  0.00    +0.000 A 
BRANCH  16  18
ATOM     18  C   UNL     1      -5.717  13.335  23.087  0.00  0.00    +0.000 C 
ATOM     19  C   UNL     1      -6.352  12.470  24.205  0.00  0.00    +0.000 C 
ATOM     20  C   UNL     1      -6.349  14.737  23.179  0.00  0.00    +0.000 C 
ATOM     21  C   UNL     1      -6.114  12.690  21.744  0.00  0.00    +0.000 C 
ENDBRANCH  16  18
ENDBRANCH  10  12
ENDBRANCH   5   8
BRANCH   7  22
ATOM     22  N   UNL     1       2.451   7.107  20.311  0.00  0.00    +0.000 N 
ATOM     23  H   UNL     1       2.967   7.142  21.186  0.00  0.00    +0.000 HD
BRANCH  22  24
ATOM     24  C   UNL     1       2.130   5.746  20.009  0.00  0.00    +0.000 A 
ATOM     25  N   UNL     1       1.129   5.139  20.697  0.00  0.00    +0.000 NA
ATOM     26  C   UNL     1       0.828   3.887  20.353  0.00  0.00    +0.000 A 
ATOM     27  N   UNL     1       1.404   3.192  19.380  0.00  0.00    +0.000 NA
ATOM     28  C   UNL     1       2.389   3.825  18.714  0.00  0.00    +0.000 A 
ATOM     29  C   UNL     1       3.060   3.219  17.676  0.00  0.00    +0.000 A 
ATOM     30  N   UNL     1       4.045   3.786  16.942  0.00  0.00    +0.000 NA
ATOM     31  C   UNL     1       4.418   5.016  17.295  0.00  0.00    +0.000 A 
ATOM     32  N   UNL     1       5.406   5.599  16.542  0.00  0.00    +0.000 N 
ATOM     33  N   UNL     1       3.858   5.699  18.305  0.00  0.00    +0.000 NA
ATOM     34  C   UNL     1       2.835   5.112  18.976  0.00  0.00    +0.000 A 
ATOM     35  H   UNL     1       5.751   5.002  15.803  0.00  0.00    +0.000 HD
BRANCH  32  36
ATOM     36  C   UNL     1       6.274   6.568  17.175  0.00  0.00    +0.000 C 
BRANCH  36  37
ATOM     37  C   UNL     1       7.540   5.900  17.738  0.00  0.00    +0.000 C 
ATOM     38  C   UNL     1       7.514   5.840  19.266  0.00  0.00    +0.000 C 
ATOM     39  C   UNL     1       7.670   4.486  17.164  0.00  0.00    +0.000 C 
ENDBRANCH  36  37
ENDBRANCH  32  36
ENDBRANCH  22  24
ENDBRANCH   7  22
TORSDOF 7
ENDMDL
MODEL 5
REMARK VINA RESULT:      -9.0      3.056     11.241
REMARK  Name = 
REMARK  13 active torsions:
REMARK  status: ('A' for Active; 'I' for Inactive)
REMARK    1  A    between atoms: C_1  and  C_2
REMARK    2  A    between atoms: C_5  and  C_6
REMARK    3  A    between atoms: N_8  and  C_9
REMARK    4  A    between atoms: C_13  and  C_14
REMARK    5  A    between atoms: C_14  and  C_15
REMARK    6  A    between atoms: C_14  and  C_16
REMARK    7  A    between atoms: C_14  and  C_17
REMARK    8  A    between atoms: C_20  and  N_21
REMARK    9  A    between atoms: N_21  and  C_22
REMARK   10  A    between atoms: N_30  and  C_31
REMARK   11  A    between atoms: C_31  and  C_32
REMARK   12  A    between atoms: C_32  and  C_33
REMARK   13  A    between atoms: C_32  and  C_34
REMARK                            x       y       z     vdW  Elec       q    Type
REMARK                         _______ _______ _______ _____ _____    ______ ____
ROOT
ATOM      1  C   UNL     1      -0.928  11.248  22.500  0.00  0.00    +0.000 C 
ATOM      2  C   UNL     1      -0.210  10.490  21.419  0.00  0.00    +0.000 A 
ATOM      3  C   UNL     1       0.674   9.477  21.828  0.00  0.00    +0.000 A 
ATOM      4  C   UNL     1       1.381   8.738  20.893  0.00  0.00    +0.000 A 
ATOM      5  C   UNL     1       1.217   8.959  19.521  0.00  0.00    +0.000 A 
ATOM      6  C   UNL     1       0.337   9.965  19.107  0.00  0.00    +0.000 A 
ATOM      7  C   UNL     1      -0.346  10.776  20.040  0.00  0.00    +0.000 A 
ENDROOT
BRANCH   5   8
ATOM      8  C   UNL     1       2.002   8.077  18.603  0.00  0.00    +0.000 C 
ATOM      9  O   UNL     1       2.233   8.537  17.483  0.00  0.00    +0.000 OA
ATOM     10  N   UNL     1       2.372   6.808  19.032  0.00  0.00    +0.000 N 
ATOM     11  H   UNL     1       1.988   6.456  19.890  0.00  0.00    +0.000 HD
BRANCH  10  12
ATOM     12  C   UNL     1       3.110   5.880  18.238  0.00  0.00    +0.000 A 
ATOM     13  C   UNL     1       2.560   4.686  17.776  0.00  0.00    +0.000 A 
ATOM     14  C   UNL     1       3.328   3.766  17.074  0.00  0.00    +0.000 A 
ATOM     15  C   UNL     1       4.665   4.035  16.806  0.00  0.00    +0.000 A 
ATOM     16  C   UNL     1       5.264   5.238  17.217  0.00  0.00    +0.000 A 
ATOM     17  C   UNL     1       4.452   6.166  17.921  0.00  0.00    +0.000 A 
BRANCH  16  18
ATOM     18  C   UNL     1       6.753   5.524  16.935  0.00  0.00    +0.000 C 
ATOM     19  C   UNL     1       7.164   6.986  17.242  0.00  0.00    +0.000 C 
ATOM     20  C   UNL     1       7.638   4.608  17.800  0.00  0.00    +0.000 C 
ATOM     21  C   UNL     1       7.072   5.275  15.446  0.00  0.00    +0.000 C 
ENDBRANCH  16  18
ENDBRANCH  10  12
ENDBRANCH   5   8
BRANCH   7  22
ATOM     22  N   UNL     1      -1.146  11.860  19.598  0.00  0.00    +0.000 N 
ATOM     23  H   UNL     1      -0.637  12.719  19.403  0.00  0.00    +0.000 HD
BRANCH  22  24
ATOM     24  C   UNL     1      -2.304  11.800  18.761  0.00  0.00    +0.000 A 
ATOM     25  N   UNL     1      -2.152  11.490  17.448  0.00  0.00    +0.000 NA
ATOM     26  C   UNL     1      -3.260  11.397  16.714  0.00  0.00    +0.000 A 
ATOM     27  N   UNL     1      -4.500  11.555  17.159  0.00  0.00    +0.000 NA
ATOM     28  C   UNL     1      -4.617  11.856  18.467  0.00  0.00    +0.000 A 
ATOM     29  C   UNL     1      -5.848  12.035  19.057  0.00  0.00    +0.000 A 
ATOM     30  N   UNL     1      -6.057  12.319  20.363  0.00  0.00    +0.000 NA
ATOM     31  C   UNL     1      -4.972  12.481  21.119  0.00  0.00    +0.000 A 
ATOM     32  N   UNL     1      -5.182  12.753  22.447  0.00  0.00    +0.000 N 
ATOM     33  N   UNL     1      -3.720  12.358  20.654  0.00  0.00    +0.000 NA
ATOM     34  C   UNL     1      -3.559  12.017  19.350  0.00  0.00    +0.000 A 
ATOM     35  H   UNL     1      -6.160  12.816  22.693  0.00  0.00    +0.000 HD
BRANCH  32  36
ATOM     36  C   UNL     1      -4.191  13.533  23.157  0.00  0.00    +0.000 C 
BRANCH  36  37
ATOM     37  C   UNL     1      -4.765  14.885  23.611  0.00  0.00    +0.000 C 
ATOM     38  C   UNL     1      -4.354  16.018  22.668  0.00  0.00    +0.000 C 
ATOM     39  C   UNL     1      -6.292  14.795  23.682  0.00  0.00    +0.000 C 
ENDBRANCH  36  37
ENDBRANCH  32  36
ENDBRANCH  22  24
ENDBRANCH   7  22
TORSDOF 7
ENDMDL
MODEL 6
REMARK VINA RESULT:      -8.9      3.402     11.209
REMARK  Name = 
REMARK  13 active torsions:
REMARK  status: ('A' for Active; 'I' for Inactive)
REMARK    1  A    between atoms: C_1  and  C_2
REMARK    2  A    between atoms: C_5  and  C_6
REMARK    3  A    between atoms: N_8  and  C_9
REMARK    4  A    between atoms: C_13  and  C_14
REMARK    5  A    between atoms: C_14  and  C_15
REMARK    6  A    between atoms: C_14  and  C_16
REMARK    7  A    between atoms: C_14  and  C_17
REMARK    8  A    between atoms: C_20  and  N_21
REMARK    9  A    between atoms: N_21  and  C_22
REMARK   10  A    between atoms: N_30  and  C_31
REMARK   11  A    between atoms: C_31  and  C_32
REMARK   12  A    between atoms: C_32  and  C_33
REMARK   13  A    between atoms: C_32  and  C_34
REMARK                            x       y       z     vdW  Elec       q    Type
REMARK                         _______ _______ _______ _____ _____    ______ ____
ROOT
ATOM      1  C   UNL     1      -0.957  11.752  21.967  0.00  0.00    +0.000 C 
ATOM      2  C   UNL     1      -0.244  10.891  20.963  0.00  0.00    +0.000 A 
ATOM      3  C   UNL     1       0.728  10.003  21.457  0.00  0.00    +0.000 A 
ATOM      4  C   UNL     1       1.435   9.181  20.594  0.00  0.00    +0.000 A 
ATOM      5  C   UNL     1       1.187   9.191  19.217  0.00  0.00    +0.000 A 
ATOM      6  C   UNL     1       0.220  10.071  18.720  0.00  0.00    +0.000 A 
ATOM      7  C   UNL     1      -0.469  10.966  19.568  0.00  0.00    +0.000 A 
ENDROOT
BRANCH   5   8
ATOM      8  C   UNL     1       1.983   8.235  18.387  0.00  0.00    +0.000 C 
ATOM      9  O   UNL     1       2.269   8.618  17.251  0.00  0.00    +0.000 OA
ATOM     10  N   UNL     1       2.303   6.986  18.908  0.00  0.00    +0.000 N 
ATOM     11  H   UNL     1       1.877   6.699  19.770  0.00  0.00    +0.000 HD
BRANCH  10  12
ATOM     12  C   UNL     1       3.047   5.993  18.203  0.00  0.00    +0.000 A 
ATOM     13  C   UNL     1       2.491   4.775  17.818  0.00  0.00    +0.000 A 
ATOM     14  C   UNL     1       3.262   3.796  17.205  0.00  0.00    +0.000 A 
ATOM     15  C   UNL     1       4.609   4.029  16.949  0.00  0.00    +0.000 A 
ATOM     16  C   UNL     1       5.214   5.252  17.283  0.00  0.00    +0.000 A 
ATOM     17  C   UNL     1       4.399   6.240  17.897  0.00  0.00    +0.000 A 
BRANCH  16  18
ATOM     18  C   UNL     1       6.713   5.500  17.015  0.00  0.00    +0.000 C 
ATOM     19  C   UNL     1       7.644   4.682  17.944  0.00  0.00    +0.000 C 
ATOM     20  C   UNL     1       7.058   5.113  15.565  0.00  0.00    +0.000 C 
ATOM     21  C   UNL     1       7.056   6.987  17.236  0.00  0.00    +0.000 C 
ENDBRANCH  16  18
ENDBRANCH  10  12
ENDBRANCH   5   8
BRANCH   7  22
ATOM     22  N   UNL     1      -1.363  11.924  19.026  0.00  0.00    +0.000 N 
ATOM     23  H   UNL     1      -0.946  12.825  18.807  0.00  0.00    +0.000 HD
BRANCH  22  24
ATOM     24  C   UNL     1      -2.460  11.684  18.141  0.00  0.00    +0.000 A 
ATOM     25  N   UNL     1      -2.203  11.329  16.856  0.00  0.00    +0.000 NA
ATOM     26  C   UNL     1      -3.252  11.068  16.076  0.00  0.00    +0.000 A 
ATOM     27  N   UNL     1      -4.524  11.101  16.453  0.00  0.00    +0.000 NA
ATOM     28  C   UNL     1      -4.744  11.451  17.735  0.00  0.00    +0.000 A 
ATOM     29  C   UNL     1      -6.018  11.512  18.255  0.00  0.00    +0.000 A 
ATOM     30  N   UNL     1      -6.328  11.835  19.532  0.00  0.00    +0.000 NA
ATOM     31  C   UNL     1      -5.311  12.163  20.328  0.00  0.00    +0.000 A 
ATOM     32  N   UNL     1      -5.622  12.474  21.627  0.00  0.00    +0.000 N 
ATOM     33  N   UNL     1      -4.030  12.166  19.929  0.00  0.00    +0.000 NA
ATOM     34  C   UNL     1      -3.761  11.781  18.656  0.00  0.00    +0.000 A 
ATOM     35  H   UNL     1      -6.613  12.433  21.822  0.00  0.00    +0.000 HD
BRANCH  32  36
ATOM     36  C   UNL     1      -4.767  13.401  22.337  0.00  0.00    +0.000 C 
BRANCH  36  37
ATOM     37  C   UNL     1      -5.438  14.777  22.486  0.00  0.00    +0.000 C 
ATOM     38  C   UNL     1      -6.956  14.652  22.621  0.00  0.00    +0.000 C 
ATOM     39  C   UNL     1      -4.864  15.496  23.710  0.00  0.00    +0.000 C 
ENDBRANCH  36  37
ENDBRANCH  32  36
ENDBRANCH  22  24
ENDBRANCH   7  22
TORSDOF 7
ENDMDL
MODEL 7
REMARK VINA RESULT:      -8.9      1.133      1.306
REMARK  Name = 
REMARK  13 active torsions:
REMARK  status: ('A' for Active; 'I' for Inactive)
REMARK    1  A    between atoms: C_1  and  C_2
REMARK    2  A    between atoms: C_5  and  C_6
REMARK    3  A    between atoms: N_8  and  C_9
REMARK    4  A    between atoms: C_13  and  C_14
REMARK    5  A    between atoms: C_14  and  C_15
REMARK    6  A    between atoms: C_14  and  C_16
REMARK    7  A    between atoms: C_14  and  C_17
REMARK    8  A    between atoms: C_20  and  N_21
REMARK    9  A    between atoms: N_21  and  C_22
REMARK   10  A    between atoms: N_30  and  C_31
REMARK   11  A    between atoms: C_31  and  C_32
REMARK   12  A    between atoms: C_32  and  C_33
REMARK   13  A    between atoms: C_32  and  C_34
REMARK                            x       y       z     vdW  Elec       q    Type
REMARK                         _______ _______ _______ _____ _____    ______ ____
ROOT
ATOM      1  C   UNL     1       3.623   7.227  17.381  0.00  0.00    +0.000 C 
ATOM      2  C   UNL     1       2.650   8.000  18.226  0.00  0.00    +0.000 A 
ATOM      3  C   UNL     1       2.182   9.220  17.706  0.00  0.00    +0.000 A 
ATOM      4  C   UNL     1       1.289   9.997  18.427  0.00  0.00    +0.000 A 
ATOM      5  C   UNL     1       0.811   9.581  19.674  0.00  0.00    +0.000 A 
ATOM      6  C   UNL     1       1.272   8.368  20.196  0.00  0.00    +0.000 A 
ATOM      7  C   UNL     1       2.231   7.589  19.513  0.00  0.00    +0.000 A 
ENDROOT
BRANCH   5   8
ATOM      8  C   UNL     1      -0.178  10.482  20.345  0.00  0.00    +0.000 C 
ATOM      9  O   UNL     1      -1.202  10.726  19.705  0.00  0.00    +0.000 OA
ATOM     10  N   UNL     1       0.125  11.015  21.592  0.00  0.00    +0.000 N 
ATOM     11  H   UNL     1       1.055  10.901  21.954  0.00  0.00    +0.000 HD
BRANCH  10  12
ATOM     12  C   UNL     1      -0.736  11.891  22.317  0.00  0.00    +0.000 A 
ATOM     13  C   UNL     1      -1.842  11.432  23.030  0.00  0.00    +0.000 A 
ATOM     14  C   UNL     1      -2.709  12.318  23.659  0.00  0.00    +0.000 A 
ATOM     15  C   UNL     1      -2.470  13.686  23.599  0.00  0.00    +0.000 A 
ATOM     16  C   UNL     1      -1.351  14.203  22.925  0.00  0.00    +0.000 A 
ATOM     17  C   UNL     1      -0.476  13.275  22.302  0.00  0.00    +0.000 A 
BRANCH  16  18
ATOM     18  C   UNL     1      -1.101  15.723  22.844  0.00  0.00    +0.000 C 
ATOM     19  C   UNL     1      -1.716  16.509  24.029  0.00  0.00    +0.000 C 
ATOM     20  C   UNL     1       0.413  16.007  22.844  0.00  0.00    +0.000 C 
ATOM     21  C   UNL     1      -1.722  16.300  21.555  0.00  0.00    +0.000 C 
ENDBRANCH  16  18
ENDBRANCH  10  12
ENDBRANCH   5   8
BRANCH   7  22
ATOM     22  N   UNL     1       2.765   6.420  20.112  0.00  0.00    +0.000 N 
ATOM     23  H   UNL     1       3.176   6.558  21.031  0.00  0.00    +0.000 HD
BRANCH  22  24
ATOM     24  C   UNL     1       2.257   5.087  20.019  0.00  0.00    +0.000 A 
ATOM     25  N   UNL     1       1.082   4.786  20.628  0.00  0.00    +0.000 NA
ATOM     26  C   UNL     1       0.619   3.546  20.477  0.00  0.00    +0.000 A 
ATOM     27  N   UNL     1       1.193   2.587  19.763  0.00  0.00    +0.000 NA
ATOM     28  C   UNL     1       2.355   2.918  19.167  0.00  0.00    +0.000 A 
ATOM     29  C   UNL     1       3.047   2.018  18.388  0.00  0.00    +0.000 A 
ATOM     30  N   UNL     1       4.206   2.271  17.739  0.00  0.00    +0.000 NA
ATOM     31  C   UNL     1       4.735   3.483  17.915  0.00  0.00    +0.000 A 
ATOM     32  N   UNL     1       5.902   3.747  17.244  0.00  0.00    +0.000 N 
ATOM     33  N   UNL     1       4.168   4.435  18.670  0.00  0.00    +0.000 NA
ATOM     34  C   UNL     1       2.977   4.155  19.256  0.00  0.00    +0.000 A 
ATOM     35  H   UNL     1       6.237   2.965  16.699  0.00  0.00    +0.000 HD
BRANCH  32  36
ATOM     36  C   UNL     1       6.830   4.694  17.824  0.00  0.00    +0.000 C 
BRANCH  36  37
ATOM     37  C   UNL     1       7.286   5.734  16.786  0.00  0.00    +0.000 C 
ATOM     38  C   UNL     1       6.387   5.728  15.549  0.00  0.00    +0.000 C 
ATOM     39  C   UNL     1       7.286   7.127  17.423  0.00  0.00    +0.000 C 
ENDBRANCH  36  37
ENDBRANCH  32  36
ENDBRANCH  22  24
ENDBRANCH   7  22
TORSDOF 7
ENDMDL
MODEL 8
REMARK VINA RESULT:      -8.9      1.610      2.457
REMARK  Name = 
REMARK  13 active torsions:
REMARK  status: ('A' for Active; 'I' for Inactive)
REMARK    1  A    between atoms: C_1  and  C_2
REMARK    2  A    between atoms: C_5  and  C_6
REMARK    3  A    between atoms: N_8  and  C_9
REMARK    4  A    between atoms: C_13  and  C_14
REMARK    5  A    between atoms: C_14  and  C_15
REMARK    6  A    between atoms: C_14  and  C_16
REMARK    7  A    between atoms: C_14  and  C_17
REMARK    8  A    between atoms: C_20  and  N_21
REMARK    9  A    between atoms: N_21  and  C_22
REMARK   10  A    between atoms: N_30  and  C_31
REMARK   11  A    between atoms: C_31  and  C_32
REMARK   12  A    between atoms: C_32  and  C_33
REMARK   13  A    between atoms: C_32  and  C_34
REMARK                            x       y       z     vdW  Elec       q    Type
REMARK                         _______ _______ _______ _____ _____    ______ ____
ROOT
ATOM      1  C   UNL     1       2.716   7.793  17.436  0.00  0.00    +0.000 C 
ATOM      2  C   UNL     1       1.902   8.425  18.529  0.00  0.00    +0.000 A 
ATOM      3  C   UNL     1       1.143   9.558  18.187  0.00  0.00    +0.000 A 
ATOM      4  C   UNL     1       0.372  10.204  19.140  0.00  0.00    +0.000 A 
ATOM      5  C   UNL     1       0.306   9.736  20.457  0.00  0.00    +0.000 A 
ATOM      6  C   UNL     1       1.057   8.607  20.803  0.00  0.00    +0.000 A 
ATOM      7  C   UNL     1       1.901   7.970  19.868  0.00  0.00    +0.000 A 
ENDROOT
BRANCH   5   8
ATOM      8  C   UNL     1      -0.588  10.489  21.390  0.00  0.00    +0.000 C 
ATOM      9  O   UNL     1      -0.750   9.986  22.503  0.00  0.00    +0.000 OA
ATOM     10  N   UNL     1      -1.208  11.652  20.947  0.00  0.00    +0.000 N 
ATOM     11  H   UNL     1      -1.156  11.887  19.973  0.00  0.00    +0.000 HD
BRANCH  10  12
ATOM     12  C   UNL     1      -2.087  12.443  21.746  0.00  0.00    +0.000 A 
ATOM     13  C   UNL     1      -1.713  12.956  22.987  0.00  0.00    +0.000 A 
ATOM     14  C   UNL     1      -2.618  13.653  23.777  0.00  0.00    +0.000 A 
ATOM     15  C   UNL     1      -3.916  13.866  23.327  0.00  0.00    +0.000 A 
ATOM     16  C   UNL     1      -4.337  13.403  22.069  0.00  0.00    +0.000 A 
ATOM     17  C   UNL     1      -3.389  12.705  21.277  0.00  0.00    +0.000 A 
BRANCH  16  18
ATOM     18  C   UNL     1      -5.784  13.625  21.581  0.00  0.00    +0.000 C 
ATOM     19  C   UNL     1      -6.589  12.310  21.433  0.00  0.00    +0.000 C 
ATOM     20  C   UNL     1      -6.545  14.517  22.581  0.00  0.00    +0.000 C 
ATOM     21  C   UNL     1      -5.783  14.307  20.198  0.00  0.00    +0.000 C 
ENDBRANCH  16  18
ENDBRANCH  10  12
ENDBRANCH   5   8
BRANCH   7  22
ATOM     22  N   UNL     1       2.737   6.897  20.271  0.00  0.00    +0.000 N 
ATOM     23  H   UNL     1       3.347   7.099  21.058  0.00  0.00    +0.000 HD
BRANCH  22  24
ATOM     24  C   UNL     1       2.420   5.502  20.268  0.00  0.00    +0.000 A 
ATOM     25  N   UNL     1       1.203   5.102  20.717  0.00  0.00    +0.000 NA
ATOM     26  C   UNL     1       0.930   3.800  20.652  0.00  0.00    +0.000 A 
ATOM     27  N   UNL     1       1.733   2.863  20.165  0.00  0.00    +0.000 NA
ATOM     28  C   UNL     1       2.931   3.293  19.723  0.00  0.00    +0.000 A 
ATOM     29  C   UNL     1       3.853   2.424  19.184  0.00  0.00    +0.000 A 
ATOM     30  N   UNL     1       5.067   2.772  18.699  0.00  0.00    +0.000 NA
ATOM     31  C   UNL     1       5.404   4.058  18.802  0.00  0.00    +0.000 A 
ATOM     32  N   UNL     1       6.629   4.415  18.297  0.00  0.00    +0.000 N 
ATOM     33  N   UNL     1       4.602   4.993  19.332  0.00  0.00    +0.000 NA
ATOM     34  C   UNL     1       3.371   4.608  19.753  0.00  0.00    +0.000 A 
ATOM     35  H   UNL     1       7.147   3.636  17.914  0.00  0.00    +0.000 HD
BRANCH  32  36
ATOM     36  C   UNL     1       7.318   5.540  18.892  0.00  0.00    +0.000 C 
BRANCH  36  37
ATOM     37  C   UNL     1       7.621   6.625  17.844  0.00  0.00    +0.000 C 
ATOM     38  C   UNL     1       6.349   7.097  17.138  0.00  0.00    +0.000 C 
ATOM     39  C   UNL     1       8.311   7.812  18.523  0.00  0.00    +0.000 C 
ENDBRANCH  36  37
ENDBRANCH  32  36
ENDBRANCH  22  24
ENDBRANCH   7  22
TORSDOF 7
ENDMDL
MODEL 9
REMARK VINA RESULT:      -8.7      2.348      3.326
REMARK  Name = 
REMARK  13 active torsions:
REMARK  status: ('A' for Active; 'I' for Inactive)
REMARK    1  A    between atoms: C_1  and  C_2
REMARK    2  A    between atoms: C_5  and  C_6
REMARK    3  A    between atoms: N_8  and  C_9
REMARK    4  A    between atoms: C_13  and  C_14
REMARK    5  A    between atoms: C_14  and  C_15
REMARK    6  A    between atoms: C_14  and  C_16
REMARK    7  A    between atoms: C_14  and  C_17
REMARK    8  A    between atoms: C_20  and  N_21
REMARK    9  A    between atoms: N_21  and  C_22
REMARK   10  A    between atoms: N_30  and  C_31
REMARK   11  A    between atoms: C_31  and  C_32
REMARK   12  A    between atoms: C_32  and  C_33
REMARK   13  A    between atoms: C_32  and  C_34
REMARK                            x       y       z     vdW  Elec       q    Type
REMARK                         _______ _______ _______ _____ _____    ______ ____
ROOT
ATOM      1  C   UNL     1       3.868   7.052  17.230  0.00  0.00    +0.000 C 
ATOM      2  C   UNL     1       2.875   7.722  18.138  0.00  0.00    +0.000 A 
ATOM      3  C   UNL     1       2.234   8.872  17.647  0.00  0.00    +0.000 A 
ATOM      4  C   UNL     1       1.312   9.553  18.426  0.00  0.00    +0.000 A 
ATOM      5  C   UNL     1       0.974   9.103  19.707  0.00  0.00    +0.000 A 
ATOM      6  C   UNL     1       1.608   7.958  20.201  0.00  0.00    +0.000 A 
ATOM      7  C   UNL     1       2.598   7.283  19.455  0.00  0.00    +0.000 A 
ENDROOT
BRANCH   5   8
ATOM      8  C   UNL     1      -0.061   9.894  20.442  0.00  0.00    +0.000 C 
ATOM      9  O   UNL     1      -0.427   9.427  21.522  0.00  0.00    +0.000 OA
ATOM     10  N   UNL     1      -0.573  11.049  19.862  0.00  0.00    +0.000 N 
ATOM     11  H   UNL     1      -0.343  11.252  18.906  0.00  0.00    +0.000 HD
BRANCH  10  12
ATOM     12  C   UNL     1      -1.568  11.873  20.466  0.00  0.00    +0.000 A 
ATOM     13  C   UNL     1      -1.348  12.562  21.657  0.00  0.00    +0.000 A 
ATOM     14  C   UNL     1      -2.363  13.292  22.263  0.00  0.00    +0.000 A 
ATOM     15  C   UNL     1      -3.620  13.357  21.673  0.00  0.00    +0.000 A 
ATOM     16  C   UNL     1      -3.890  12.712  20.454  0.00  0.00    +0.000 A 
ATOM     17  C   UNL     1      -2.831  11.984  19.851  0.00  0.00    +0.000 A 
BRANCH  16  18
ATOM     18  C   UNL     1      -5.292  12.771  19.813  0.00  0.00    +0.000 C 
ATOM     19  C   UNL     1      -5.904  14.194  19.812  0.00  0.00    +0.000 C 
ATOM     20  C   UNL     1      -5.219  12.304  18.347  0.00  0.00    +0.000 C 
ATOM     21  C   UNL     1      -6.272  11.864  20.584  0.00  0.00    +0.000 C 
ENDBRANCH  16  18
ENDBRANCH  10  12
ENDBRANCH   5   8
BRANCH   7  22
ATOM     22  N   UNL     1       3.305   6.192  20.021  0.00  0.00    +0.000 N 
ATOM     23  H   UNL     1       3.975   6.441  20.743  0.00  0.00    +0.000 HD
BRANCH  22  24
ATOM     24  C   UNL     1       2.809   4.874  20.274  0.00  0.00    +0.000 A 
ATOM     25  N   UNL     1       1.998   4.671  21.344  0.00  0.00    +0.000 NA
ATOM     26  C   UNL     1       1.518   3.440  21.517  0.00  0.00    +0.000 A 
ATOM     27  N   UNL     1       1.744   2.402  20.722  0.00  0.00    +0.000 NA
ATOM     28  C   UNL     1       2.548   2.638  19.668  0.00  0.00    +0.000 A 
ATOM     29  C   UNL     1       2.854   1.649  18.760  0.00  0.00    +0.000 A 
ATOM     30  N   UNL     1       3.634   1.803  17.666  0.00  0.00    +0.000 NA
ATOM     31  C   UNL     1       4.183   3.005  17.490  0.00  0.00    +0.000 A 
ATOM     32  N   UNL     1       4.962   3.167  16.372  0.00  0.00    +0.000 N 
ATOM     33  N   UNL     1       3.982   4.039  18.319  0.00  0.00    +0.000 NA
ATOM     34  C   UNL     1       3.147   3.855  19.372  0.00  0.00    +0.000 A 
ATOM     35  H   UNL     1       5.040   2.329  15.813  0.00  0.00    +0.000 HD
BRANCH  32  36
ATOM     36  C   UNL     1       6.043   4.127  16.419  0.00  0.00    +0.000 C 
BRANCH  36  37
ATOM     37  C   UNL     1       6.151   4.913  15.101  0.00  0.00    +0.000 C 
ATOM     38  C   UNL     1       7.606   5.234  14.753  0.00  0.00    +0.000 C 
ATOM     39  C   UNL     1       5.512   4.102  13.970  0.00  0.00    +0.000 C 
ENDBRANCH  36  37
ENDBRANCH  32  36
ENDBRANCH  22  24
ENDBRANCH   7  22
TORSDOF 7
ENDMDL
