MODEL 1
REMARK VINA RESULT:      -6.7      0.000      0.000
REMARK  Name = 
REMARK  4 active torsions:
REMARK  status: ('A' for Active; 'I' for Inactive)
REMARK    1  A    between atoms: C_1  and  N_2
REMARK    2  A    between atoms: C_4  and  C_5
REMARK    3  A    between atoms: C_5  and  C_7
REMARK    4  A    between atoms: C_7  and  N_8
REMARK                            x       y       z     vdW  Elec       q    Type
REMARK                         _______ _______ _______ _____ _____    ______ ____
ROOT
ATOM      1  C   UNL     1       7.019   4.766  14.445  0.00  0.00    +0.000 C 
ATOM      2  N   UNL     1       6.252   4.480  15.640  0.00  0.00    +0.000 N 
ATOM      3  C   UNL     1       5.107   3.722  15.685  0.00  0.00    +0.000 A 
ATOM      4  C   UNL     1       4.661   3.683  16.998  0.00  0.00    +0.000 A 
ATOM      5  C   UNL     1       5.583   4.469  17.766  0.00  0.00    +0.000 A 
ATOM      6  C   UNL     1       5.674   4.811  19.134  0.00  0.00    +0.000 A 
ATOM      7  C   UNL     1       6.740   5.594  19.589  0.00  0.00    +0.000 A 
ATOM      8  C   UNL     1       7.720   6.031  18.707  0.00  0.00    +0.000 A 
ATOM      9  C   UNL     1       7.657   5.711  17.349  0.00  0.00    +0.000 A 
ATOM     10  C   UNL     1       6.577   4.932  16.900  0.00  0.00    +0.000 A 
ENDROOT
BRANCH   4  11
ATOM     11  C   UNL     1       3.482   2.985  17.505  0.00  0.00    +0.000 C 
ATOM     12  O   UNL     1       3.531   1.809  17.859  0.00  0.00    +0.000 OA
BRANCH  11  13
ATOM     13  C   UNL     1       2.158   3.719  17.552  0.00  0.00    +0.000 C 
BRANCH  13  14
ATOM     14  N   UNL     1       2.140   4.877  18.478  0.00  0.00    +0.000 N 
ATOM     15  C   UNL     1       1.831   4.699  19.786  0.00  0.00    +0.000 A 
ATOM     16  C   UNL     1       1.795   5.780  20.661  0.00  0.00    +0.000 A 
ATOM     17  C   UNL     1       2.089   7.054  20.193  0.00  0.00    +0.000 A 
ATOM     18  C   UNL     1       2.400   7.224  18.851  0.00  0.00    +0.000 A 
ATOM     19  C   UNL     1       2.403   6.121  18.004  0.00  0.00    +0.000 A 
ENDBRANCH  13  14
ENDBRANCH  11  13
ENDBRANCH   4  11
TORSDOF 3
ENDMDL
MODEL 2
REMARK VINA RESULT:      -6.7      0.123      1.095
REMARK  Name = 
REMARK  4 active torsions:
REMARK  status: ('A' for Active; 'I' for Inactive)
REMARK    1  A    between atoms: C_1  and  N_2
REMARK    2  A    between atoms: C_4  and  C_5
REMARK    3  A    between atoms: C_5  and  C_7
REMARK    4  A    between atoms: C_7  and  N_8
REMARK                            x       y       z     vdW  Elec       q    Type
REMARK                         _______ _______ _______ _____ _____    ______ ____
ROOT
ATOM      1  C   UNL     1       6.799   4.753  14.338  0.00  0.00    +0.000 C 
ATOM      2  N   UNL     1       6.086   4.466  15.565  0.00  0.00    +0.000 N 
ATOM      3  C   UNL     1       4.948   3.702  15.661  0.00  0.00    +0.000 A 
ATOM      4  C   UNL     1       4.559   3.663  16.992  0.00  0.00    +0.000 A 
ATOM      5  C   UNL     1       5.510   4.455  17.719  0.00  0.00    +0.000 A 
ATOM      6  C   UNL     1       5.658   4.800  19.081  0.00  0.00    +0.000 A 
ATOM      7  C   UNL     1       6.740   5.588  19.488  0.00  0.00    +0.000 A 
ATOM      8  C   UNL     1       7.679   6.028  18.563  0.00  0.00    +0.000 A 
ATOM      9  C   UNL     1       7.558   5.705  17.209  0.00  0.00    +0.000 A 
ATOM     10  C   UNL     1       6.463   4.921  16.810  0.00  0.00    +0.000 A 
ENDROOT
BRANCH   4  11
ATOM     11  C   UNL     1       3.406   2.960  17.551  0.00  0.00    +0.000 C 
ATOM     12  O   UNL     1       3.481   1.790  17.920  0.00  0.00    +0.000 OA
BRANCH  11  13
ATOM     13  C   UNL     1       2.078   3.682  17.634  0.00  0.00    +0.000 C 
BRANCH  13  14
ATOM     14  N   UNL     1       2.093   4.882  18.504  0.00  0.00    +0.000 N 
ATOM     15  C   UNL     1       2.375   6.101  17.979  0.00  0.00    +0.000 A 
ATOM     16  C   UNL     1       2.410   7.232  18.789  0.00  0.00    +0.000 A 
ATOM     17  C   UNL     1       2.141   7.114  20.146  0.00  0.00    +0.000 A 
ATOM     18  C   UNL     1       1.857   5.862  20.672  0.00  0.00    +0.000 A 
ATOM     19  C   UNL     1       1.856   4.752  19.834  0.00  0.00    +0.000 A 
ENDBRANCH  13  14
ENDBRANCH  11  13
ENDBRANCH   4  11
TORSDOF 3
ENDMDL
MODEL 3
REMARK VINA RESULT:      -6.7      2.196      6.191
REMARK  Name = 
REMARK  4 active torsions:
REMARK  status: ('A' for Active; 'I' for Inactive)
REMARK    1  A    between atoms: C_1  and  N_2
REMARK    2  A    between atoms: C_4  and  C_5
REMARK    3  A    between atoms: C_5  and  C_7
REMARK    4  A    between atoms: C_7  and  N_8
REMARK                            x       y       z     vdW  Elec       q    Type
REMARK                         _______ _______ _______ _____ _____    ______ ____
ROOT
ATOM      1  C   UNL     1       2.038   6.955  20.098  0.00  0.00    +0.000 C 
ATOM      2  N   UNL     1       2.704   6.240  19.029  0.00  0.00    +0.000 N 
ATOM      3  C   UNL     1       3.648   6.775  18.186  0.00  0.00    +0.000 A 
ATOM      4  C   UNL     1       4.045   5.789  17.293  0.00  0.00    +0.000 A 
ATOM      5  C   UNL     1       3.287   4.615  17.619  0.00  0.00    +0.000 A 
ATOM      6  C   UNL     1       3.232   3.308  17.086  0.00  0.00    +0.000 A 
ATOM      7  C   UNL     1       2.385   2.354  17.661  0.00  0.00    +0.000 A 
ATOM      8  C   UNL     1       1.601   2.680  18.761  0.00  0.00    +0.000 A 
ATOM      9  C   UNL     1       1.632   3.965  19.309  0.00  0.00    +0.000 A 
ATOM     10  C   UNL     1       2.479   4.917  18.718  0.00  0.00    +0.000 A 
ENDROOT
BRANCH   4  11
ATOM     11  C   UNL     1       5.035   5.917  16.227  0.00  0.00    +0.000 C 
ATOM     12  O   UNL     1       5.063   6.897  15.486  0.00  0.00    +0.000 OA
BRANCH  11  13
ATOM     13  C   UNL     1       6.024   4.791  16.006  0.00  0.00    +0.000 C 
BRANCH  13  14
ATOM     14  N   UNL     1       6.381   4.568  14.585  0.00  0.00    +0.000 N 
ATOM     15  C   UNL     1       5.670   3.691  13.833  0.00  0.00    +0.000 A 
ATOM     16  C   UNL     1       6.007   3.460  12.503  0.00  0.00    +0.000 A 
ATOM     17  C   UNL     1       7.074   4.144  11.935  0.00  0.00    +0.000 A 
ATOM     18  C   UNL     1       7.796   5.036  12.716  0.00  0.00    +0.000 A 
ATOM     19  C   UNL     1       7.443   5.221  14.048  0.00  0.00    +0.000 A 
ENDBRANCH  13  14
ENDBRANCH  11  13
ENDBRANCH   4  11
TORSDOF 3
ENDMDL
MODEL 4
REMARK VINA RESULT:      -6.6      1.599      5.310
REMARK  Name = 
REMARK  4 active torsions:
REMARK  status: ('A' for Active; 'I' for Inactive)
REMARK    1  A    between atoms: C_1  and  N_2
REMARK    2  A    between atoms: C_4  and  C_5
REMARK    3  A    between atoms: C_5  and  C_7
REMARK    4  A    between atoms: C_7  and  N_8
REMARK                            x       y       z     vdW  Elec       q    Type
REMARK                         _______ _______ _______ _____ _____    ______ ____
ROOT
ATOM      1  C   UNL     1       2.120   7.082  19.954  0.00  0.00    +0.000 C 
ATOM      2  N   UNL     1       2.602   6.005  19.113  0.00  0.00    +0.000 N 
ATOM      3  C   UNL     1       3.612   6.113  18.187  0.00  0.00    +0.000 A 
ATOM      4  C   UNL     1       3.780   4.878  17.578  0.00  0.00    +0.000 A 
ATOM      5  C   UNL     1       2.811   3.998  18.166  0.00  0.00    +0.000 A 
ATOM      6  C   UNL     1       2.482   2.638  17.974  0.00  0.00    +0.000 A 
ATOM      7  C   UNL     1       1.476   2.047  18.745  0.00  0.00    +0.000 A 
ATOM      8  C   UNL     1       0.802   2.786  19.710  0.00  0.00    +0.000 A 
ATOM      9  C   UNL     1       1.103   4.133  19.922  0.00  0.00    +0.000 A 
ATOM     10  C   UNL     1       2.108   4.719  19.134  0.00  0.00    +0.000 A 
ENDROOT
BRANCH   4  11
ATOM     11  C   UNL     1       4.749   4.536  16.539  0.00  0.00    +0.000 C 
ATOM     12  O   UNL     1       4.425   4.458  15.356  0.00  0.00    +0.000 OA
BRANCH  11  13
ATOM     13  C   UNL     1       6.176   4.227  16.941  0.00  0.00    +0.000 C 
BRANCH  13  14
ATOM     14  N   UNL     1       6.909   5.383  17.509  0.00  0.00    +0.000 N 
ATOM     15  C   UNL     1       7.510   5.281  18.721  0.00  0.00    +0.000 A 
ATOM     16  C   UNL     1       8.187   6.364  19.272  0.00  0.00    +0.000 A 
ATOM     17  C   UNL     1       8.258   7.560  18.569  0.00  0.00    +0.000 A 
ATOM     18  C   UNL     1       7.637   7.653  17.331  0.00  0.00    +0.000 A 
ATOM     19  C   UNL     1       6.950   6.555  16.826  0.00  0.00    +0.000 A 
ENDBRANCH  13  14
ENDBRANCH  11  13
ENDBRANCH   4  11
TORSDOF 3
ENDMDL
MODEL 5
REMARK VINA RESULT:      -6.6      1.890      5.938
REMARK  Name = 
REMARK  4 active torsions:
REMARK  status: ('A' for Active; 'I' for Inactive)
REMARK    1  A    between atoms: C_1  and  N_2
REMARK    2  A    between atoms: C_4  and  C_5
REMARK    3  A    between atoms: C_5  and  C_7
REMARK    4  A    between atoms: C_7  and  N_8
REMARK                            x       y       z     vdW  Elec       q    Type
REMARK                         _______ _______ _______ _____ _____    ______ ____
ROOT
ATOM      1  C   UNL     1       2.268   7.491  18.354  0.00  0.00    +0.000 C 
ATOM      2  N   UNL     1       3.174   6.422  17.985  0.00  0.00    +0.000 N 
ATOM      3  C   UNL     1       4.482   6.590  17.597  0.00  0.00    +0.000 A 
ATOM      4  C   UNL     1       5.018   5.342  17.318  0.00  0.00    +0.000 A 
ATOM      5  C   UNL     1       3.969   4.388  17.540  0.00  0.00    +0.000 A 
ATOM      6  C   UNL     1       3.886   2.982  17.428  0.00  0.00    +0.000 A 
ATOM      7  C   UNL     1       2.695   2.325  17.754  0.00  0.00    +0.000 A 
ATOM      8  C   UNL     1       1.592   3.044  18.199  0.00  0.00    +0.000 A 
ATOM      9  C   UNL     1       1.643   4.435  18.318  0.00  0.00    +0.000 A 
ATOM     10  C   UNL     1       2.841   5.086  17.978  0.00  0.00    +0.000 A 
ENDROOT
BRANCH   4  11
ATOM     11  C   UNL     1       6.380   5.049  16.878  0.00  0.00    +0.000 C 
ATOM     12  O   UNL     1       7.108   4.281  17.503  0.00  0.00    +0.000 OA
BRANCH  11  13
ATOM     13  C   UNL     1       6.919   5.746  15.646  0.00  0.00    +0.000 C 
BRANCH  13  14
ATOM     14  N   UNL     1       6.727   4.987  14.388  0.00  0.00    +0.000 N 
ATOM     15  C   UNL     1       5.680   4.135  14.259  0.00  0.00    +0.000 A 
ATOM     16  C   UNL     1       5.498   3.404  13.088  0.00  0.00    +0.000 A 
ATOM     17  C   UNL     1       6.393   3.557  12.037  0.00  0.00    +0.000 A 
ATOM     18  C   UNL     1       7.462   4.430  12.183  0.00  0.00    +0.000 A 
ATOM     19  C   UNL     1       7.622   5.124  13.377  0.00  0.00    +0.000 A 
ENDBRANCH  13  14
ENDBRANCH  11  13
ENDBRANCH   4  11
TORSDOF 3
ENDMDL
MODEL 6
REMARK VINA RESULT:      -6.5      0.846      2.440
REMARK  Name = 
REMARK  4 active torsions:
REMARK  status: ('A' for Active; 'I' for Inactive)
REMARK    1  A    between atoms: C_1  and  N_2
REMARK    2  A    between atoms: C_4  and  C_5
REMARK    3  A    between atoms: C_5  and  C_7
REMARK    4  A    between atoms: C_7  and  N_8
REMARK                            x       y       z     vdW  Elec       q    Type
REMARK                         _______ _______ _______ _____ _____    ______ ____
ROOT
ATOM      1  C   UNL     1       7.710   5.596  18.814  0.00  0.00    +0.000 C 
ATOM      2  N   UNL     1       6.635   4.919  18.117  0.00  0.00    +0.000 N 
ATOM      3  C   UNL     1       5.538   4.347  18.716  0.00  0.00    +0.000 A 
ATOM      4  C   UNL     1       4.740   3.793  17.726  0.00  0.00    +0.000 A 
ATOM      5  C   UNL     1       5.405   4.041  16.479  0.00  0.00    +0.000 A 
ATOM      6  C   UNL     1       5.107   3.731  15.133  0.00  0.00    +0.000 A 
ATOM      7  C   UNL     1       5.968   4.148  14.113  0.00  0.00    +0.000 A 
ATOM      8  C   UNL     1       7.114   4.877  14.412  0.00  0.00    +0.000 A 
ATOM      9  C   UNL     1       7.435   5.197  15.733  0.00  0.00    +0.000 A 
ATOM     10  C   UNL     1       6.569   4.764  16.750  0.00  0.00    +0.000 A 
ENDROOT
BRANCH   4  11
ATOM     11  C   UNL     1       3.472   3.091  17.910  0.00  0.00    +0.000 C 
ATOM     12  O   UNL     1       3.430   1.882  18.128  0.00  0.00    +0.000 OA
BRANCH  11  13
ATOM     13  C   UNL     1       2.179   3.868  17.786  0.00  0.00    +0.000 C 
BRANCH  13  14
ATOM     14  N   UNL     1       2.131   5.102  18.608  0.00  0.00    +0.000 N 
ATOM     15  C   UNL     1       1.791   5.035  19.919  0.00  0.00    +0.000 A 
ATOM     16  C   UNL     1       1.727   6.188  20.696  0.00  0.00    +0.000 A 
ATOM     17  C   UNL     1       2.026   7.418  20.125  0.00  0.00    +0.000 A 
ATOM     18  C   UNL     1       2.369   7.474  18.782  0.00  0.00    +0.000 A 
ATOM     19  C   UNL     1       2.399   6.302  18.034  0.00  0.00    +0.000 A 
ENDBRANCH  13  14
ENDBRANCH  11  13
ENDBRANCH   4  11
TORSDOF 3
ENDMDL
MODEL 7
REMARK VINA RESULT:      -6.5      2.065      5.868
REMARK  Name = 
REMARK  4 active torsions:
REMARK  status: ('A' for Active; 'I' for Inactive)
REMARK    1  A    between atoms: C_1  and  N_2
REMARK    2  A    between atoms: C_4  and  C_5
REMARK    3  A    between atoms: C_5  and  C_7
REMARK    4  A    between atoms: C_7  and  N_8
REMARK                            x       y       z     vdW  Elec       q    Type
REMARK                         _______ _______ _______ _____ _____    ______ ____
ROOT
ATOM      1  C   UNL     1       3.424   1.543  18.574  0.00  0.00    +0.000 C 
ATOM      2  N   UNL     1       3.686   2.929  18.247  0.00  0.00    +0.000 N 
ATOM      3  C   UNL     1       4.532   3.364  17.255  0.00  0.00    +0.000 A 
ATOM      4  C   UNL     1       4.526   4.751  17.253  0.00  0.00    +0.000 A 
ATOM      5  C   UNL     1       3.640   5.157  18.307  0.00  0.00    +0.000 A 
ATOM      6  C   UNL     1       3.221   6.412  18.803  0.00  0.00    +0.000 A 
ATOM      7  C   UNL     1       2.299   6.475  19.853  0.00  0.00    +0.000 A 
ATOM      8  C   UNL     1       1.782   5.310  20.408  0.00  0.00    +0.000 A 
ATOM      9  C   UNL     1       2.179   4.055  19.940  0.00  0.00    +0.000 A 
ATOM     10  C   UNL     1       3.113   4.003  18.892  0.00  0.00    +0.000 A 
ENDROOT
BRANCH   4  11
ATOM     11  C   UNL     1       5.275   5.632  16.360  0.00  0.00    +0.000 C 
ATOM     12  O   UNL     1       4.796   6.682  15.938  0.00  0.00    +0.000 OA
BRANCH  11  13
ATOM     13  C   UNL     1       6.659   5.214  15.910  0.00  0.00    +0.000 C 
BRANCH  13  14
ATOM     14  N   UNL     1       6.737   4.803  14.488  0.00  0.00    +0.000 N 
ATOM     15  C   UNL     1       5.956   3.795  14.026  0.00  0.00    +0.000 A 
ATOM     16  C   UNL     1       6.032   3.389  12.697  0.00  0.00    +0.000 A 
ATOM     17  C   UNL     1       6.908   4.031  11.832  0.00  0.00    +0.000 A 
ATOM     18  C   UNL     1       7.705   5.059  12.317  0.00  0.00    +0.000 A 
ATOM     19  C   UNL     1       7.616   5.418  13.657  0.00  0.00    +0.000 A 
ENDBRANCH  13  14
ENDBRANCH  11  13
ENDBRANCH   4  11
TORSDOF 3
ENDMDL
MODEL 8
REMARK VINA RESULT:      -6.5      1.571      5.353
REMARK  Name = 
REMARK  4 active torsions:
REMARK  status: ('A' for Active; 'I' for Inactive)
REMARK    1  A    between atoms: C_1  and  N_2
REMARK    2  A    between atoms: C_4  and  C_5
REMARK    3  A    between atoms: C_5  and  C_7
REMARK    4  A    between atoms: C_7  and  N_8
REMARK                            x       y       z     vdW  Elec       q    Type
REMARK                         _______ _______ _______ _____ _____    ______ ____
ROOT
ATOM      1  C   UNL     1       1.935   7.582  19.985  0.00  0.00    +0.000 C 
ATOM      2  N   UNL     1       2.437   6.399  19.316  0.00  0.00    +0.000 N 
ATOM      3  C   UNL     1       3.326   6.398  18.268  0.00  0.00    +0.000 A 
ATOM      4  C   UNL     1       3.558   5.082  17.895  0.00  0.00    +0.000 A 
ATOM      5  C   UNL     1       2.756   4.265  18.759  0.00  0.00    +0.000 A 
ATOM      6  C   UNL     1       2.555   2.871  18.878  0.00  0.00    +0.000 A 
ATOM      7  C   UNL     1       1.705   2.370  19.869  0.00  0.00    +0.000 A 
ATOM      8  C   UNL     1       1.062   3.234  20.749  0.00  0.00    +0.000 A 
ATOM      9  C   UNL     1       1.240   4.616  20.655  0.00  0.00    +0.000 A 
ATOM     10  C   UNL     1       2.088   5.109  19.649  0.00  0.00    +0.000 A 
ENDROOT
BRANCH   4  11
ATOM     11  C   UNL     1       4.442   4.615  16.829  0.00  0.00    +0.000 C 
ATOM     12  O   UNL     1       4.456   3.438  16.472  0.00  0.00    +0.000 OA
BRANCH  11  13
ATOM     13  C   UNL     1       5.393   5.599  16.181  0.00  0.00    +0.000 C 
BRANCH  13  14
ATOM     14  N   UNL     1       6.419   6.145  17.100  0.00  0.00    +0.000 N 
ATOM     15  C   UNL     1       6.827   7.433  16.979  0.00  0.00    +0.000 A 
ATOM     16  C   UNL     1       7.802   7.952  17.825  0.00  0.00    +0.000 A 
ATOM     17  C   UNL     1       8.355   7.147  18.813  0.00  0.00    +0.000 A 
ATOM     18  C   UNL     1       7.932   5.830  18.924  0.00  0.00    +0.000 A 
ATOM     19  C   UNL     1       6.973   5.342  18.044  0.00  0.00    +0.000 A 
ENDBRANCH  13  14
ENDBRANCH  11  13
ENDBRANCH   4  11
TORSDOF 3
ENDMDL
MODEL 9
REMARK VINA RESULT:      -6.4      2.032      3.483
REMARK  Name = 
REMARK  4 active torsions:
REMARK  status: ('A' for Active; 'I' for Inactive)
REMARK    1  A    between atoms: C_1  and  N_2
REMARK    2  A    between atoms: C_4  and  C_5
REMARK    3  A    between atoms: C_5  and  C_7
REMARK    4  A    between atoms: C_7  and  N_8
REMARK                            x       y       z     vdW  Elec       q    Type
REMARK                         _______ _______ _______ _____ _____    ______ ____
ROOT
ATOM      1  C   UNL     1       7.788   5.488  19.406  0.00  0.00    +0.000 C 
ATOM      2  N   UNL     1       6.580   5.570  18.611  0.00  0.00    +0.000 N 
ATOM      3  C   UNL     1       5.359   6.006  19.065  0.00  0.00    +0.000 A 
ATOM      4  C   UNL     1       4.452   5.932  18.018  0.00  0.00    +0.000 A 
ATOM      5  C   UNL     1       5.171   5.414  16.890  0.00  0.00    +0.000 A 
ATOM      6  C   UNL     1       4.814   5.112  15.557  0.00  0.00    +0.000 A 
ATOM      7  C   UNL     1       5.780   4.633  14.667  0.00  0.00    +0.000 A 
ATOM      8  C   UNL     1       7.096   4.461  15.080  0.00  0.00    +0.000 A 
ATOM      9  C   UNL     1       7.479   4.751  16.392  0.00  0.00    +0.000 A 
ATOM     10  C   UNL     1       6.499   5.221  17.281  0.00  0.00    +0.000 A 
ENDROOT
BRANCH   4  11
ATOM     11  C   UNL     1       3.039   6.304  18.053  0.00  0.00    +0.000 C 
ATOM     12  O   UNL     1       2.682   7.472  18.189  0.00  0.00    +0.000 OA
BRANCH  11  13
ATOM     13  C   UNL     1       1.992   5.213  17.961  0.00  0.00    +0.000 C 
BRANCH  13  14
ATOM     14  N   UNL     1       1.950   4.313  19.138  0.00  0.00    +0.000 N 
ATOM     15  C   UNL     1       2.065   4.821  20.390  0.00  0.00    +0.000 A 
ATOM     16  C   UNL     1       2.044   3.985  21.501  0.00  0.00    +0.000 A 
ATOM     17  C   UNL     1       1.890   2.615  21.327  0.00  0.00    +0.000 A 
ATOM     18  C   UNL     1       1.777   2.107  20.041  0.00  0.00    +0.000 A 
ATOM     19  C   UNL     1       1.827   2.974  18.956  0.00  0.00    +0.000 A 
ENDBRANCH  13  14
ENDBRANCH  11  13
ENDBRANCH   4  11
TORSDOF 3
ENDMDL
