MODEL 1
REMARK VINA RESULT:      -8.3      0.000      0.000
REMARK  Name = 
REMARK  6 active torsions:
REMARK  status: ('A' for Active; 'I' for Inactive)
REMARK    1  A    between atoms: C_1  and  C_2
REMARK    2  A    between atoms: C_2  and  C_3
REMARK    3  A    between atoms: C_3  and  C_4
REMARK    4  A    between atoms: C_4  and  N_5
REMARK    5  A    between atoms: C_7  and  C_8
REMARK    6  A    between atoms: N_10  and  C_11
REMARK                            x       y       z     vdW  Elec       q    Type
REMARK                         _______ _______ _______ _____ _____    ______ ____
ROOT
ATOM      1  N   UNL     1       6.058   4.016  14.749  0.00  0.00    +0.000 N 
ATOM      2  N   UNL     1       5.066   3.383  15.468  0.00  0.00    +0.000 NA
ATOM      3  C   UNL     1       4.971   3.616  16.748  0.00  0.00    +0.000 A 
ATOM      4  C   UNL     1       5.888   4.515  17.482  0.00  0.00    +0.000 A 
ATOM      5  C   UNL     1       5.838   4.726  18.865  0.00  0.00    +0.000 A 
ATOM      6  C   UNL     1       6.688   5.658  19.470  0.00  0.00    +0.000 A 
ATOM      7  C   UNL     1       7.600   6.378  18.702  0.00  0.00    +0.000 A 
ATOM      8  C   UNL     1       7.688   6.138  17.333  0.00  0.00    +0.000 A 
ATOM      9  C   UNL     1       6.841   5.195  16.731  0.00  0.00    +0.000 A 
ATOM     10  C   UNL     1       6.981   4.905  15.294  0.00  0.00    +0.000 A 
ATOM     11  O   UNL     1       7.889   5.433  14.658  0.00  0.00    +0.000 OA
ENDROOT
BRANCH   3  12
ATOM     12  C   UNL     1       3.825   2.905  17.485  0.00  0.00    +0.000 C 
ATOM     13  O   UNL     1       3.797   1.687  17.564  0.00  0.00    +0.000 OA
ATOM     14  N   UNL     1       2.884   3.749  18.033  0.00  0.00    +0.000 N 
ATOM     15  H   UNL     1       3.161   4.725  18.114  0.00  0.00    +0.000 HD
BRANCH  14  16
ATOM     16  C   UNL     1       1.742   3.244  18.788  0.00  0.00    +0.000 C 
ATOM     17  C   UNL     1       2.131   2.117  19.755  0.00  0.00    +0.000 C 
ATOM     18  C   UNL     1       2.928   2.623  20.958  0.00  0.00    +0.000 C 
ATOM     19  C   UNL     1       2.226   3.773  21.675  0.00  0.00    +0.000 C 
ATOM     20  C   UNL     1       1.837   4.897  20.720  0.00  0.00    +0.000 C 
ATOM     21  C   UNL     1       1.026   4.375  19.536  0.00  0.00    +0.000 C 
ENDBRANCH  14  16
ENDBRANCH   3  12
BRANCH   1  22
ATOM     22  C   UNL     1       6.146   3.691  13.328  0.00  0.00    +0.000 C 
BRANCH  22  23
ATOM     23  C   UNL     1       4.853   3.999  12.567  0.00  0.00    +0.000 C 
BRANCH  23  25
ATOM     24  C   UNL     1       3.438   3.438  10.559  0.00  0.00    +0.000 C 
ATOM     25  C   UNL     1       4.540   2.960  11.489  0.00  0.00    +0.000 C 
ENDBRANCH  23  25
ENDBRANCH  22  23
ENDBRANCH   1  22
TORSDOF 5
ENDMDL
MODEL 2
REMARK VINA RESULT:      -7.5      4.069      6.414
REMARK  Name = 
REMARK  6 active torsions:
REMARK  status: ('A' for Active; 'I' for Inactive)
REMARK    1  A    between atoms: C_1  and  C_2
REMARK    2  A    between atoms: C_2  and  C_3
REMARK    3  A    between atoms: C_3  and  C_4
REMARK    4  A    between atoms: C_4  and  N_5
REMARK    5  A    between atoms: C_7  and  C_8
REMARK    6  A    between atoms: N_10  and  C_11
REMARK                            x       y       z     vdW  Elec       q    Type
REMARK                         _______ _______ _______ _____ _____    ______ ____
ROOT
ATOM      1  N   UNL     1       3.926   6.209  17.571  0.00  0.00    +0.000 N 
ATOM      2  N   UNL     1       3.302   7.105  18.415  0.00  0.00    +0.000 NA
ATOM      3  C   UNL     1       2.456   6.652  19.298  0.00  0.00    +0.000 A 
ATOM      4  C   UNL     1       2.111   5.220  19.435  0.00  0.00    +0.000 A 
ATOM      5  C   UNL     1       1.158   4.726  20.335  0.00  0.00    +0.000 A 
ATOM      6  C   UNL     1       0.953   3.348  20.462  0.00  0.00    +0.000 A 
ATOM      7  C   UNL     1       1.687   2.454  19.686  0.00  0.00    +0.000 A 
ATOM      8  C   UNL     1       2.601   2.941  18.753  0.00  0.00    +0.000 A 
ATOM      9  C   UNL     1       2.798   4.324  18.622  0.00  0.00    +0.000 A 
ATOM     10  C   UNL     1       3.721   4.832  17.595  0.00  0.00    +0.000 A 
ATOM     11  O   UNL     1       4.248   4.043  16.814  0.00  0.00    +0.000 OA
ENDROOT
BRANCH   3  12
ATOM     12  C   UNL     1       1.819   7.697  20.227  0.00  0.00    +0.000 C 
ATOM     13  O   UNL     1       1.732   7.491  21.427  0.00  0.00    +0.000 OA
ATOM     14  N   UNL     1       1.387   8.841  19.593  0.00  0.00    +0.000 N 
ATOM     15  H   UNL     1       1.748   8.987  18.652  0.00  0.00    +0.000 HD
BRANCH  14  16
ATOM     16  C   UNL     1       0.781   9.947  20.327  0.00  0.00    +0.000 C 
ATOM     17  C   UNL     1       1.352  11.309  19.911  0.00  0.00    +0.000 C 
ATOM     18  C   UNL     1       0.885  11.744  18.521  0.00  0.00    +0.000 C 
ATOM     19  C   UNL     1      -0.634  11.695  18.380  0.00  0.00    +0.000 C 
ATOM     20  C   UNL     1      -1.208  10.343  18.791  0.00  0.00    +0.000 C 
ATOM     21  C   UNL     1      -0.746   9.936  20.189  0.00  0.00    +0.000 C 
ENDBRANCH  14  16
ENDBRANCH   3  12
BRANCH   1  22
ATOM     22  C   UNL     1       4.834   6.772  16.575  0.00  0.00    +0.000 C 
BRANCH  22  23
ATOM     23  C   UNL     1       6.170   7.221  17.175  0.00  0.00    +0.000 C 
BRANCH  23  25
ATOM     24  C   UNL     1       7.560   5.660  18.583  0.00  0.00    +0.000 C 
ATOM     25  C   UNL     1       7.222   6.110  17.171  0.00  0.00    +0.000 C 
ENDBRANCH  23  25
ENDBRANCH  22  23
ENDBRANCH   1  22
TORSDOF 5
ENDMDL
MODEL 3
REMARK VINA RESULT:      -7.4      1.455      6.434
REMARK  Name = 
REMARK  6 active torsions:
REMARK  status: ('A' for Active; 'I' for Inactive)
REMARK    1  A    between atoms: C_1  and  C_2
REMARK    2  A    between atoms: C_2  and  C_3
REMARK    3  A    between atoms: C_3  and  C_4
REMARK    4  A    between atoms: C_4  and  N_5
REMARK    5  A    between atoms: C_7  and  C_8
REMARK    6  A    between atoms: N_10  and  C_11
REMARK                            x       y       z     vdW  Elec       q    Type
REMARK                         _______ _______ _______ _____ _____    ______ ____
ROOT
ATOM      1  N   UNL     1       4.246   3.169  17.694  0.00  0.00    +0.000 N 
ATOM      2  N   UNL     1       4.382   3.627  16.400  0.00  0.00    +0.000 NA
ATOM      3  C   UNL     1       5.262   4.558  16.152  0.00  0.00    +0.000 A 
ATOM      4  C   UNL     1       6.117   5.168  17.192  0.00  0.00    +0.000 A 
ATOM      5  C   UNL     1       7.021   6.210  16.953  0.00  0.00    +0.000 A 
ATOM      6  C   UNL     1       7.855   6.673  17.976  0.00  0.00    +0.000 A 
ATOM      7  C   UNL     1       7.787   6.107  19.247  0.00  0.00    +0.000 A 
ATOM      8  C   UNL     1       6.856   5.103  19.505  0.00  0.00    +0.000 A 
ATOM      9  C   UNL     1       6.014   4.648  18.479  0.00  0.00    +0.000 A 
ATOM     10  C   UNL     1       4.994   3.629  18.775  0.00  0.00    +0.000 A 
ATOM     11  O   UNL     1       4.840   3.248  19.932  0.00  0.00    +0.000 OA
ENDROOT
BRANCH   3  12
ATOM     12  C   UNL     1       5.386   5.002  14.686  0.00  0.00    +0.000 C 
ATOM     13  O   UNL     1       5.399   6.187  14.394  0.00  0.00    +0.000 OA
ATOM     14  N   UNL     1       5.489   3.969  13.780  0.00  0.00    +0.000 N 
ATOM     15  H   UNL     1       5.722   3.059  14.173  0.00  0.00    +0.000 HD
BRANCH  14  16
ATOM     16  C   UNL     1       5.639   4.211  12.349  0.00  0.00    +0.000 C 
ATOM     17  C   UNL     1       7.098   4.098  11.885  0.00  0.00    +0.000 C 
ATOM     18  C   UNL     1       7.601   2.654  11.873  0.00  0.00    +0.000 C 
ATOM     19  C   UNL     1       6.678   1.726  11.086  0.00  0.00    +0.000 C 
ATOM     20  C   UNL     1       5.227   1.834  11.543  0.00  0.00    +0.000 C 
ATOM     21  C   UNL     1       4.738   3.280  11.529  0.00  0.00    +0.000 C 
ENDBRANCH  14  16
ENDBRANCH   3  12
BRANCH   1  22
ATOM     22  C   UNL     1       3.220   2.156  17.925  0.00  0.00    +0.000 C 
BRANCH  22  23
ATOM     23  C   UNL     1       1.827   2.759  18.135  0.00  0.00    +0.000 C 
BRANCH  23  25
ATOM     24  C   UNL     1       1.083   3.823  20.294  0.00  0.00    +0.000 C 
ATOM     25  C   UNL     1       1.286   2.517  19.545  0.00  0.00    +0.000 C 
ENDBRANCH  23  25
ENDBRANCH  22  23
ENDBRANCH   1  22
TORSDOF 5
ENDMDL
MODEL 4
REMARK VINA RESULT:      -7.4      0.835      1.080
REMARK  Name = 
REMARK  6 active torsions:
REMARK  status: ('A' for Active; 'I' for Inactive)
REMARK    1  A    between atoms: C_1  and  C_2
REMARK    2  A    between atoms: C_2  and  C_3
REMARK    3  A    between atoms: C_3  and  C_4
REMARK    4  A    between atoms: C_4  and  N_5
REMARK    5  A    between atoms: C_7  and  C_8
REMARK    6  A    between atoms: N_10  and  C_11
REMARK                            x       y       z     vdW  Elec       q    Type
REMARK                         _______ _______ _______ _____ _____    ______ ____
ROOT
ATOM      1  N   UNL     1       5.893   4.178  14.603  0.00  0.00    +0.000 N 
ATOM      2  N   UNL     1       4.768   3.670  15.219  0.00  0.00    +0.000 NA
ATOM      3  C   UNL     1       4.607   3.869  16.498  0.00  0.00    +0.000 A 
ATOM      4  C   UNL     1       5.582   4.600  17.337  0.00  0.00    +0.000 A 
ATOM      5  C   UNL     1       5.454   4.767  18.721  0.00  0.00    +0.000 A 
ATOM      6  C   UNL     1       6.377   5.546  19.428  0.00  0.00    +0.000 A 
ATOM      7  C   UNL     1       7.438   6.154  18.762  0.00  0.00    +0.000 A 
ATOM      8  C   UNL     1       7.599   5.952  17.392  0.00  0.00    +0.000 A 
ATOM      9  C   UNL     1       6.677   5.163  16.688  0.00  0.00    +0.000 A 
ATOM     10  C   UNL     1       6.887   4.905  15.254  0.00  0.00    +0.000 A 
ATOM     11  O   UNL     1       7.907   5.320  14.710  0.00  0.00    +0.000 OA
ENDROOT
BRANCH   3  12
ATOM     12  C   UNL     1       3.319   3.305  17.117  0.00  0.00    +0.000 C 
ATOM     13  O   UNL     1       2.257   3.382  16.521  0.00  0.00    +0.000 OA
ATOM     14  N   UNL     1       3.485   2.719  18.353  0.00  0.00    +0.000 N 
ATOM     15  H   UNL     1       4.445   2.497  18.610  0.00  0.00    +0.000 HD
BRANCH  14  16
ATOM     16  C   UNL     1       2.372   2.110  19.073  0.00  0.00    +0.000 C 
ATOM     17  C   UNL     1       2.712   1.821  20.541  0.00  0.00    +0.000 C 
ATOM     18  C   UNL     1       2.796   3.092  21.388  0.00  0.00    +0.000 C 
ATOM     19  C   UNL     1       1.547   3.960  21.252  0.00  0.00    +0.000 C 
ATOM     20  C   UNL     1       1.204   4.252  19.794  0.00  0.00    +0.000 C 
ATOM     21  C   UNL     1       1.106   2.969  18.971  0.00  0.00    +0.000 C 
ENDBRANCH  14  16
ENDBRANCH   3  12
BRANCH   1  22
ATOM     22  C   UNL     1       6.045   3.894  13.179  0.00  0.00    +0.000 C 
BRANCH  22  23
ATOM     23  C   UNL     1       4.709   3.620  12.482  0.00  0.00    +0.000 C 
BRANCH  23  25
ATOM     24  C   UNL     1       5.955   1.701  11.427  0.00  0.00    +0.000 C 
ATOM     25  C   UNL     1       4.860   2.738  11.242  0.00  0.00    +0.000 C 
ENDBRANCH  23  25
ENDBRANCH  22  23
ENDBRANCH   1  22
TORSDOF 5
ENDMDL
MODEL 5
REMARK VINA RESULT:      -7.3      3.311      5.900
REMARK  Name = 
REMARK  6 active torsions:
REMARK  status: ('A' for Active; 'I' for Inactive)
REMARK    1  A    between atoms: C_1  and  C_2
REMARK    2  A    between atoms: C_2  and  C_3
REMARK    3  A    between atoms: C_3  and  C_4
REMARK    4  A    between atoms: C_4  and  N_5
REMARK    5  A    between atoms: C_7  and  C_8
REMARK    6  A    between atoms: N_10  and  C_11
REMARK                            x       y       z     vdW  Elec       q    Type
REMARK                         _______ _______ _______ _____ _____    ______ ____
ROOT
ATOM      1  N   UNL     1       2.359   4.156  18.146  0.00  0.00    +0.000 N 
ATOM      2  N   UNL     1       1.956   5.460  18.344  0.00  0.00    +0.000 NA
ATOM      3  C   UNL     1       2.808   6.422  18.125  0.00  0.00    +0.000 A 
ATOM      4  C   UNL     1       4.203   6.191  17.689  0.00  0.00    +0.000 A 
ATOM      5  C   UNL     1       5.147   7.209  17.511  0.00  0.00    +0.000 A 
ATOM      6  C   UNL     1       6.421   6.913  17.014  0.00  0.00    +0.000 A 
ATOM      7  C   UNL     1       6.766   5.600  16.702  0.00  0.00    +0.000 A 
ATOM      8  C   UNL     1       5.847   4.576  16.924  0.00  0.00    +0.000 A 
ATOM      9  C   UNL     1       4.574   4.875  17.431  0.00  0.00    +0.000 A 
ATOM     10  C   UNL     1       3.631   3.781  17.717  0.00  0.00    +0.000 A 
ATOM     11  O   UNL     1       3.998   2.617  17.583  0.00  0.00    +0.000 OA
ENDROOT
BRANCH   3  12
ATOM     12  C   UNL     1       2.287   7.853  18.334  0.00  0.00    +0.000 C 
ATOM     13  O   UNL     1       2.340   8.672  17.431  0.00  0.00    +0.000 OA
ATOM     14  N   UNL     1       1.767   8.097  19.586  0.00  0.00    +0.000 N 
ATOM     15  H   UNL     1       1.552   7.272  20.143  0.00  0.00    +0.000 HD
BRANCH  14  16
ATOM     16  C   UNL     1       1.206   9.394  19.948  0.00  0.00    +0.000 C 
ATOM     17  C   UNL     1      -0.321   9.351  20.099  0.00  0.00    +0.000 C 
ATOM     18  C   UNL     1      -0.767   8.608  21.359  0.00  0.00    +0.000 C 
ATOM     19  C   UNL     1      -0.084   9.141  22.616  0.00  0.00    +0.000 C 
ATOM     20  C   UNL     1       1.434   9.186  22.473  0.00  0.00    +0.000 C 
ATOM     21  C   UNL     1       1.859   9.948  21.220  0.00  0.00    +0.000 C 
ENDBRANCH  14  16
ENDBRANCH   3  12
BRANCH   1  22
ATOM     22  C   UNL     1       1.380   3.115  18.444  0.00  0.00    +0.000 C 
BRANCH  22  23
ATOM     23  C   UNL     1       0.655   3.344  19.774  0.00  0.00    +0.000 C 
BRANCH  23  25
ATOM     24  C   UNL     1       2.251   3.618  21.704  0.00  0.00    +0.000 C 
ATOM     25  C   UNL     1       1.349   2.655  20.950  0.00  0.00    +0.000 C 
ENDBRANCH  23  25
ENDBRANCH  22  23
ENDBRANCH   1  22
TORSDOF 5
ENDMDL
MODEL 6
REMARK VINA RESULT:      -7.2      6.015      8.340
REMARK  Name = 
REMARK  6 active torsions:
REMARK  status: ('A' for Active; 'I' for Inactive)
REMARK    1  A    between atoms: C_1  and  C_2
REMARK    2  A    between atoms: C_2  and  C_3
REMARK    3  A    between atoms: C_3  and  C_4
REMARK    4  A    between atoms: C_4  and  N_5
REMARK    5  A    between atoms: C_7  and  C_8
REMARK    6  A    between atoms: N_10  and  C_11
REMARK                            x       y       z     vdW  Elec       q    Type
REMARK                         _______ _______ _______ _____ _____    ______ ____
ROOT
ATOM      1  N   UNL     1      -0.837  10.829  18.544  0.00  0.00    +0.000 N 
ATOM      2  N   UNL     1       0.187   9.947  18.270  0.00  0.00    +0.000 NA
ATOM      3  C   UNL     1       0.806   9.373  19.264  0.00  0.00    +0.000 A 
ATOM      4  C   UNL     1       0.482   9.632  20.684  0.00  0.00    +0.000 A 
ATOM      5  C   UNL     1       1.178   9.073  21.762  0.00  0.00    +0.000 A 
ATOM      6  C   UNL     1       0.753   9.302  23.075  0.00  0.00    +0.000 A 
ATOM      7  C   UNL     1      -0.363  10.099  23.322  0.00  0.00    +0.000 A 
ATOM      8  C   UNL     1      -1.031  10.698  22.257  0.00  0.00    +0.000 A 
ATOM      9  C   UNL     1      -0.596  10.474  20.942  0.00  0.00    +0.000 A 
ATOM     10  C   UNL     1      -1.271  11.158  19.827  0.00  0.00    +0.000 A 
ATOM     11  O   UNL     1      -2.155  11.976  20.067  0.00  0.00    +0.000 OA
ENDROOT
BRANCH   3  12
ATOM     12  C   UNL     1       1.915   8.377  18.891  0.00  0.00    +0.000 C 
ATOM     13  O   UNL     1       2.782   8.684  18.088  0.00  0.00    +0.000 OA
ATOM     14  N   UNL     1       1.838   7.163  19.537  0.00  0.00    +0.000 N 
ATOM     15  H   UNL     1       1.231   7.136  20.355  0.00  0.00    +0.000 HD
BRANCH  14  16
ATOM     16  C   UNL     1       2.824   6.110  19.320  0.00  0.00    +0.000 C 
ATOM     17  C   UNL     1       2.747   5.006  20.384  0.00  0.00    +0.000 C 
ATOM     18  C   UNL     1       1.508   4.123  20.227  0.00  0.00    +0.000 C 
ATOM     19  C   UNL     1       1.372   3.563  18.813  0.00  0.00    +0.000 C 
ATOM     20  C   UNL     1       1.448   4.655  17.750  0.00  0.00    +0.000 C 
ATOM     21  C   UNL     1       2.701   5.513  17.913  0.00  0.00    +0.000 C 
ENDBRANCH  14  16
ENDBRANCH   3  12
BRANCH   1  22
ATOM     22  C   UNL     1      -1.470  11.474  17.398  0.00  0.00    +0.000 C 
BRANCH  22  23
ATOM     23  C   UNL     1      -2.816  10.842  17.030  0.00  0.00    +0.000 C 
BRANCH  23  25
ATOM     24  C   UNL     1      -3.040  10.187  14.607  0.00  0.00    +0.000 C 
ATOM     25  C   UNL     1      -2.679   9.715  16.006  0.00  0.00    +0.000 C 
ENDBRANCH  23  25
ENDBRANCH  22  23
ENDBRANCH   1  22
TORSDOF 5
ENDMDL
MODEL 7
REMARK VINA RESULT:      -7.2      3.410      5.964
REMARK  Name = 
REMARK  6 active torsions:
REMARK  status: ('A' for Active; 'I' for Inactive)
REMARK    1  A    between atoms: C_1  and  C_2
REMARK    2  A    between atoms: C_2  and  C_3
REMARK    3  A    between atoms: C_3  and  C_4
REMARK    4  A    between atoms: C_4  and  N_5
REMARK    5  A    between atoms: C_7  and  C_8
REMARK    6  A    between atoms: N_10  and  C_11
REMARK                            x       y       z     vdW  Elec       q    Type
REMARK                         _______ _______ _______ _____ _____    ______ ____
ROOT
ATOM      1  N   UNL     1       5.139   5.337  18.340  0.00  0.00    +0.000 N 
ATOM      2  N   UNL     1       4.291   6.423  18.288  0.00  0.00    +0.000 NA
ATOM      3  C   UNL     1       3.120   6.335  18.854  0.00  0.00    +0.000 A 
ATOM      4  C   UNL     1       2.637   5.118  19.541  0.00  0.00    +0.000 A 
ATOM      5  C   UNL     1       1.360   4.986  20.099  0.00  0.00    +0.000 A 
ATOM      6  C   UNL     1       1.012   3.830  20.807  0.00  0.00    +0.000 A 
ATOM      7  C   UNL     1       1.931   2.795  20.955  0.00  0.00    +0.000 A 
ATOM      8  C   UNL     1       3.187   2.898  20.360  0.00  0.00    +0.000 A 
ATOM      9  C   UNL     1       3.529   4.054  19.643  0.00  0.00    +0.000 A 
ATOM     10  C   UNL     1       4.836   4.131  18.969  0.00  0.00    +0.000 A 
ATOM     11  O   UNL     1       5.577   3.152  18.977  0.00  0.00    +0.000 OA
ENDROOT
BRANCH   3  12
ATOM     12  C   UNL     1       2.236   7.590  18.787  0.00  0.00    +0.000 C 
ATOM     13  O   UNL     1       1.884   8.047  17.711  0.00  0.00    +0.000 OA
ATOM     14  N   UNL     1       1.888   8.114  20.013  0.00  0.00    +0.000 N 
ATOM     15  H   UNL     1       2.030   7.498  20.812  0.00  0.00    +0.000 HD
BRANCH  14  16
ATOM     16  C   UNL     1       1.033   9.289  20.135  0.00  0.00    +0.000 C 
ATOM     17  C   UNL     1      -0.440   8.922  20.366  0.00  0.00    +0.000 C 
ATOM     18  C   UNL     1      -0.695   8.372  21.770  0.00  0.00    +0.000 C 
ATOM     19  C   UNL     1      -0.160   9.297  22.860  0.00  0.00    +0.000 C 
ATOM     20  C   UNL     1       1.303   9.666  22.636  0.00  0.00    +0.000 C 
ATOM     21  C   UNL     1       1.534  10.231  21.236  0.00  0.00    +0.000 C 
ENDBRANCH  14  16
ENDBRANCH   3  12
BRANCH   1  22
ATOM     22  C   UNL     1       6.422   5.473  17.657  0.00  0.00    +0.000 C 
BRANCH  22  23
ATOM     23  C   UNL     1       6.747   6.924  17.288  0.00  0.00    +0.000 C 
BRANCH  23  25
ATOM     24  C   UNL     1       8.076   8.969  17.923  0.00  0.00    +0.000 C 
ATOM     25  C   UNL     1       7.985   7.455  18.014  0.00  0.00    +0.000 C 
ENDBRANCH  23  25
ENDBRANCH  22  23
ENDBRANCH   1  22
TORSDOF 5
ENDMDL
MODEL 8
REMARK VINA RESULT:      -7.1      3.513      6.297
REMARK  Name = 
REMARK  6 active torsions:
REMARK  status: ('A' for Active; 'I' for Inactive)
REMARK    1  A    between atoms: C_1  and  C_2
REMARK    2  A    between atoms: C_2  and  C_3
REMARK    3  A    between atoms: C_3  and  C_4
REMARK    4  A    between atoms: C_4  and  N_5
REMARK    5  A    between atoms: C_7  and  C_8
REMARK    6  A    between atoms: N_10  and  C_11
REMARK                            x       y       z     vdW  Elec       q    Type
REMARK                         _______ _______ _______ _____ _____    ______ ____
ROOT
ATOM      1  N   UNL     1       2.077   4.216  18.382  0.00  0.00    +0.000 N 
ATOM      2  N   UNL     1       1.983   5.590  18.458  0.00  0.00    +0.000 NA
ATOM      3  C   UNL     1       2.920   6.315  17.913  0.00  0.00    +0.000 A 
ATOM      4  C   UNL     1       4.099   5.742  17.227  0.00  0.00    +0.000 A 
ATOM      5  C   UNL     1       5.143   6.506  16.693  0.00  0.00    +0.000 A 
ATOM      6  C   UNL     1       6.180   5.889  15.984  0.00  0.00    +0.000 A 
ATOM      7  C   UNL     1       6.188   4.508  15.813  0.00  0.00    +0.000 A 
ATOM      8  C   UNL     1       5.178   3.737  16.383  0.00  0.00    +0.000 A 
ATOM      9  C   UNL     1       4.145   4.357  17.102  0.00  0.00    +0.000 A 
ATOM     10  C   UNL     1       3.114   3.531  17.751  0.00  0.00    +0.000 A 
ATOM     11  O   UNL     1       3.214   2.307  17.722  0.00  0.00    +0.000 OA
ENDROOT
BRANCH   3  12
ATOM     12  C   UNL     1       2.741   7.839  18.005  0.00  0.00    +0.000 C 
ATOM     13  O   UNL     1       3.185   8.572  17.136  0.00  0.00    +0.000 OA
ATOM     14  N   UNL     1       2.045   8.269  19.114  0.00  0.00    +0.000 N 
ATOM     15  H   UNL     1       1.519   7.551  19.610  0.00  0.00    +0.000 HD
BRANCH  14  16
ATOM     16  C   UNL     1       1.762   9.681  19.347  0.00  0.00    +0.000 C 
ATOM     17  C   UNL     1       1.021  10.332  18.171  0.00  0.00    +0.000 C 
ATOM     18  C   UNL     1      -0.434   9.875  18.067  0.00  0.00    +0.000 C 
ATOM     19  C   UNL     1      -1.190  10.047  19.383  0.00  0.00    +0.000 C 
ATOM     20  C   UNL     1      -0.459   9.402  20.556  0.00  0.00    +0.000 C 
ATOM     21  C   UNL     1       0.987   9.885  20.654  0.00  0.00    +0.000 C 
ENDBRANCH  14  16
ENDBRANCH   3  12
BRANCH   1  22
ATOM     22  C   UNL     1       1.024   3.450  19.042  0.00  0.00    +0.000 C 
BRANCH  22  23
ATOM     23  C   UNL     1       0.855   3.822  20.518  0.00  0.00    +0.000 C 
BRANCH  23  25
ATOM     24  C   UNL     1       2.860   2.602  21.435  0.00  0.00    +0.000 C 
ATOM     25  C   UNL     1       1.345   2.724  21.464  0.00  0.00    +0.000 C 
ENDBRANCH  23  25
ENDBRANCH  22  23
ENDBRANCH   1  22
TORSDOF 5
ENDMDL
MODEL 9
REMARK VINA RESULT:      -7.1      4.115      6.507
REMARK  Name = 
REMARK  6 active torsions:
REMARK  status: ('A' for Active; 'I' for Inactive)
REMARK    1  A    between atoms: C_1  and  C_2
REMARK    2  A    between atoms: C_2  and  C_3
REMARK    3  A    between atoms: C_3  and  C_4
REMARK    4  A    between atoms: C_4  and  N_5
REMARK    5  A    between atoms: C_7  and  C_8
REMARK    6  A    between atoms: N_10  and  C_11
REMARK                            x       y       z     vdW  Elec       q    Type
REMARK                         _______ _______ _______ _____ _____    ______ ____
ROOT
ATOM      1  N   UNL     1       2.828   5.272  20.014  0.00  0.00    +0.000 N 
ATOM      2  N   UNL     1       2.311   6.481  19.598  0.00  0.00    +0.000 NA
ATOM      3  C   UNL     1       2.795   7.034  18.520  0.00  0.00    +0.000 A 
ATOM      4  C   UNL     1       3.890   6.441  17.722  0.00  0.00    +0.000 A 
ATOM      5  C   UNL     1       4.462   7.053  16.599  0.00  0.00    +0.000 A 
ATOM      6  C   UNL     1       5.436   6.385  15.850  0.00  0.00    +0.000 A 
ATOM      7  C   UNL     1       5.854   5.109  16.219  0.00  0.00    +0.000 A 
ATOM      8  C   UNL     1       5.325   4.515  17.362  0.00  0.00    +0.000 A 
ATOM      9  C   UNL     1       4.355   5.191  18.118  0.00  0.00    +0.000 A 
ATOM     10  C   UNL     1       3.844   4.582  19.357  0.00  0.00    +0.000 A 
ATOM     11  O   UNL     1       4.330   3.526  19.755  0.00  0.00    +0.000 OA
ENDROOT
BRANCH   3  12
ATOM     12  C   UNL     1       2.154   8.364  18.092  0.00  0.00    +0.000 C 
ATOM     13  O   UNL     1       2.421   8.864  17.011  0.00  0.00    +0.000 OA
ATOM     14  N   UNL     1       1.278   8.901  19.010  0.00  0.00    +0.000 N 
ATOM     15  H   UNL     1       0.958   8.264  19.738  0.00  0.00    +0.000 HD
BRANCH  14  16
ATOM     16  C   UNL     1       0.562  10.146  18.756  0.00  0.00    +0.000 C 
ATOM     17  C   UNL     1      -0.825  10.169  19.413  0.00  0.00    +0.000 C 
ATOM     18  C   UNL     1      -0.754  10.314  20.934  0.00  0.00    +0.000 C 
ATOM     19  C   UNL     1       0.100  11.505  21.362  0.00  0.00    +0.000 C 
ATOM     20  C   UNL     1       1.481  11.488  20.713  0.00  0.00    +0.000 C 
ATOM     21  C   UNL     1       1.388  11.362  19.194  0.00  0.00    +0.000 C 
ENDBRANCH  14  16
ENDBRANCH   3  12
BRANCH   1  22
ATOM     22  C   UNL     1       2.280   4.715  21.247  0.00  0.00    +0.000 C 
BRANCH  22  23
ATOM     23  C   UNL     1       1.486   3.426  21.016  0.00  0.00    +0.000 C 
BRANCH  23  25
ATOM     24  C   UNL     1       0.893   2.348  18.817  0.00  0.00    +0.000 C 
ATOM     25  C   UNL     1       0.599   3.494  19.771  0.00  0.00    +0.000 C 
ENDBRANCH  23  25
ENDBRANCH  22  23
ENDBRANCH   1  22
TORSDOF 5
ENDMDL
