MODEL 1
REMARK VINA RESULT:      -6.0      0.000      0.000
REMARK  Name = 
REMARK  4 active torsions:
REMARK  status: ('A' for Active; 'I' for Inactive)
REMARK    1  A    between atoms: N_1  and  C_2
REMARK    2  A    between atoms: C_4  and  N_5
REMARK    3  A    between atoms: C_10  and  C_11
REMARK    4  A    between atoms: C_11  and  O_13
REMARK                            x       y       z     vdW  Elec       q    Type
REMARK                         _______ _______ _______ _____ _____    ______ ____
ROOT
ATOM      1  C   UNL     1       4.020   5.139  18.881  0.00  0.00    +0.000 A 
ATOM      2  C   UNL     1       5.333   5.414  18.471  0.00  0.00    +0.000 A 
ATOM      3  C   UNL     1       5.855   4.811  17.315  0.00  0.00    +0.000 A 
ATOM      4  C   UNL     1       5.063   3.968  16.529  0.00  0.00    +0.000 A 
ATOM      5  C   UNL     1       3.740   3.730  16.905  0.00  0.00    +0.000 A 
ATOM      6  C   UNL     1       3.210   4.322  18.063  0.00  0.00    +0.000 A 
ENDROOT
BRANCH   1   7
ATOM      7  N   UNL     1       3.507   5.801  20.020  0.00  0.00    +0.000 N 
ATOM      8  H   UNL     1       3.480   5.208  20.852  0.00  0.00    +0.000 HD
ATOM      9  H   UNL     1       2.566   6.174  19.854  0.00  0.00    +0.000 HD
ENDBRANCH   1   7
BRANCH   3  10
ATOM     10  N   UNL     1       7.252   5.061  16.934  0.00  0.00    +0.000 N 
ATOM     11  O   UNL     1       7.495   6.091  16.291  0.00  0.00    +0.000 OA
ATOM     12  O   UNL     1       8.101   4.231  17.286  0.00  0.00    +0.000 OA
ENDBRANCH   3  10
BRANCH   6  13
ATOM     13  C   UNL     1       1.779   4.044  18.360  0.00  0.00    +0.000 C 
ATOM     14  O   UNL     1       1.372   3.786  19.479  0.00  0.00    +0.000 OA
BRANCH  13  15
ATOM     15  O   UNL     1       0.987   4.056  17.265  0.00  0.00    +0.000 OA
ATOM     16  H   UNL     1       1.502   4.088  16.427  0.00  0.00    +0.000 HD
ENDBRANCH  13  15
ENDBRANCH   6  13
TORSDOF 4
ENDMDL
MODEL 2
REMARK VINA RESULT:      -5.9      2.646      3.229
REMARK  Name = 
REMARK  4 active torsions:
REMARK  status: ('A' for Active; 'I' for Inactive)
REMARK    1  A    between atoms: N_1  and  C_2
REMARK    2  A    between atoms: C_4  and  N_5
REMARK    3  A    between atoms: C_10  and  C_11
REMARK    4  A    between atoms: C_11  and  O_13
REMARK                            x       y       z     vdW  Elec       q    Type
REMARK                         _______ _______ _______ _____ _____    ______ ____
ROOT
ATOM      1  C   UNL     1       6.905   4.585  17.602  0.00  0.00    +0.000 A 
ATOM      2  C   UNL     1       7.411   4.815  16.313  0.00  0.00    +0.000 A 
ATOM      3  C   UNL     1       6.586   4.650  15.188  0.00  0.00    +0.000 A 
ATOM      4  C   UNL     1       5.239   4.303  15.335  0.00  0.00    +0.000 A 
ATOM      5  C   UNL     1       4.717   4.121  16.617  0.00  0.00    +0.000 A 
ATOM      6  C   UNL     1       5.535   4.276  17.748  0.00  0.00    +0.000 A 
ENDROOT
BRANCH   1   7
ATOM      7  N   UNL     1       7.746   4.808  18.716  0.00  0.00    +0.000 N 
ATOM      8  H   UNL     1       7.437   4.320  19.558  0.00  0.00    +0.000 HD
ATOM      9  H   UNL     1       7.836   5.808  18.932  0.00  0.00    +0.000 HD
ENDBRANCH   1   7
BRANCH   3  10
ATOM     10  N   UNL     1       7.147   4.834  13.844  0.00  0.00    +0.000 N 
ATOM     11  O   UNL     1       8.053   5.669  13.710  0.00  0.00    +0.000 OA
ATOM     12  O   UNL     1       6.687   4.139  12.928  0.00  0.00    +0.000 OA
ENDBRANCH   3  10
BRANCH   6  13
ATOM     13  C   UNL     1       4.881   4.103  19.073  0.00  0.00    +0.000 C 
ATOM     14  O   UNL     1       4.155   4.947  19.569  0.00  0.00    +0.000 OA
BRANCH  13  15
ATOM     15  O   UNL     1       5.209   2.947  19.692  0.00  0.00    +0.000 OA
ATOM     16  H   UNL     1       4.656   2.189  19.393  0.00  0.00    +0.000 HD
ENDBRANCH  13  15
ENDBRANCH   6  13
TORSDOF 4
ENDMDL
MODEL 3
REMARK VINA RESULT:      -5.9      1.292      4.854
REMARK  Name = 
REMARK  4 active torsions:
REMARK  status: ('A' for Active; 'I' for Inactive)
REMARK    1  A    between atoms: N_1  and  C_2
REMARK    2  A    between atoms: C_4  and  N_5
REMARK    3  A    between atoms: C_10  and  C_11
REMARK    4  A    between atoms: C_11  and  O_13
REMARK                            x       y       z     vdW  Elec       q    Type
REMARK                         _______ _______ _______ _____ _____    ______ ____
ROOT
ATOM      1  C   UNL     1       5.555   4.829  18.619  0.00  0.00    +0.000 A 
ATOM      2  C   UNL     1       4.272   4.538  19.105  0.00  0.00    +0.000 A 
ATOM      3  C   UNL     1       3.264   4.104  18.228  0.00  0.00    +0.000 A 
ATOM      4  C   UNL     1       3.534   3.908  16.870  0.00  0.00    +0.000 A 
ATOM      5  C   UNL     1       4.822   4.148  16.389  0.00  0.00    +0.000 A 
ATOM      6  C   UNL     1       5.836   4.589  17.256  0.00  0.00    +0.000 A 
ENDROOT
BRANCH   1   7
ATOM      7  N   UNL     1       6.561   5.214  19.535  0.00  0.00    +0.000 N 
ATOM      8  H   UNL     1       6.419   6.150  19.919  0.00  0.00    +0.000 HD
ATOM      9  H   UNL     1       7.497   5.173  19.114  0.00  0.00    +0.000 HD
ENDBRANCH   1   7
BRANCH   3  10
ATOM     10  N   UNL     1       1.909   3.864  18.742  0.00  0.00    +0.000 N 
ATOM     11  O   UNL     1       1.181   3.094  18.101  0.00  0.00    +0.000 OA
ATOM     12  O   UNL     1       1.580   4.438  19.788  0.00  0.00    +0.000 OA
ENDBRANCH   3  10
BRANCH   6  13
ATOM     13  C   UNL     1       7.187   4.778  16.662  0.00  0.00    +0.000 C 
ATOM     14  O   UNL     1       7.385   5.452  15.667  0.00  0.00    +0.000 OA
BRANCH  13  15
ATOM     15  O   UNL     1       8.160   4.092  17.302  0.00  0.00    +0.000 OA
ATOM     16  H   UNL     1       8.179   3.141  17.051  0.00  0.00    +0.000 HD
ENDBRANCH  13  15
ENDBRANCH   6  13
TORSDOF 4
ENDMDL
MODEL 4
REMARK VINA RESULT:      -5.9      0.102      1.238
REMARK  Name = 
REMARK  4 active torsions:
REMARK  status: ('A' for Active; 'I' for Inactive)
REMARK    1  A    between atoms: N_1  and  C_2
REMARK    2  A    between atoms: C_4  and  N_5
REMARK    3  A    between atoms: C_10  and  C_11
REMARK    4  A    between atoms: C_11  and  O_13
REMARK                            x       y       z     vdW  Elec       q    Type
REMARK                         _______ _______ _______ _____ _____    ______ ____
ROOT
ATOM      1  C   UNL     1       4.018   5.118  18.834  0.00  0.00    +0.000 A 
ATOM      2  C   UNL     1       5.341   5.411  18.468  0.00  0.00    +0.000 A 
ATOM      3  C   UNL     1       5.903   4.830  17.319  0.00  0.00    +0.000 A 
ATOM      4  C   UNL     1       5.142   3.994  16.496  0.00  0.00    +0.000 A 
ATOM      5  C   UNL     1       3.810   3.739  16.828  0.00  0.00    +0.000 A 
ATOM      6  C   UNL     1       3.240   4.308  17.978  0.00  0.00    +0.000 A 
ENDROOT
BRANCH   1   7
ATOM      7  N   UNL     1       3.466   5.758  19.967  0.00  0.00    +0.000 N 
ATOM      8  H   UNL     1       2.480   5.534  20.115  0.00  0.00    +0.000 HD
ATOM      9  H   UNL     1       3.565   6.778  19.917  0.00  0.00    +0.000 HD
ENDBRANCH   1   7
BRANCH   3  10
ATOM     10  N   UNL     1       7.308   5.097  16.985  0.00  0.00    +0.000 N 
ATOM     11  O   UNL     1       8.146   4.244  17.305  0.00  0.00    +0.000 OA
ATOM     12  O   UNL     1       7.568   6.155  16.395  0.00  0.00    +0.000 OA
ENDBRANCH   3  10
BRANCH   6  13
ATOM     13  C   UNL     1       1.803   4.013  18.228  0.00  0.00    +0.000 C 
ATOM     14  O   UNL     1       0.950   4.096  17.362  0.00  0.00    +0.000 OA
BRANCH  13  15
ATOM     15  O   UNL     1       1.532   3.694  19.512  0.00  0.00    +0.000 OA
ATOM     16  H   UNL     1       2.199   4.055  20.140  0.00  0.00    +0.000 HD
ENDBRANCH  13  15
ENDBRANCH   6  13
TORSDOF 4
ENDMDL
MODEL 5
REMARK VINA RESULT:      -5.8      2.521      3.438
REMARK  Name = 
REMARK  4 active torsions:
REMARK  status: ('A' for Active; 'I' for Inactive)
REMARK    1  A    between atoms: N_1  and  C_2
REMARK    2  A    between atoms: C_4  and  N_5
REMARK    3  A    between atoms: C_10  and  C_11
REMARK    4  A    between atoms: C_11  and  O_13
REMARK                            x       y       z     vdW  Elec       q    Type
REMARK                         _______ _______ _______ _____ _____    ______ ____
ROOT
ATOM      1  C   UNL     1       6.915   4.420  17.120  0.00  0.00    +0.000 A 
ATOM      2  C   UNL     1       7.524   4.703  15.889  0.00  0.00    +0.000 A 
ATOM      3  C   UNL     1       6.766   4.706  14.706  0.00  0.00    +0.000 A 
ATOM      4  C   UNL     1       5.386   4.477  14.742  0.00  0.00    +0.000 A 
ATOM      5  C   UNL     1       4.766   4.244  15.970  0.00  0.00    +0.000 A 
ATOM      6  C   UNL     1       5.516   4.232  17.158  0.00  0.00    +0.000 A 
ENDROOT
BRANCH   1   7
ATOM      7  N   UNL     1       7.695   4.474  18.297  0.00  0.00    +0.000 N 
ATOM      8  H   UNL     1       7.945   3.552  18.658  0.00  0.00    +0.000 HD
ATOM      9  H   UNL     1       7.226   5.000  19.043  0.00  0.00    +0.000 HD
ENDBRANCH   1   7
BRANCH   3  10
ATOM     10  N   UNL     1       7.431   4.942  13.418  0.00  0.00    +0.000 N 
ATOM     11  O   UNL     1       7.022   4.306  12.437  0.00  0.00    +0.000 OA
ATOM     12  O   UNL     1       8.353   5.769  13.389  0.00  0.00    +0.000 OA
ENDBRANCH   3  10
BRANCH   6  13
ATOM     13  C   UNL     1       4.761   4.017  18.422  0.00  0.00    +0.000 C 
ATOM     14  O   UNL     1       3.748   4.633  18.701  0.00  0.00    +0.000 OA
BRANCH  13  15
ATOM     15  O   UNL     1       5.334   3.113  19.247  0.00  0.00    +0.000 OA
ATOM     16  H   UNL     1       6.298   3.007  19.079  0.00  0.00    +0.000 HD
ENDBRANCH  13  15
ENDBRANCH   6  13
TORSDOF 4
ENDMDL
MODEL 6
REMARK VINA RESULT:      -5.7      2.377      2.886
REMARK  Name = 
REMARK  4 active torsions:
REMARK  status: ('A' for Active; 'I' for Inactive)
REMARK    1  A    between atoms: N_1  and  C_2
REMARK    2  A    between atoms: C_4  and  N_5
REMARK    3  A    between atoms: C_10  and  C_11
REMARK    4  A    between atoms: C_11  and  O_13
REMARK                            x       y       z     vdW  Elec       q    Type
REMARK                         _______ _______ _______ _____ _____    ______ ____
ROOT
ATOM      1  C   UNL     1       4.109   3.136  19.426  0.00  0.00    +0.000 A 
ATOM      2  C   UNL     1       4.722   3.824  18.368  0.00  0.00    +0.000 A 
ATOM      3  C   UNL     1       4.047   4.872  17.719  0.00  0.00    +0.000 A 
ATOM      4  C   UNL     1       2.779   5.278  18.147  0.00  0.00    +0.000 A 
ATOM      5  C   UNL     1       2.185   4.630  19.231  0.00  0.00    +0.000 A 
ATOM      6  C   UNL     1       2.847   3.576  19.882  0.00  0.00    +0.000 A 
ENDROOT
BRANCH   1   7
ATOM      7  N   UNL     1       4.834   2.121  20.091  0.00  0.00    +0.000 N 
ATOM      8  H   UNL     1       5.835   2.316  20.154  0.00  0.00    +0.000 HD
ATOM      9  H   UNL     1       4.707   1.206  19.644  0.00  0.00    +0.000 HD
ENDBRANCH   1   7
BRANCH   3  10
ATOM     10  N   UNL     1       4.677   5.541  16.573  0.00  0.00    +0.000 N 
ATOM     11  O   UNL     1       4.696   6.780  16.572  0.00  0.00    +0.000 OA
ATOM     12  O   UNL     1       5.156   4.827  15.682  0.00  0.00    +0.000 OA
ENDBRANCH   3  10
BRANCH   6  13
ATOM     13  C   UNL     1       2.155   2.974  21.054  0.00  0.00    +0.000 C 
ATOM     14  O   UNL     1       2.751   2.517  22.012  0.00  0.00    +0.000 OA
BRANCH  13  15
ATOM     15  O   UNL     1       0.810   2.941  20.928  0.00  0.00    +0.000 OA
ATOM     16  H   UNL     1       0.442   3.785  20.580  0.00  0.00    +0.000 HD
ENDBRANCH  13  15
ENDBRANCH   6  13
TORSDOF 4
ENDMDL
MODEL 7
REMARK VINA RESULT:      -5.7      2.213      2.931
REMARK  Name = 
REMARK  4 active torsions:
REMARK  status: ('A' for Active; 'I' for Inactive)
REMARK    1  A    between atoms: N_1  and  C_2
REMARK    2  A    between atoms: C_4  and  N_5
REMARK    3  A    between atoms: C_10  and  C_11
REMARK    4  A    between atoms: C_11  and  O_13
REMARK                            x       y       z     vdW  Elec       q    Type
REMARK                         _______ _______ _______ _____ _____    ______ ____
ROOT
ATOM      1  C   UNL     1       3.406   2.775  18.745  0.00  0.00    +0.000 A 
ATOM      2  C   UNL     1       4.652   3.418  18.712  0.00  0.00    +0.000 A 
ATOM      3  C   UNL     1       4.765   4.764  19.099  0.00  0.00    +0.000 A 
ATOM      4  C   UNL     1       3.652   5.468  19.569  0.00  0.00    +0.000 A 
ATOM      5  C   UNL     1       2.419   4.819  19.650  0.00  0.00    +0.000 A 
ATOM      6  C   UNL     1       2.293   3.476  19.259  0.00  0.00    +0.000 A 
ENDROOT
BRANCH   1   7
ATOM      7  N   UNL     1       3.334   1.406  18.397  0.00  0.00    +0.000 N 
ATOM      8  H   UNL     1       3.815   0.797  19.061  0.00  0.00    +0.000 HD
ATOM      9  H   UNL     1       3.712   1.230  17.459  0.00  0.00    +0.000 HD
ENDBRANCH   1   7
BRANCH   3  10
ATOM     10  N   UNL     1       6.065   5.441  19.000  0.00  0.00    +0.000 N 
ATOM     11  O   UNL     1       6.887   5.238  19.905  0.00  0.00    +0.000 OA
ATOM     12  O   UNL     1       6.264   6.165  18.016  0.00  0.00    +0.000 OA
ENDBRANCH   3  10
BRANCH   6  13
ATOM     13  C   UNL     1       0.950   2.856  19.420  0.00  0.00    +0.000 C 
ATOM     14  O   UNL     1       0.367   2.292  18.512  0.00  0.00    +0.000 OA
BRANCH  13  15
ATOM     15  O   UNL     1       0.423   3.022  20.653  0.00  0.00    +0.000 OA
ATOM     16  H   UNL     1      -0.561   3.037  20.644  0.00  0.00    +0.000 HD
ENDBRANCH  13  15
ENDBRANCH   6  13
TORSDOF 4
ENDMDL
MODEL 8
REMARK VINA RESULT:      -5.7      1.655      2.026
REMARK  Name = 
REMARK  4 active torsions:
REMARK  status: ('A' for Active; 'I' for Inactive)
REMARK    1  A    between atoms: N_1  and  C_2
REMARK    2  A    between atoms: C_4  and  N_5
REMARK    3  A    between atoms: C_10  and  C_11
REMARK    4  A    between atoms: C_11  and  O_13
REMARK                            x       y       z     vdW  Elec       q    Type
REMARK                         _______ _______ _______ _____ _____    ______ ____
ROOT
ATOM      1  C   UNL     1       4.899   4.017  18.623  0.00  0.00    +0.000 A 
ATOM      2  C   UNL     1       6.103   4.725  18.494  0.00  0.00    +0.000 A 
ATOM      3  C   UNL     1       6.129   5.965  17.835  0.00  0.00    +0.000 A 
ATOM      4  C   UNL     1       4.951   6.536  17.341  0.00  0.00    +0.000 A 
ATOM      5  C   UNL     1       3.742   5.859  17.509  0.00  0.00    +0.000 A 
ATOM      6  C   UNL     1       3.706   4.615  18.160  0.00  0.00    +0.000 A 
ENDROOT
BRANCH   1   7
ATOM      7  N   UNL     1       4.897   2.796  19.336  0.00  0.00    +0.000 N 
ATOM      8  H   UNL     1       5.829   2.391  19.443  0.00  0.00    +0.000 HD
ATOM      9  H   UNL     1       4.286   2.098  18.897  0.00  0.00    +0.000 HD
ENDBRANCH   1   7
BRANCH   3  10
ATOM     10  N   UNL     1       7.407   6.665  17.654  0.00  0.00    +0.000 N 
ATOM     11  O   UNL     1       7.730   6.981  16.501  0.00  0.00    +0.000 OA
ATOM     12  O   UNL     1       8.081   6.904  18.666  0.00  0.00    +0.000 OA
ENDBRANCH   3  10
BRANCH   6  13
ATOM     13  C   UNL     1       2.367   3.989  18.330  0.00  0.00    +0.000 C 
ATOM     14  O   UNL     1       1.594   3.818  17.405  0.00  0.00    +0.000 OA
BRANCH  13  15
ATOM     15  O   UNL     1       2.076   3.676  19.612  0.00  0.00    +0.000 OA
ATOM     16  H   UNL     1       2.622   4.180  20.258  0.00  0.00    +0.000 HD
ENDBRANCH  13  15
ENDBRANCH   6  13
TORSDOF 4
ENDMDL
MODEL 9
REMARK VINA RESULT:      -5.7      2.080      5.120
REMARK  Name = 
REMARK  4 active torsions:
REMARK  status: ('A' for Active; 'I' for Inactive)
REMARK    1  A    between atoms: N_1  and  C_2
REMARK    2  A    between atoms: C_4  and  N_5
REMARK    3  A    between atoms: C_10  and  C_11
REMARK    4  A    between atoms: C_11  and  O_13
REMARK                            x       y       z     vdW  Elec       q    Type
REMARK                         _______ _______ _______ _____ _____    ______ ____
ROOT
ATOM      1  C   UNL     1       6.354   5.069  16.557  0.00  0.00    +0.000 A 
ATOM      2  C   UNL     1       5.294   4.156  16.460  0.00  0.00    +0.000 A 
ATOM      3  C   UNL     1       4.494   3.877  17.580  0.00  0.00    +0.000 A 
ATOM      4  C   UNL     1       4.709   4.539  18.794  0.00  0.00    +0.000 A 
ATOM      5  C   UNL     1       5.731   5.486  18.882  0.00  0.00    +0.000 A 
ATOM      6  C   UNL     1       6.542   5.767  17.770  0.00  0.00    +0.000 A 
ENDROOT
BRANCH   1   7
ATOM      7  N   UNL     1       7.108   5.366  15.398  0.00  0.00    +0.000 N 
ATOM      8  H   UNL     1       7.994   4.860  15.354  0.00  0.00    +0.000 HD
ATOM      9  H   UNL     1       7.302   6.370  15.315  0.00  0.00    +0.000 HD
ENDBRANCH   1   7
BRANCH   3  10
ATOM     10  N   UNL     1       3.428   2.872  17.479  0.00  0.00    +0.000 N 
ATOM     11  O   UNL     1       3.662   1.741  17.926  0.00  0.00    +0.000 OA
ATOM     12  O   UNL     1       2.358   3.219  16.962  0.00  0.00    +0.000 OA
ENDBRANCH   3  10
BRANCH   6  13
ATOM     13  C   UNL     1       7.577   6.820  17.947  0.00  0.00    +0.000 C 
ATOM     14  O   UNL     1       7.774   7.700  17.129  0.00  0.00    +0.000 OA
BRANCH  13  15
ATOM     15  O   UNL     1       8.307   6.676  19.075  0.00  0.00    +0.000 OA
ATOM     16  H   UNL     1       8.097   5.844  19.557  0.00  0.00    +0.000 HD
ENDBRANCH  13  15
ENDBRANCH   6  13
TORSDOF 4
ENDMDL
