MODEL 1
REMARK VINA RESULT:      -7.1      0.000      0.000
REMARK  Name = 
REMARK  7 active torsions:
REMARK  status: ('A' for Active; 'I' for Inactive)
REMARK    1  A    between atoms: C_1  and  C_2
REMARK    2  A    between atoms: C_2  and  C_3
REMARK    3  A    between atoms: C_2  and  O_4
REMARK    4  A    between atoms: C_2  and  C_5
REMARK    5  A    between atoms: C_5  and  C_6
REMARK    6  A    between atoms: C_6  and  N_7
REMARK    7  A    between atoms: N_7  and  C_8
REMARK                            x       y       z     vdW  Elec       q    Type
REMARK                         _______ _______ _______ _____ _____    ______ ____
ROOT
ATOM      1  C   UNL     1       4.353   4.215  17.548  0.00  0.00    +0.000 C 
ATOM      2  C   UNL     1       4.265   5.064  16.516  0.00  0.00    +0.000 C 
ATOM      3  C   UNL     1       5.218   6.160  16.288  0.00  0.00    +0.000 C 
ATOM      4  O   UNL     1       5.131   6.864  15.290  0.00  0.00    +0.000 OA
ATOM      5  C   UNL     1       6.272   6.374  17.294  0.00  0.00    +0.000 A 
ATOM      6  C   UNL     1       7.131   7.473  17.167  0.00  0.00    +0.000 A 
ATOM      7  C   UNL     1       8.139   7.681  18.109  0.00  0.00    +0.000 A 
ATOM      8  C   UNL     1       8.300   6.787  19.167  0.00  0.00    +0.000 A 
ATOM      9  C   UNL     1       7.443   5.692  19.294  0.00  0.00    +0.000 A 
ATOM     10  C   UNL     1       6.416   5.494  18.362  0.00  0.00    +0.000 A 
ATOM     11  C   UNL     1       5.485   4.361  18.529  0.00  0.00    +0.000 C 
ATOM     12  O   UNL     1       5.627   3.543  19.435  0.00  0.00    +0.000 OA
ENDROOT
BRANCH   1  13
ATOM     13  N   UNL     1       3.473   3.156  17.781  0.00  0.00    +0.000 N 
ATOM     14  H   UNL     1       3.564   2.486  17.007  0.00  0.00    +0.000 HD
BRANCH  13  15
ATOM     15  C   UNL     1       2.062   3.425  18.077  0.00  0.00    +0.000 C 
BRANCH  15  16
ATOM     16  C   UNL     1       1.586   2.597  19.270  0.00  0.00    +0.000 C 
BRANCH  16  18
ATOM     17  C   UNL     1       1.317   2.590  21.775  0.00  0.00    +0.000 C 
ATOM     18  C   UNL     1       2.179   3.083  20.609  0.00  0.00    +0.000 C 
ATOM     19  C   UNL     1       2.310   4.608  20.673  0.00  0.00    +0.000 C 
BRANCH  18  20
ATOM     20  O   UNL     1       3.485   2.519  20.751  0.00  0.00    +0.000 OA
ATOM     21  H   UNL     1       4.098   3.232  21.003  0.00  0.00    +0.000 HD
ENDBRANCH  18  20
ENDBRANCH  16  18
ENDBRANCH  15  16
ENDBRANCH  13  15
ENDBRANCH   1  13
TORSDOF 5
ENDMDL
MODEL 2
REMARK VINA RESULT:      -7.0      1.676      5.677
REMARK  Name = 
REMARK  7 active torsions:
REMARK  status: ('A' for Active; 'I' for Inactive)
REMARK    1  A    between atoms: C_1  and  C_2
REMARK    2  A    between atoms: C_2  and  C_3
REMARK    3  A    between atoms: C_2  and  O_4
REMARK    4  A    between atoms: C_2  and  C_5
REMARK    5  A    between atoms: C_5  and  C_6
REMARK    6  A    between atoms: C_6  and  N_7
REMARK    7  A    between atoms: N_7  and  C_8
REMARK                            x       y       z     vdW  Elec       q    Type
REMARK                         _______ _______ _______ _____ _____    ______ ____
ROOT
ATOM      1  C   UNL     1       4.467   3.769  17.502  0.00  0.00    +0.000 C 
ATOM      2  C   UNL     1       3.276   3.987  16.929  0.00  0.00    +0.000 C 
ATOM      3  C   UNL     1       2.002   3.896  17.656  0.00  0.00    +0.000 C 
ATOM      4  O   UNL     1       0.947   4.173  17.101  0.00  0.00    +0.000 OA
ATOM      5  C   UNL     1       2.043   3.465  19.063  0.00  0.00    +0.000 A 
ATOM      6  C   UNL     1       0.843   3.263  19.757  0.00  0.00    +0.000 A 
ATOM      7  C   UNL     1       0.870   2.863  21.093  0.00  0.00    +0.000 A 
ATOM      8  C   UNL     1       2.091   2.682  21.742  0.00  0.00    +0.000 A 
ATOM      9  C   UNL     1       3.287   2.883  21.051  0.00  0.00    +0.000 A 
ATOM     10  C   UNL     1       3.263   3.261  19.703  0.00  0.00    +0.000 A 
ATOM     11  C   UNL     1       4.531   3.426  18.966  0.00  0.00    +0.000 C 
ATOM     12  O   UNL     1       5.618   3.302  19.524  0.00  0.00    +0.000 OA
ENDROOT
BRANCH   1  13
ATOM     13  N   UNL     1       5.694   3.864  16.840  0.00  0.00    +0.000 N 
ATOM     14  H   UNL     1       6.442   3.706  17.527  0.00  0.00    +0.000 HD
BRANCH  13  15
ATOM     15  C   UNL     1       5.988   5.031  16.002  0.00  0.00    +0.000 C 
BRANCH  15  16
ATOM     16  C   UNL     1       7.288   5.705  16.442  0.00  0.00    +0.000 C 
BRANCH  16  18
ATOM     17  C   UNL     1       7.742   7.955  17.479  0.00  0.00    +0.000 C 
ATOM     18  C   UNL     1       7.111   6.578  17.702  0.00  0.00    +0.000 C 
ATOM     19  C   UNL     1       7.713   5.930  18.953  0.00  0.00    +0.000 C 
BRANCH  18  20
ATOM     20  O   UNL     1       5.711   6.760  17.926  0.00  0.00    +0.000 OA
ATOM     21  H   UNL     1       5.524   6.558  18.860  0.00  0.00    +0.000 HD
ENDBRANCH  18  20
ENDBRANCH  16  18
ENDBRANCH  15  16
ENDBRANCH  13  15
ENDBRANCH   1  13
TORSDOF 5
ENDMDL
MODEL 3
REMARK VINA RESULT:      -6.9      1.774      5.661
REMARK  Name = 
REMARK  7 active torsions:
REMARK  status: ('A' for Active; 'I' for Inactive)
REMARK    1  A    between atoms: C_1  and  C_2
REMARK    2  A    between atoms: C_2  and  C_3
REMARK    3  A    between atoms: C_2  and  O_4
REMARK    4  A    between atoms: C_2  and  C_5
REMARK    5  A    between atoms: C_5  and  C_6
REMARK    6  A    between atoms: C_6  and  N_7
REMARK    7  A    between atoms: N_7  and  C_8
REMARK                            x       y       z     vdW  Elec       q    Type
REMARK                         _______ _______ _______ _____ _____    ______ ____
ROOT
ATOM      1  C   UNL     1       4.364   3.530  17.406  0.00  0.00    +0.000 C 
ATOM      2  C   UNL     1       3.165   3.814  16.882  0.00  0.00    +0.000 C 
ATOM      3  C   UNL     1       1.924   3.832  17.670  0.00  0.00    +0.000 C 
ATOM      4  O   UNL     1       0.865   4.166  17.156  0.00  0.00    +0.000 OA
ATOM      5  C   UNL     1       2.003   3.439  19.086  0.00  0.00    +0.000 A 
ATOM      6  C   UNL     1       0.827   3.340  19.841  0.00  0.00    +0.000 A 
ATOM      7  C   UNL     1       0.891   2.977  21.186  0.00  0.00    +0.000 A 
ATOM      8  C   UNL     1       2.126   2.728  21.783  0.00  0.00    +0.000 A 
ATOM      9  C   UNL     1       3.299   2.826  21.031  0.00  0.00    +0.000 A 
ATOM     10  C   UNL     1       3.235   3.168  19.675  0.00  0.00    +0.000 A 
ATOM     11  C   UNL     1       4.475   3.224  18.876  0.00  0.00    +0.000 C 
ATOM     12  O   UNL     1       5.576   3.040  19.387  0.00  0.00    +0.000 OA
ENDROOT
BRANCH   1  13
ATOM     13  N   UNL     1       5.561   3.521  16.686  0.00  0.00    +0.000 N 
ATOM     14  H   UNL     1       6.336   3.419  17.353  0.00  0.00    +0.000 HD
BRANCH  13  15
ATOM     15  C   UNL     1       5.842   4.583  15.715  0.00  0.00    +0.000 C 
BRANCH  15  16
ATOM     16  C   UNL     1       7.169   5.273  16.028  0.00  0.00    +0.000 C 
BRANCH  16  18
ATOM     17  C   UNL     1       7.505   5.856  18.456  0.00  0.00    +0.000 C 
ATOM     18  C   UNL     1       7.030   6.378  17.097  0.00  0.00    +0.000 C 
ATOM     19  C   UNL     1       5.595   6.901  17.217  0.00  0.00    +0.000 C 
BRANCH  18  20
ATOM     20  O   UNL     1       7.871   7.471  16.721  0.00  0.00    +0.000 OA
ATOM     21  H   UNL     1       7.316   8.267  16.637  0.00  0.00    +0.000 HD
ENDBRANCH  18  20
ENDBRANCH  16  18
ENDBRANCH  15  16
ENDBRANCH  13  15
ENDBRANCH   1  13
TORSDOF 5
ENDMDL
MODEL 4
REMARK VINA RESULT:      -6.8      2.182      5.798
REMARK  Name = 
REMARK  7 active torsions:
REMARK  status: ('A' for Active; 'I' for Inactive)
REMARK    1  A    between atoms: C_1  and  C_2
REMARK    2  A    between atoms: C_2  and  C_3
REMARK    3  A    between atoms: C_2  and  O_4
REMARK    4  A    between atoms: C_2  and  C_5
REMARK    5  A    between atoms: C_5  and  C_6
REMARK    6  A    between atoms: C_6  and  N_7
REMARK    7  A    between atoms: N_7  and  C_8
REMARK                            x       y       z     vdW  Elec       q    Type
REMARK                         _______ _______ _______ _____ _____    ______ ____
ROOT
ATOM      1  C   UNL     1       5.474   4.494  18.909  0.00  0.00    +0.000 C 
ATOM      2  C   UNL     1       4.858   5.670  18.736  0.00  0.00    +0.000 C 
ATOM      3  C   UNL     1       3.459   5.912  19.119  0.00  0.00    +0.000 C 
ATOM      4  O   UNL     1       2.966   7.026  19.002  0.00  0.00    +0.000 OA
ATOM      5  C   UNL     1       2.684   4.776  19.645  0.00  0.00    +0.000 A 
ATOM      6  C   UNL     1       1.320   4.942  19.920  0.00  0.00    +0.000 A 
ATOM      7  C   UNL     1       0.578   3.875  20.426  0.00  0.00    +0.000 A 
ATOM      8  C   UNL     1       1.197   2.651  20.675  0.00  0.00    +0.000 A 
ATOM      9  C   UNL     1       2.556   2.485  20.401  0.00  0.00    +0.000 A 
ATOM     10  C   UNL     1       3.298   3.548  19.870  0.00  0.00    +0.000 A 
ATOM     11  C   UNL     1       4.723   3.351  19.540  0.00  0.00    +0.000 C 
ATOM     12  O   UNL     1       5.297   2.292  19.779  0.00  0.00    +0.000 OA
ENDROOT
BRANCH   1  13
ATOM     13  N   UNL     1       6.805   4.239  18.570  0.00  0.00    +0.000 N 
ATOM     14  H   UNL     1       7.406   4.647  19.298  0.00  0.00    +0.000 HD
BRANCH  13  15
ATOM     15  C   UNL     1       7.300   4.577  17.232  0.00  0.00    +0.000 C 
BRANCH  15  16
ATOM     16  C   UNL     1       6.432   3.935  16.150  0.00  0.00    +0.000 C 
BRANCH  16  18
ATOM     17  C   UNL     1       5.321   5.910  15.052  0.00  0.00    +0.000 C 
ATOM     18  C   UNL     1       6.347   4.789  14.868  0.00  0.00    +0.000 C 
ATOM     19  C   UNL     1       5.988   3.958  13.632  0.00  0.00    +0.000 C 
BRANCH  18  20
ATOM     20  O   UNL     1       7.625   5.387  14.645  0.00  0.00    +0.000 OA
ATOM     21  H   UNL     1       7.485   6.295  14.320  0.00  0.00    +0.000 HD
ENDBRANCH  18  20
ENDBRANCH  16  18
ENDBRANCH  15  16
ENDBRANCH  13  15
ENDBRANCH   1  13
TORSDOF 5
ENDMDL
MODEL 5
REMARK VINA RESULT:      -6.8      0.864      1.179
REMARK  Name = 
REMARK  7 active torsions:
REMARK  status: ('A' for Active; 'I' for Inactive)
REMARK    1  A    between atoms: C_1  and  C_2
REMARK    2  A    between atoms: C_2  and  C_3
REMARK    3  A    between atoms: C_2  and  O_4
REMARK    4  A    between atoms: C_2  and  C_5
REMARK    5  A    between atoms: C_5  and  C_6
REMARK    6  A    between atoms: C_6  and  N_7
REMARK    7  A    between atoms: N_7  and  C_8
REMARK                            x       y       z     vdW  Elec       q    Type
REMARK                         _______ _______ _______ _____ _____    ______ ____
ROOT
ATOM      1  C   UNL     1       4.503   3.961  17.328  0.00  0.00    +0.000 C 
ATOM      2  C   UNL     1       4.487   4.772  16.263  0.00  0.00    +0.000 C 
ATOM      3  C   UNL     1       5.419   5.897  16.091  0.00  0.00    +0.000 C 
ATOM      4  O   UNL     1       5.406   6.565  15.066  0.00  0.00    +0.000 OA
ATOM      5  C   UNL     1       6.359   6.184  17.188  0.00  0.00    +0.000 A 
ATOM      6  C   UNL     1       7.187   7.311  17.107  0.00  0.00    +0.000 A 
ATOM      7  C   UNL     1       8.088   7.588  18.136  0.00  0.00    +0.000 A 
ATOM      8  C   UNL     1       8.175   6.734  19.235  0.00  0.00    +0.000 A 
ATOM      9  C   UNL     1       7.349   5.611  19.316  0.00  0.00    +0.000 A 
ATOM     10  C   UNL     1       6.428   5.344  18.295  0.00  0.00    +0.000 A 
ATOM     11  C   UNL     1       5.526   4.181  18.410  0.00  0.00    +0.000 C 
ATOM     12  O   UNL     1       5.606   3.398  19.353  0.00  0.00    +0.000 OA
ENDROOT
BRANCH   1  13
ATOM     13  N   UNL     1       3.642   2.876  17.510  0.00  0.00    +0.000 N 
ATOM     14  H   UNL     1       3.629   2.327  16.641  0.00  0.00    +0.000 HD
BRANCH  13  15
ATOM     15  C   UNL     1       2.282   3.094  18.014  0.00  0.00    +0.000 C 
BRANCH  15  16
ATOM     16  C   UNL     1       2.051   2.324  19.314  0.00  0.00    +0.000 C 
BRANCH  16  18
ATOM     17  C   UNL     1       2.333   4.576  20.408  0.00  0.00    +0.000 C 
ATOM     18  C   UNL     1       1.598   3.235  20.474  0.00  0.00    +0.000 C 
ATOM     19  C   UNL     1       1.820   2.591  21.847  0.00  0.00    +0.000 C 
BRANCH  18  20
ATOM     20  O   UNL     1       0.199   3.486  20.324  0.00  0.00    +0.000 OA
ATOM     21  H   UNL     1       0.089   4.265  19.749  0.00  0.00    +0.000 HD
ENDBRANCH  18  20
ENDBRANCH  16  18
ENDBRANCH  15  16
ENDBRANCH  13  15
ENDBRANCH   1  13
TORSDOF 5
ENDMDL
MODEL 6
REMARK VINA RESULT:      -6.5      3.253      6.171
REMARK  Name = 
REMARK  7 active torsions:
REMARK  status: ('A' for Active; 'I' for Inactive)
REMARK    1  A    between atoms: C_1  and  C_2
REMARK    2  A    between atoms: C_2  and  C_3
REMARK    3  A    between atoms: C_2  and  O_4
REMARK    4  A    between atoms: C_2  and  C_5
REMARK    5  A    between atoms: C_5  and  C_6
REMARK    6  A    between atoms: C_6  and  N_7
REMARK    7  A    between atoms: N_7  and  C_8
REMARK                            x       y       z     vdW  Elec       q    Type
REMARK                         _______ _______ _______ _____ _____    ______ ____
ROOT
ATOM      1  C   UNL     1       6.008   5.349  16.288  0.00  0.00    +0.000 C 
ATOM      2  C   UNL     1       6.084   4.472  17.297  0.00  0.00    +0.000 C 
ATOM      3  C   UNL     1       5.191   4.505  18.464  0.00  0.00    +0.000 C 
ATOM      4  O   UNL     1       5.259   3.637  19.325  0.00  0.00    +0.000 OA
ATOM      5  C   UNL     1       4.221   5.608  18.557  0.00  0.00    +0.000 A 
ATOM      6  C   UNL     1       3.428   5.734  19.704  0.00  0.00    +0.000 A 
ATOM      7  C   UNL     1       2.500   6.771  19.800  0.00  0.00    +0.000 A 
ATOM      8  C   UNL     1       2.350   7.671  18.746  0.00  0.00    +0.000 A 
ATOM      9  C   UNL     1       3.140   7.547  17.601  0.00  0.00    +0.000 A 
ATOM     10  C   UNL     1       4.090   6.521  17.514  0.00  0.00    +0.000 A 
ATOM     11  C   UNL     1       4.954   6.424  16.321  0.00  0.00    +0.000 C 
ATOM     12  O   UNL     1       4.819   7.186  15.368  0.00  0.00    +0.000 OA
ENDROOT
BRANCH   1  13
ATOM     13  N   UNL     1       6.831   5.333  15.160  0.00  0.00    +0.000 N 
ATOM     14  H   UNL     1       6.596   6.148  14.579  0.00  0.00    +0.000 HD
BRANCH  13  15
ATOM     15  C   UNL     1       6.934   4.120  14.343  0.00  0.00    +0.000 C 
BRANCH  15  16
ATOM     16  C   UNL     1       5.603   3.805  13.662  0.00  0.00    +0.000 C 
BRANCH  16  18
ATOM     17  C   UNL     1       6.866   4.230  11.524  0.00  0.00    +0.000 C 
ATOM     18  C   UNL     1       5.771   3.389  12.185  0.00  0.00    +0.000 C 
ATOM     19  C   UNL     1       4.470   3.515  11.388  0.00  0.00    +0.000 C 
BRANCH  18  20
ATOM     20  O   UNL     1       6.181   2.019  12.152  0.00  0.00    +0.000 OA
ATOM     21  H   UNL     1       5.755   1.592  11.388  0.00  0.00    +0.000 HD
ENDBRANCH  18  20
ENDBRANCH  16  18
ENDBRANCH  15  16
ENDBRANCH  13  15
ENDBRANCH   1  13
TORSDOF 5
ENDMDL
MODEL 7
REMARK VINA RESULT:      -6.4      2.053      3.260
REMARK  Name = 
REMARK  7 active torsions:
REMARK  status: ('A' for Active; 'I' for Inactive)
REMARK    1  A    between atoms: C_1  and  C_2
REMARK    2  A    between atoms: C_2  and  C_3
REMARK    3  A    between atoms: C_2  and  O_4
REMARK    4  A    between atoms: C_2  and  C_5
REMARK    5  A    between atoms: C_5  and  C_6
REMARK    6  A    between atoms: C_6  and  N_7
REMARK    7  A    between atoms: N_7  and  C_8
REMARK                            x       y       z     vdW  Elec       q    Type
REMARK                         _______ _______ _______ _____ _____    ______ ____
ROOT
ATOM      1  C   UNL     1       5.286   5.046  18.232  0.00  0.00    +0.000 C 
ATOM      2  C   UNL     1       6.259   5.954  18.086  0.00  0.00    +0.000 C 
ATOM      3  C   UNL     1       6.967   6.183  16.818  0.00  0.00    +0.000 C 
ATOM      4  O   UNL     1       7.800   7.074  16.722  0.00  0.00    +0.000 OA
ATOM      5  C   UNL     1       6.636   5.309  15.680  0.00  0.00    +0.000 A 
ATOM      6  C   UNL     1       7.364   5.426  14.489  0.00  0.00    +0.000 A 
ATOM      7  C   UNL     1       7.054   4.609  13.401  0.00  0.00    +0.000 A 
ATOM      8  C   UNL     1       6.009   3.690  13.494  0.00  0.00    +0.000 A 
ATOM      9  C   UNL     1       5.284   3.574  14.681  0.00  0.00    +0.000 A 
ATOM     10  C   UNL     1       5.609   4.376  15.783  0.00  0.00    +0.000 A 
ATOM     11  C   UNL     1       4.868   4.214  17.049  0.00  0.00    +0.000 C 
ATOM     12  O   UNL     1       3.924   3.434  17.145  0.00  0.00    +0.000 OA
ENDROOT
BRANCH   1  13
ATOM     13  N   UNL     1       4.586   4.818  19.419  0.00  0.00    +0.000 N 
ATOM     14  H   UNL     1       4.602   3.809  19.613  0.00  0.00    +0.000 HD
BRANCH  13  15
ATOM     15  C   UNL     1       3.236   5.364  19.592  0.00  0.00    +0.000 C 
BRANCH  15  16
ATOM     16  C   UNL     1       2.526   4.703  20.773  0.00  0.00    +0.000 C 
BRANCH  16  18
ATOM     17  C   UNL     1       0.918   3.389  19.346  0.00  0.00    +0.000 C 
ATOM     18  C   UNL     1       1.990   3.295  20.435  0.00  0.00    +0.000 C 
ATOM     19  C   UNL     1       1.420   2.575  21.660  0.00  0.00    +0.000 C 
BRANCH  18  20
ATOM     20  O   UNL     1       3.075   2.515  19.927  0.00  0.00    +0.000 OA
ATOM     21  H   UNL     1       3.010   1.621  20.306  0.00  0.00    +0.000 HD
ENDBRANCH  18  20
ENDBRANCH  16  18
ENDBRANCH  15  16
ENDBRANCH  13  15
ENDBRANCH   1  13
TORSDOF 5
ENDMDL
MODEL 8
REMARK VINA RESULT:      -6.4      2.019      5.700
REMARK  Name = 
REMARK  7 active torsions:
REMARK  status: ('A' for Active; 'I' for Inactive)
REMARK    1  A    between atoms: C_1  and  C_2
REMARK    2  A    between atoms: C_2  and  C_3
REMARK    3  A    between atoms: C_2  and  O_4
REMARK    4  A    between atoms: C_2  and  C_5
REMARK    5  A    between atoms: C_5  and  C_6
REMARK    6  A    between atoms: C_6  and  N_7
REMARK    7  A    between atoms: N_7  and  C_8
REMARK                            x       y       z     vdW  Elec       q    Type
REMARK                         _______ _______ _______ _____ _____    ______ ____
ROOT
ATOM      1  C   UNL     1       5.225   5.050  19.044  0.00  0.00    +0.000 C 
ATOM      2  C   UNL     1       4.372   5.998  18.639  0.00  0.00    +0.000 C 
ATOM      3  C   UNL     1       2.928   5.771  18.479  0.00  0.00    +0.000 C 
ATOM      4  O   UNL     1       2.182   6.691  18.172  0.00  0.00    +0.000 OA
ATOM      5  C   UNL     1       2.419   4.407  18.703  0.00  0.00    +0.000 A 
ATOM      6  C   UNL     1       1.069   4.127  18.458  0.00  0.00    +0.000 A 
ATOM      7  C   UNL     1       0.573   2.841  18.674  0.00  0.00    +0.000 A 
ATOM      8  C   UNL     1       1.418   1.840  19.151  0.00  0.00    +0.000 A 
ATOM      9  C   UNL     1       2.764   2.119  19.397  0.00  0.00    +0.000 A 
ATOM     10  C   UNL     1       3.269   3.403  19.157  0.00  0.00    +0.000 A 
ATOM     11  C   UNL     1       4.703   3.677  19.374  0.00  0.00    +0.000 C 
ATOM     12  O   UNL     1       5.459   2.820  19.823  0.00  0.00    +0.000 OA
ENDROOT
BRANCH   1  13
ATOM     13  N   UNL     1       6.598   5.242  19.220  0.00  0.00    +0.000 N 
ATOM     14  H   UNL     1       6.733   5.911  19.988  0.00  0.00    +0.000 HD
BRANCH  13  15
ATOM     15  C   UNL     1       7.445   5.582  18.072  0.00  0.00    +0.000 C 
BRANCH  15  16
ATOM     16  C   UNL     1       7.331   4.523  16.976  0.00  0.00    +0.000 C 
BRANCH  16  18
ATOM     17  C   UNL     1       5.229   4.294  15.606  0.00  0.00    +0.000 C 
ATOM     18  C   UNL     1       6.566   5.029  15.735  0.00  0.00    +0.000 C 
ATOM     19  C   UNL     1       7.372   4.866  14.442  0.00  0.00    +0.000 C 
BRANCH  18  20
ATOM     20  O   UNL     1       6.293   6.420  15.915  0.00  0.00    +0.000 OA
ATOM     21  H   UNL     1       5.789   6.734  15.143  0.00  0.00    +0.000 HD
ENDBRANCH  18  20
ENDBRANCH  16  18
ENDBRANCH  15  16
ENDBRANCH  13  15
ENDBRANCH   1  13
TORSDOF 5
ENDMDL
MODEL 9
REMARK VINA RESULT:      -6.4      3.016      6.383
REMARK  Name = 
REMARK  7 active torsions:
REMARK  status: ('A' for Active; 'I' for Inactive)
REMARK    1  A    between atoms: C_1  and  C_2
REMARK    2  A    between atoms: C_2  and  C_3
REMARK    3  A    between atoms: C_2  and  O_4
REMARK    4  A    between atoms: C_2  and  C_5
REMARK    5  A    between atoms: C_5  and  C_6
REMARK    6  A    between atoms: C_6  and  N_7
REMARK    7  A    between atoms: N_7  and  C_8
REMARK                            x       y       z     vdW  Elec       q    Type
REMARK                         _______ _______ _______ _____ _____    ______ ____
ROOT
ATOM      1  C   UNL     1       4.787   4.612  16.808  0.00  0.00    +0.000 C 
ATOM      2  C   UNL     1       4.302   3.370  16.925  0.00  0.00    +0.000 C 
ATOM      3  C   UNL     1       3.231   3.007  17.864  0.00  0.00    +0.000 C 
ATOM      4  O   UNL     1       2.777   1.870  17.882  0.00  0.00    +0.000 OA
ATOM      5  C   UNL     1       2.728   4.052  18.771  0.00  0.00    +0.000 A 
ATOM      6  C   UNL     1       1.784   3.719  19.751  0.00  0.00    +0.000 A 
ATOM      7  C   UNL     1       1.295   4.703  20.610  0.00  0.00    +0.000 A 
ATOM      8  C   UNL     1       1.732   6.020  20.481  0.00  0.00    +0.000 A 
ATOM      9  C   UNL     1       2.673   6.354  19.505  0.00  0.00    +0.000 A 
ATOM     10  C   UNL     1       3.184   5.363  18.657  0.00  0.00    +0.000 A 
ATOM     11  C   UNL     1       4.212   5.714  17.659  0.00  0.00    +0.000 C 
ATOM     12  O   UNL     1       4.589   6.872  17.506  0.00  0.00    +0.000 OA
ENDROOT
BRANCH   1  13
ATOM     13  N   UNL     1       5.793   4.990  15.915  0.00  0.00    +0.000 N 
ATOM     14  H   UNL     1       6.095   5.942  16.155  0.00  0.00    +0.000 HD
BRANCH  13  15
ATOM     15  C   UNL     1       5.580   4.856  14.470  0.00  0.00    +0.000 C 
BRANCH  15  16
ATOM     16  C   UNL     1       6.296   3.621  13.924  0.00  0.00    +0.000 C 
BRANCH  16  18
ATOM     17  C   UNL     1       7.131   4.574  11.747  0.00  0.00    +0.000 C 
ATOM     18  C   UNL     1       6.224   3.520  12.386  0.00  0.00    +0.000 C 
ATOM     19  C   UNL     1       4.796   3.676  11.854  0.00  0.00    +0.000 C 
BRANCH  18  20
ATOM     20  O   UNL     1       6.701   2.228  12.001  0.00  0.00    +0.000 OA
ATOM     21  H   UNL     1       7.282   1.895  12.708  0.00  0.00    +0.000 HD
ENDBRANCH  18  20
ENDBRANCH  16  18
ENDBRANCH  15  16
ENDBRANCH  13  15
ENDBRANCH   1  13
TORSDOF 5
ENDMDL
