MODEL 1
REMARK VINA RESULT:      -6.8      0.000      0.000
REMARK  Name = 
REMARK  12 active torsions:
REMARK  status: ('A' for Active; 'I' for Inactive)
REMARK    1  A    between atoms: C_1  and  C_2
REMARK    2  A    between atoms: C_2  and  N_3
REMARK    3  A    between atoms: N_3  and  C_4
REMARK    4  A    between atoms: N_3  and  S_6
REMARK    5  A    between atoms: C_4  and  C_5
REMARK    6  A    between atoms: S_6  and  C_9
REMARK    7  A    between atoms: C_12  and  N_13
REMARK    8  A    between atoms: C_19  and  N_20
REMARK    9  A    between atoms: N_20  and  S_21
REMARK   10  A    between atoms: S_21  and  C_24
REMARK   11  A    between atoms: C_27  and  O_28
REMARK   12  A    between atoms: O_28  and  C_29
REMARK                            x       y       z     vdW  Elec       q    Type
REMARK                         _______ _______ _______ _____ _____    ______ ____
ROOT
ATOM      1  C   UNL     1       1.505   8.833  19.470  0.00  0.00    +0.000 A 
ATOM      2  C   UNL     1       1.012   8.129  20.563  0.00  0.00    +0.000 A 
ATOM      3  C   UNL     1       1.325   6.772  20.705  0.00  0.00    +0.000 A 
ATOM      4  C   UNL     1       2.135   6.073  19.779  0.00  0.00    +0.000 A 
ATOM      5  C   UNL     1       2.647   6.846  18.700  0.00  0.00    +0.000 A 
ATOM      6  C   UNL     1       2.327   8.201  18.541  0.00  0.00    +0.000 A 
ENDROOT
BRANCH   4   7
ATOM      7  N   UNL     1       2.341   4.714  19.953  0.00  0.00    +0.000 N 
ATOM      8  C   UNL     1       2.346   3.709  18.883  0.00  0.00    +0.000 C 
ATOM      9  C   UNL     1       1.423   2.539  19.268  0.00  0.00    +0.000 C 
ATOM     10  O   UNL     1       1.755   1.975  20.546  0.00  0.00    +0.000 OA
ATOM     11  C   UNL     1       1.705   2.987  21.567  0.00  0.00    +0.000 C 
ATOM     12  C   UNL     1       2.687   4.129  21.266  0.00  0.00    +0.000 C 
ENDBRANCH   4   7
BRANCH   1  13
ATOM     13  S   UNL     1       1.185  10.573  19.306  0.00  0.00    +0.000 S 
ATOM     14  O   UNL     1       1.967  11.038  18.182  0.00  0.00    +0.000 OA
ATOM     15  O   UNL     1       1.325  11.169  20.619  0.00  0.00    +0.000 OA
BRANCH  13  16
ATOM     16  N   UNL     1      -0.493  10.667  18.883  0.00  0.00    +0.000 NA
BRANCH  16  18
ATOM     17  C   UNL     1      -1.969  12.361  20.072  0.00  0.00    +0.000 C 
ATOM     18  C   UNL     1      -1.015  12.070  18.925  0.00  0.00    +0.000 C 
ENDBRANCH  16  18
BRANCH  16  19
ATOM     19  C   UNL     1      -0.817   9.912  17.627  0.00  0.00    +0.000 C 
ATOM     20  C   UNL     1      -2.298   9.928  17.275  0.00  0.00    +0.000 C 
ENDBRANCH  16  19
ENDBRANCH  13  16
ENDBRANCH   1  13
BRANCH   5  21
ATOM     21  N   UNL     1       3.477   6.302  17.681  0.00  0.00    +0.000 N 
ATOM     22  H   UNL     1       3.084   5.637  17.026  0.00  0.00    +0.000 HD
BRANCH  21  23
ATOM     23  S   UNL     1       5.147   6.271  17.842  0.00  0.00    +0.000 S 
ATOM     24  O   UNL     1       5.693   7.604  17.788  0.00  0.00    +0.000 OA
ATOM     25  O   UNL     1       5.420   5.373  18.956  0.00  0.00    +0.000 OA
BRANCH  23  26
ATOM     26  C   UNL     1       5.609   5.397  16.369  0.00  0.00    +0.000 A 
ATOM     27  C   UNL     1       6.872   5.563  15.803  0.00  0.00    +0.000 A 
ATOM     28  C   UNL     1       7.175   4.886  14.618  0.00  0.00    +0.000 A 
ATOM     29  C   UNL     1       6.235   4.042  14.014  0.00  0.00    +0.000 A 
ATOM     30  C   UNL     1       4.976   3.884  14.592  0.00  0.00    +0.000 A 
ATOM     31  C   UNL     1       4.665   4.551  15.777  0.00  0.00    +0.000 A 
BRANCH  29  32
ATOM     32  O   UNL     1       6.637   3.464  12.842  0.00  0.00    +0.000 OA
ATOM     33  C   UNL     1       5.596   2.995  11.992  0.00  0.00    +0.000 C 
ENDBRANCH  29  32
ENDBRANCH  23  26
ENDBRANCH  21  23
ENDBRANCH   5  21
TORSDOF 9
ENDMDL
MODEL 2
REMARK VINA RESULT:      -6.7      2.602      9.778
REMARK  Name = 
REMARK  12 active torsions:
REMARK  status: ('A' for Active; 'I' for Inactive)
REMARK    1  A    between atoms: C_1  and  C_2
REMARK    2  A    between atoms: C_2  and  N_3
REMARK    3  A    between atoms: N_3  and  C_4
REMARK    4  A    between atoms: N_3  and  S_6
REMARK    5  A    between atoms: C_4  and  C_5
REMARK    6  A    between atoms: S_6  and  C_9
REMARK    7  A    between atoms: C_12  and  N_13
REMARK    8  A    between atoms: C_19  and  N_20
REMARK    9  A    between atoms: N_20  and  S_21
REMARK   10  A    between atoms: S_21  and  C_24
REMARK   11  A    between atoms: C_27  and  O_28
REMARK   12  A    between atoms: O_28  and  C_29
REMARK                            x       y       z     vdW  Elec       q    Type
REMARK                         _______ _______ _______ _____ _____    ______ ____
ROOT
ATOM      1  C   UNL     1       2.206   7.046  19.349  0.00  0.00    +0.000 A 
ATOM      2  C   UNL     1       2.458   7.660  18.127  0.00  0.00    +0.000 A 
ATOM      3  C   UNL     1       1.875   8.903  17.849  0.00  0.00    +0.000 A 
ATOM      4  C   UNL     1       1.038   9.577  18.768  0.00  0.00    +0.000 A 
ATOM      5  C   UNL     1       0.844   8.927  20.020  0.00  0.00    +0.000 A 
ATOM      6  C   UNL     1       1.410   7.675  20.301  0.00  0.00    +0.000 A 
ENDROOT
BRANCH   4   7
ATOM      7  N   UNL     1       0.446  10.771  18.392  0.00  0.00    +0.000 N 
ATOM      8  C   UNL     1       1.146  12.049  18.211  0.00  0.00    +0.000 C 
ATOM      9  C   UNL     1       0.410  13.157  18.986  0.00  0.00    +0.000 C 
ATOM     10  O   UNL     1      -0.979  13.242  18.636  0.00  0.00    +0.000 OA
ATOM     11  C   UNL     1      -1.630  11.980  18.862  0.00  0.00    +0.000 C 
ATOM     12  C   UNL     1      -0.983  10.864  18.027  0.00  0.00    +0.000 C 
ENDBRANCH   4   7
BRANCH   1  13
ATOM     13  S   UNL     1       2.991   5.505  19.755  0.00  0.00    +0.000 S 
ATOM     14  O   UNL     1       2.367   5.024  20.967  0.00  0.00    +0.000 OA
ATOM     15  O   UNL     1       4.424   5.709  19.676  0.00  0.00    +0.000 OA
BRANCH  13  16
ATOM     16  N   UNL     1       2.559   4.442  18.456  0.00  0.00    +0.000 NA
BRANCH  16  18
ATOM     17  C   UNL     1       4.330   3.854  16.731  0.00  0.00    +0.000 C 
ATOM     18  C   UNL     1       3.681   3.529  18.067  0.00  0.00    +0.000 C 
ENDBRANCH  16  18
BRANCH  16  19
ATOM     19  C   UNL     1       1.241   3.758  18.682  0.00  0.00    +0.000 C 
ATOM     20  C   UNL     1       1.345   2.241  18.721  0.00  0.00    +0.000 C 
ENDBRANCH  16  19
ENDBRANCH  13  16
ENDBRANCH   1  13
BRANCH   5  21
ATOM     21  N   UNL     1       0.033   9.465  21.056  0.00  0.00    +0.000 N 
ATOM     22  H   UNL     1      -0.964   9.560  20.904  0.00  0.00    +0.000 HD
BRANCH  21  23
ATOM     23  S   UNL     1       0.686  10.437  22.258  0.00  0.00    +0.000 S 
ATOM     24  O   UNL     1       0.948   9.672  23.451  0.00  0.00    +0.000 OA
ATOM     25  O   UNL     1       1.724  11.226  21.608  0.00  0.00    +0.000 OA
BRANCH  23  26
ATOM     26  C   UNL     1      -0.666  11.543  22.566  0.00  0.00    +0.000 A 
ATOM     27  C   UNL     1      -1.840  11.091  23.165  0.00  0.00    +0.000 A 
ATOM     28  C   UNL     1      -2.895  11.990  23.349  0.00  0.00    +0.000 A 
ATOM     29  C   UNL     1      -2.772  13.328  22.955  0.00  0.00    +0.000 A 
ATOM     30  C   UNL     1      -1.591  13.768  22.358  0.00  0.00    +0.000 A 
ATOM     31  C   UNL     1      -0.532  12.880  22.175  0.00  0.00    +0.000 A 
BRANCH  29  32
ATOM     32  O   UNL     1      -3.884  14.099  23.155  0.00  0.00    +0.000 OA
ATOM     33  C   UNL     1      -5.119  13.398  23.241  0.00  0.00    +0.000 C 
ENDBRANCH  29  32
ENDBRANCH  23  26
ENDBRANCH  21  23
ENDBRANCH   5  21
TORSDOF 9
ENDMDL
MODEL 3
REMARK VINA RESULT:      -6.7      0.921      1.261
REMARK  Name = 
REMARK  12 active torsions:
REMARK  status: ('A' for Active; 'I' for Inactive)
REMARK    1  A    between atoms: C_1  and  C_2
REMARK    2  A    between atoms: C_2  and  N_3
REMARK    3  A    between atoms: N_3  and  C_4
REMARK    4  A    between atoms: N_3  and  S_6
REMARK    5  A    between atoms: C_4  and  C_5
REMARK    6  A    between atoms: S_6  and  C_9
REMARK    7  A    between atoms: C_12  and  N_13
REMARK    8  A    between atoms: C_19  and  N_20
REMARK    9  A    between atoms: N_20  and  S_21
REMARK   10  A    between atoms: S_21  and  C_24
REMARK   11  A    between atoms: C_27  and  O_28
REMARK   12  A    between atoms: O_28  and  C_29
REMARK                            x       y       z     vdW  Elec       q    Type
REMARK                         _______ _______ _______ _____ _____    ______ ____
ROOT
ATOM      1  C   UNL     1       1.419   8.413  19.899  0.00  0.00    +0.000 A 
ATOM      2  C   UNL     1       0.952   7.560  20.894  0.00  0.00    +0.000 A 
ATOM      3  C   UNL     1       1.265   6.197  20.834  0.00  0.00    +0.000 A 
ATOM      4  C   UNL     1       2.049   5.637  19.798  0.00  0.00    +0.000 A 
ATOM      5  C   UNL     1       2.535   6.556  18.827  0.00  0.00    +0.000 A 
ATOM      6  C   UNL     1       2.215   7.920  18.870  0.00  0.00    +0.000 A 
ENDROOT
BRANCH   4   7
ATOM      7  N   UNL     1       2.257   4.268  19.773  0.00  0.00    +0.000 N 
ATOM      8  C   UNL     1       3.219   3.537  20.606  0.00  0.00    +0.000 C 
ATOM      9  C   UNL     1       4.073   2.611  19.719  0.00  0.00    +0.000 C 
ATOM     10  O   UNL     1       3.274   1.734  18.913  0.00  0.00    +0.000 OA
ATOM     11  C   UNL     1       2.371   2.494  18.090  0.00  0.00    +0.000 C 
ATOM     12  C   UNL     1       1.434   3.359  18.946  0.00  0.00    +0.000 C 
ENDBRANCH   4   7
BRANCH   1  13
ATOM     13  S   UNL     1       1.099  10.157  19.992  0.00  0.00    +0.000 S 
ATOM     14  O   UNL     1       1.855  10.778  18.928  0.00  0.00    +0.000 OA
ATOM     15  O   UNL     1       1.270  10.561  21.373  0.00  0.00    +0.000 OA
BRANCH  13  16
ATOM     16  N   UNL     1      -0.589  10.309  19.626  0.00  0.00    +0.000 NA
BRANCH  16  18
ATOM     17  C   UNL     1      -0.907  12.829  19.702  0.00  0.00    +0.000 C 
ATOM     18  C   UNL     1      -1.221  11.477  20.320  0.00  0.00    +0.000 C 
ENDBRANCH  16  18
BRANCH  16  19
ATOM     19  C   UNL     1      -0.872  10.223  18.154  0.00  0.00    +0.000 C 
ATOM     20  C   UNL     1      -2.340   9.987  17.833  0.00  0.00    +0.000 C 
ENDBRANCH  16  19
ENDBRANCH  13  16
ENDBRANCH   1  13
BRANCH   5  21
ATOM     21  N   UNL     1       3.337   6.163  17.720  0.00  0.00    +0.000 N 
ATOM     22  H   UNL     1       2.970   5.490  17.058  0.00  0.00    +0.000 HD
BRANCH  21  23
ATOM     23  S   UNL     1       5.008   6.318  17.756  0.00  0.00    +0.000 S 
ATOM     24  O   UNL     1       5.400   7.690  17.555  0.00  0.00    +0.000 OA
ATOM     25  O   UNL     1       5.451   5.554  18.914  0.00  0.00    +0.000 OA
BRANCH  23  26
ATOM     26  C   UNL     1       5.463   5.372  16.326  0.00  0.00    +0.000 A 
ATOM     27  C   UNL     1       6.005   5.988  15.201  0.00  0.00    +0.000 A 
ATOM     28  C   UNL     1       6.308   5.206  14.082  0.00  0.00    +0.000 A 
ATOM     29  C   UNL     1       6.088   3.824  14.093  0.00  0.00    +0.000 A 
ATOM     30  C   UNL     1       5.547   3.219  15.227  0.00  0.00    +0.000 A 
ATOM     31  C   UNL     1       5.246   3.989  16.350  0.00  0.00    +0.000 A 
BRANCH  29  32
ATOM     32  O   UNL     1       6.392   3.175  12.928  0.00  0.00    +0.000 OA
ATOM     33  C   UNL     1       5.353   3.123  11.957  0.00  0.00    +0.000 C 
ENDBRANCH  29  32
ENDBRANCH  23  26
ENDBRANCH  21  23
ENDBRANCH   5  21
TORSDOF 9
ENDMDL
MODEL 4
REMARK VINA RESULT:      -6.7      2.856      9.881
REMARK  Name = 
REMARK  12 active torsions:
REMARK  status: ('A' for Active; 'I' for Inactive)
REMARK    1  A    between atoms: C_1  and  C_2
REMARK    2  A    between atoms: C_2  and  N_3
REMARK    3  A    between atoms: N_3  and  C_4
REMARK    4  A    between atoms: N_3  and  S_6
REMARK    5  A    between atoms: C_4  and  C_5
REMARK    6  A    between atoms: S_6  and  C_9
REMARK    7  A    between atoms: C_12  and  N_13
REMARK    8  A    between atoms: C_19  and  N_20
REMARK    9  A    between atoms: N_20  and  S_21
REMARK   10  A    between atoms: S_21  and  C_24
REMARK   11  A    between atoms: C_27  and  O_28
REMARK   12  A    between atoms: O_28  and  C_29
REMARK                            x       y       z     vdW  Elec       q    Type
REMARK                         _______ _______ _______ _____ _____    ______ ____
ROOT
ATOM      1  C   UNL     1       1.995   7.433  19.309  0.00  0.00    +0.000 A 
ATOM      2  C   UNL     1       1.881   7.917  18.010  0.00  0.00    +0.000 A 
ATOM      3  C   UNL     1       1.458   9.236  17.803  0.00  0.00    +0.000 A 
ATOM      4  C   UNL     1       1.144  10.114  18.866  0.00  0.00    +0.000 A 
ATOM      5  C   UNL     1       1.315   9.585  20.176  0.00  0.00    +0.000 A 
ATOM      6  C   UNL     1       1.722   8.262  20.394  0.00  0.00    +0.000 A 
ENDROOT
BRANCH   4   7
ATOM      7  N   UNL     1       0.667  11.382  18.575  0.00  0.00    +0.000 N 
ATOM      8  C   UNL     1       1.484  12.599  18.487  0.00  0.00    +0.000 C 
ATOM      9  C   UNL     1       0.847  13.712  19.339  0.00  0.00    +0.000 C 
ATOM     10  O   UNL     1      -0.526  13.951  18.995  0.00  0.00    +0.000 OA
ATOM     11  C   UNL     1      -1.292  12.741  19.129  0.00  0.00    +0.000 C 
ATOM     12  C   UNL     1      -0.745  11.633  18.217  0.00  0.00    +0.000 C 
ENDBRANCH   4   7
BRANCH   1  13
ATOM     13  S   UNL     1       2.600   5.789  19.603  0.00  0.00    +0.000 S 
ATOM     14  O   UNL     1       1.648   5.143  20.478  0.00  0.00    +0.000 OA
ATOM     15  O   UNL     1       4.001   5.895  19.960  0.00  0.00    +0.000 OA
BRANCH  13  16
ATOM     16  N   UNL     1       2.531   5.018  18.052  0.00  0.00    +0.000 NA
BRANCH  16  18
ATOM     17  C   UNL     1       4.566   5.545  16.625  0.00  0.00    +0.000 C 
ATOM     18  C   UNL     1       3.879   4.576  17.572  0.00  0.00    +0.000 C 
ENDBRANCH  16  18
BRANCH  16  19
ATOM     19  C   UNL     1       1.460   3.968  17.975  0.00  0.00    +0.000 C 
ATOM     20  C   UNL     1       1.988   2.551  18.146  0.00  0.00    +0.000 C 
ENDBRANCH  16  19
ENDBRANCH  13  16
ENDBRANCH   1  13
BRANCH   5  21
ATOM     21  N   UNL     1       1.044  10.332  21.355  0.00  0.00    +0.000 N 
ATOM     22  H   UNL     1       1.733  10.995  21.689  0.00  0.00    +0.000 HD
BRANCH  21  23
ATOM     23  S   UNL     1      -0.062   9.789  22.495  0.00  0.00    +0.000 S 
ATOM     24  O   UNL     1      -0.938   8.796  21.927  0.00  0.00    +0.000 OA
ATOM     25  O   UNL     1       0.710   9.533  23.704  0.00  0.00    +0.000 OA
BRANCH  23  26
ATOM     26  C   UNL     1      -0.987  11.272  22.795  0.00  0.00    +0.000 A 
ATOM     27  C   UNL     1      -2.271  11.220  23.333  0.00  0.00    +0.000 A 
ATOM     28  C   UNL     1      -2.979  12.412  23.512  0.00  0.00    +0.000 A 
ATOM     29  C   UNL     1      -2.404  13.644  23.174  0.00  0.00    +0.000 A 
ATOM     30  C   UNL     1      -1.117  13.682  22.638  0.00  0.00    +0.000 A 
ATOM     31  C   UNL     1      -0.402  12.498  22.460  0.00  0.00    +0.000 A 
BRANCH  29  32
ATOM     32  O   UNL     1      -3.208  14.734  23.363  0.00  0.00    +0.000 OA
ATOM     33  C   UNL     1      -4.606  14.473  23.417  0.00  0.00    +0.000 C 
ENDBRANCH  29  32
ENDBRANCH  23  26
ENDBRANCH  21  23
ENDBRANCH   5  21
TORSDOF 9
ENDMDL
MODEL 5
REMARK VINA RESULT:      -6.7      1.623      2.312
REMARK  Name = 
REMARK  12 active torsions:
REMARK  status: ('A' for Active; 'I' for Inactive)
REMARK    1  A    between atoms: C_1  and  C_2
REMARK    2  A    between atoms: C_2  and  N_3
REMARK    3  A    between atoms: N_3  and  C_4
REMARK    4  A    between atoms: N_3  and  S_6
REMARK    5  A    between atoms: C_4  and  C_5
REMARK    6  A    between atoms: S_6  and  C_9
REMARK    7  A    between atoms: C_12  and  N_13
REMARK    8  A    between atoms: C_19  and  N_20
REMARK    9  A    between atoms: N_20  and  S_21
REMARK   10  A    between atoms: S_21  and  C_24
REMARK   11  A    between atoms: C_27  and  O_28
REMARK   12  A    between atoms: O_28  and  C_29
REMARK                            x       y       z     vdW  Elec       q    Type
REMARK                         _______ _______ _______ _____ _____    ______ ____
ROOT
ATOM      1  C   UNL     1       1.565   7.522  20.514  0.00  0.00    +0.000 A 
ATOM      2  C   UNL     1       1.354   6.260  21.058  0.00  0.00    +0.000 A 
ATOM      3  C   UNL     1       1.942   5.143  20.451  0.00  0.00    +0.000 A 
ATOM      4  C   UNL     1       2.756   5.239  19.299  0.00  0.00    +0.000 A 
ATOM      5  C   UNL     1       2.974   6.556  18.805  0.00  0.00    +0.000 A 
ATOM      6  C   UNL     1       2.378   7.678  19.395  0.00  0.00    +0.000 A 
ENDROOT
BRANCH   4   7
ATOM      7  N   UNL     1       3.245   4.080  18.719  0.00  0.00    +0.000 N 
ATOM      8  C   UNL     1       2.735   3.463  17.488  0.00  0.00    +0.000 C 
ATOM      9  C   UNL     1       2.473   1.966  17.730  0.00  0.00    +0.000 C 
ATOM     10  O   UNL     1       3.625   1.282  18.246  0.00  0.00    +0.000 OA
ATOM     11  C   UNL     1       4.067   1.899  19.467  0.00  0.00    +0.000 C 
ATOM     12  C   UNL     1       4.433   3.374  19.244  0.00  0.00    +0.000 C 
ENDBRANCH   4   7
BRANCH   1  13
ATOM     13  S   UNL     1       0.892   8.963  21.306  0.00  0.00    +0.000 S 
ATOM     14  O   UNL     1       1.887   9.426  22.246  0.00  0.00    +0.000 OA
ATOM     15  O   UNL     1      -0.455   8.639  21.733  0.00  0.00    +0.000 OA
BRANCH  13  16
ATOM     16  N   UNL     1       0.752  10.132  20.034  0.00  0.00    +0.000 NA
BRANCH  16  18
ATOM     17  C   UNL     1      -0.621   9.905  17.908  0.00  0.00    +0.000 C 
ATOM     18  C   UNL     1      -0.609  10.137  19.410  0.00  0.00    +0.000 C 
ENDBRANCH  16  18
BRANCH  16  19
ATOM     19  C   UNL     1       1.267  11.485  20.433  0.00  0.00    +0.000 C 
ATOM     20  C   UNL     1       0.206  12.375  21.064  0.00  0.00    +0.000 C 
ENDBRANCH  16  19
ENDBRANCH  13  16
ENDBRANCH   1  13
BRANCH   5  21
ATOM     21  N   UNL     1       3.767   6.832  17.657  0.00  0.00    +0.000 N 
ATOM     22  H   UNL     1       3.357   6.726  16.736  0.00  0.00    +0.000 HD
BRANCH  21  23
ATOM     23  S   UNL     1       5.443   6.780  17.722  0.00  0.00    +0.000 S 
ATOM     24  O   UNL     1       6.004   8.096  17.550  0.00  0.00    +0.000 OA
ATOM     25  O   UNL     1       5.768   5.950  18.874  0.00  0.00    +0.000 OA
BRANCH  23  26
ATOM     26  C   UNL     1       5.804   5.805  16.284  0.00  0.00    +0.000 A 
ATOM     27  C   UNL     1       4.806   5.484  15.366  0.00  0.00    +0.000 A 
ATOM     28  C   UNL     1       5.129   4.678  14.271  0.00  0.00    +0.000 A 
ATOM     29  C   UNL     1       6.436   4.212  14.085  0.00  0.00    +0.000 A 
ATOM     30  C   UNL     1       7.426   4.542  15.011  0.00  0.00    +0.000 A 
ATOM     31  C   UNL     1       7.115   5.349  16.104  0.00  0.00    +0.000 A 
BRANCH  29  32
ATOM     32  O   UNL     1       6.619   3.404  12.997  0.00  0.00    +0.000 OA
ATOM     33  C   UNL     1       5.483   3.226  12.158  0.00  0.00    +0.000 C 
ENDBRANCH  29  32
ENDBRANCH  23  26
ENDBRANCH  21  23
ENDBRANCH   5  21
TORSDOF 9
ENDMDL
MODEL 6
REMARK VINA RESULT:      -6.6      2.177      7.925
REMARK  Name = 
REMARK  12 active torsions:
REMARK  status: ('A' for Active; 'I' for Inactive)
REMARK    1  A    between atoms: C_1  and  C_2
REMARK    2  A    between atoms: C_2  and  N_3
REMARK    3  A    between atoms: N_3  and  C_4
REMARK    4  A    between atoms: N_3  and  S_6
REMARK    5  A    between atoms: C_4  and  C_5
REMARK    6  A    between atoms: S_6  and  C_9
REMARK    7  A    between atoms: C_12  and  N_13
REMARK    8  A    between atoms: C_19  and  N_20
REMARK    9  A    between atoms: N_20  and  S_21
REMARK   10  A    between atoms: S_21  and  C_24
REMARK   11  A    between atoms: C_27  and  O_28
REMARK   12  A    between atoms: O_28  and  C_29
REMARK                            x       y       z     vdW  Elec       q    Type
REMARK                         _______ _______ _______ _____ _____    ______ ____
ROOT
ATOM      1  C   UNL     1       5.846   5.162  17.298  0.00  0.00    +0.000 A 
ATOM      2  C   UNL     1       5.407   3.855  17.483  0.00  0.00    +0.000 A 
ATOM      3  C   UNL     1       4.261   3.616  18.251  0.00  0.00    +0.000 A 
ATOM      4  C   UNL     1       3.513   4.656  18.850  0.00  0.00    +0.000 A 
ATOM      5  C   UNL     1       3.978   5.977  18.598  0.00  0.00    +0.000 A 
ATOM      6  C   UNL     1       5.133   6.225  17.844  0.00  0.00    +0.000 A 
ENDROOT
BRANCH   4   7
ATOM      7  N   UNL     1       2.430   4.333  19.652  0.00  0.00    +0.000 N 
ATOM      8  C   UNL     1       2.352   4.542  21.103  0.00  0.00    +0.000 C 
ATOM      9  C   UNL     1       1.892   3.243  21.789  0.00  0.00    +0.000 C 
ATOM     10  O   UNL     1       0.664   2.739  21.244  0.00  0.00    +0.000 OA
ATOM     11  C   UNL     1       0.798   2.518  19.829  0.00  0.00    +0.000 C 
ATOM     12  C   UNL     1       1.161   3.818  19.096  0.00  0.00    +0.000 C 
ENDBRANCH   4   7
BRANCH   1  13
ATOM     13  S   UNL     1       7.253   5.497  16.267  0.00  0.00    +0.000 S 
ATOM     14  O   UNL     1       8.213   4.445  16.515  0.00  0.00    +0.000 OA
ATOM     15  O   UNL     1       7.602   6.892  16.443  0.00  0.00    +0.000 OA
BRANCH  13  16
ATOM     16  N   UNL     1       6.657   5.325  14.649  0.00  0.00    +0.000 NA
BRANCH  16  18
ATOM     17  C   UNL     1       8.078   5.765  12.588  0.00  0.00    +0.000 C 
ATOM     18  C   UNL     1       7.700   4.808  13.707  0.00  0.00    +0.000 C 
ENDBRANCH  16  18
BRANCH  16  19
ATOM     19  C   UNL     1       5.342   4.602  14.590  0.00  0.00    +0.000 C 
ATOM     20  C   UNL     1       5.174   3.751  13.340  0.00  0.00    +0.000 C 
ENDBRANCH  16  19
ENDBRANCH  13  16
ENDBRANCH   1  13
BRANCH   5  21
ATOM     21  N   UNL     1       3.344   7.136  19.124  0.00  0.00    +0.000 N 
ATOM     22  H   UNL     1       3.244   7.233  20.127  0.00  0.00    +0.000 HD
BRANCH  21  23
ATOM     23  S   UNL     1       2.291   8.052  18.191  0.00  0.00    +0.000 S 
ATOM     24  O   UNL     1       2.999   9.098  17.496  0.00  0.00    +0.000 OA
ATOM     25  O   UNL     1       1.451   7.093  17.487  0.00  0.00    +0.000 OA
BRANCH  23  26
ATOM     26  C   UNL     1       1.276   8.780  19.450  0.00  0.00    +0.000 A 
ATOM     27  C   UNL     1       0.390   9.812  19.149  0.00  0.00    +0.000 A 
ATOM     28  C   UNL     1      -0.359  10.383  20.183  0.00  0.00    +0.000 A 
ATOM     29  C   UNL     1      -0.237   9.917  21.497  0.00  0.00    +0.000 A 
ATOM     30  C   UNL     1       0.652   8.881  21.785  0.00  0.00    +0.000 A 
ATOM     31  C   UNL     1       1.400   8.303  20.760  0.00  0.00    +0.000 A 
BRANCH  29  32
ATOM     32  O   UNL     1      -0.996  10.578  22.424  0.00  0.00    +0.000 OA
ATOM     33  C   UNL     1      -0.742  11.973  22.552  0.00  0.00    +0.000 C 
ENDBRANCH  29  32
ENDBRANCH  23  26
ENDBRANCH  21  23
ENDBRANCH   5  21
TORSDOF 9
ENDMDL
MODEL 7
REMARK VINA RESULT:      -6.6      1.232      1.597
REMARK  Name = 
REMARK  12 active torsions:
REMARK  status: ('A' for Active; 'I' for Inactive)
REMARK    1  A    between atoms: C_1  and  C_2
REMARK    2  A    between atoms: C_2  and  N_3
REMARK    3  A    between atoms: N_3  and  C_4
REMARK    4  A    between atoms: N_3  and  S_6
REMARK    5  A    between atoms: C_4  and  C_5
REMARK    6  A    between atoms: S_6  and  C_9
REMARK    7  A    between atoms: C_12  and  N_13
REMARK    8  A    between atoms: C_19  and  N_20
REMARK    9  A    between atoms: N_20  and  S_21
REMARK   10  A    between atoms: S_21  and  C_24
REMARK   11  A    between atoms: C_27  and  O_28
REMARK   12  A    between atoms: O_28  and  C_29
REMARK                            x       y       z     vdW  Elec       q    Type
REMARK                         _______ _______ _______ _____ _____    ______ ____
ROOT
ATOM      1  C   UNL     1       1.545   8.415  19.985  0.00  0.00    +0.000 A 
ATOM      2  C   UNL     1       1.034   7.524  20.923  0.00  0.00    +0.000 A 
ATOM      3  C   UNL     1       1.306   6.157  20.791  0.00  0.00    +0.000 A 
ATOM      4  C   UNL     1       2.092   5.631  19.740  0.00  0.00    +0.000 A 
ATOM      5  C   UNL     1       2.625   6.587  18.830  0.00  0.00    +0.000 A 
ATOM      6  C   UNL     1       2.345   7.955  18.943  0.00  0.00    +0.000 A 
ENDROOT
BRANCH   4   7
ATOM      7  N   UNL     1       2.258   4.260  19.641  0.00  0.00    +0.000 N 
ATOM      8  C   UNL     1       3.216   3.460  20.415  0.00  0.00    +0.000 C 
ATOM      9  C   UNL     1       4.023   2.556  19.465  0.00  0.00    +0.000 C 
ATOM     10  O   UNL     1       3.181   1.744  18.633  0.00  0.00    +0.000 OA
ATOM     11  C   UNL     1       2.285   2.570  17.870  0.00  0.00    +0.000 C 
ATOM     12  C   UNL     1       1.392   3.418  18.790  0.00  0.00    +0.000 C 
ENDBRANCH   4   7
BRANCH   1  13
ATOM     13  S   UNL     1       1.277  10.161  20.169  0.00  0.00    +0.000 S 
ATOM     14  O   UNL     1       1.576  10.768  18.892  0.00  0.00    +0.000 OA
ATOM     15  O   UNL     1       1.953  10.582  21.380  0.00  0.00    +0.000 OA
BRANCH  13  16
ATOM     16  N   UNL     1      -0.425  10.311  20.463  0.00  0.00    +0.000 NA
BRANCH  16  18
ATOM     17  C   UNL     1      -0.786   9.857  22.937  0.00  0.00    +0.000 C 
ATOM     18  C   UNL     1      -0.724  10.880  21.815  0.00  0.00    +0.000 C 
ENDBRANCH  16  18
BRANCH  16  19
ATOM     19  C   UNL     1      -1.152  10.971  19.327  0.00  0.00    +0.000 C 
ATOM     20  C   UNL     1      -1.743   9.984  18.330  0.00  0.00    +0.000 C 
ENDBRANCH  16  19
ENDBRANCH  13  16
ENDBRANCH   1  13
BRANCH   5  21
ATOM     21  N   UNL     1       3.435   6.230  17.717  0.00  0.00    +0.000 N 
ATOM     22  H   UNL     1       3.061   5.604  17.014  0.00  0.00    +0.000 HD
BRANCH  21  23
ATOM     23  S   UNL     1       5.109   6.335  17.788  0.00  0.00    +0.000 S 
ATOM     24  O   UNL     1       5.545   7.698  17.620  0.00  0.00    +0.000 OA
ATOM     25  O   UNL     1       5.506   5.537  18.941  0.00  0.00    +0.000 OA
BRANCH  23  26
ATOM     26  C   UNL     1       5.565   5.401  16.351  0.00  0.00    +0.000 A 
ATOM     27  C   UNL     1       6.696   5.733  15.609  0.00  0.00    +0.000 A 
ATOM     28  C   UNL     1       6.992   4.994  14.460  0.00  0.00    +0.000 A 
ATOM     29  C   UNL     1       6.176   3.927  14.065  0.00  0.00    +0.000 A 
ATOM     30  C   UNL     1       5.047   3.604  14.818  0.00  0.00    +0.000 A 
ATOM     31  C   UNL     1       4.747   4.332  15.968  0.00  0.00    +0.000 A 
BRANCH  29  32
ATOM     32  O   UNL     1       6.549   3.304  12.906  0.00  0.00    +0.000 OA
ATOM     33  C   UNL     1       7.209   4.123  11.946  0.00  0.00    +0.000 C 
ENDBRANCH  29  32
ENDBRANCH  23  26
ENDBRANCH  21  23
ENDBRANCH   5  21
TORSDOF 9
ENDMDL
MODEL 8
REMARK VINA RESULT:      -6.5      1.485      2.006
REMARK  Name = 
REMARK  12 active torsions:
REMARK  status: ('A' for Active; 'I' for Inactive)
REMARK    1  A    between atoms: C_1  and  C_2
REMARK    2  A    between atoms: C_2  and  N_3
REMARK    3  A    between atoms: N_3  and  C_4
REMARK    4  A    between atoms: N_3  and  S_6
REMARK    5  A    between atoms: C_4  and  C_5
REMARK    6  A    between atoms: S_6  and  C_9
REMARK    7  A    between atoms: C_12  and  N_13
REMARK    8  A    between atoms: C_19  and  N_20
REMARK    9  A    between atoms: N_20  and  S_21
REMARK   10  A    between atoms: S_21  and  C_24
REMARK   11  A    between atoms: C_27  and  O_28
REMARK   12  A    between atoms: O_28  and  C_29
REMARK                            x       y       z     vdW  Elec       q    Type
REMARK                         _______ _______ _______ _____ _____    ______ ____
ROOT
ATOM      1  C   UNL     1       1.631   7.727  20.142  0.00  0.00    +0.000 A 
ATOM      2  C   UNL     1       1.374   6.525  20.792  0.00  0.00    +0.000 A 
ATOM      3  C   UNL     1       1.934   5.342  20.295  0.00  0.00    +0.000 A 
ATOM      4  C   UNL     1       2.766   5.311  19.151  0.00  0.00    +0.000 A 
ATOM      5  C   UNL     1       3.031   6.572  18.546  0.00  0.00    +0.000 A 
ATOM      6  C   UNL     1       2.463   7.759  19.027  0.00  0.00    +0.000 A 
ENDROOT
BRANCH   4   7
ATOM      7  N   UNL     1       3.226   4.091  18.683  0.00  0.00    +0.000 N 
ATOM      8  C   UNL     1       2.692   3.369  17.521  0.00  0.00    +0.000 C 
ATOM      9  C   UNL     1       2.401   1.907  17.910  0.00  0.00    +0.000 C 
ATOM     10  O   UNL     1       3.544   1.253  18.481  0.00  0.00    +0.000 OA
ATOM     11  C   UNL     1       4.011   1.976  19.633  0.00  0.00    +0.000 C 
ATOM     12  C   UNL     1       4.404   3.414  19.264  0.00  0.00    +0.000 C 
ENDBRANCH   4   7
BRANCH   1  13
ATOM     13  S   UNL     1       0.994   9.252  20.794  0.00  0.00    +0.000 S 
ATOM     14  O   UNL     1       1.947   9.717  21.777  0.00  0.00    +0.000 OA
ATOM     15  O   UNL     1      -0.397   9.033  21.139  0.00  0.00    +0.000 OA
BRANCH  13  16
ATOM     16  N   UNL     1       1.016  10.343  19.448  0.00  0.00    +0.000 NA
BRANCH  16  18
ATOM     17  C   UNL     1      -1.245  10.836  18.399  0.00  0.00    +0.000 C 
ATOM     18  C   UNL     1       0.010   9.979  18.400  0.00  0.00    +0.000 C 
ENDBRANCH  16  18
BRANCH  16  19
ATOM     19  C   UNL     1       0.992  11.784  19.870  0.00  0.00    +0.000 C 
ATOM     20  C   UNL     1       2.121  12.610  19.272  0.00  0.00    +0.000 C 
ENDBRANCH  16  19
ENDBRANCH  13  16
ENDBRANCH   1  13
BRANCH   5  21
ATOM     21  N   UNL     1       3.846   6.721  17.391  0.00  0.00    +0.000 N 
ATOM     22  H   UNL     1       3.451   6.527  16.478  0.00  0.00    +0.000 HD
BRANCH  21  23
ATOM     23  S   UNL     1       5.521   6.659  17.491  0.00  0.00    +0.000 S 
ATOM     24  O   UNL     1       6.094   7.970  17.319  0.00  0.00    +0.000 OA
ATOM     25  O   UNL     1       5.816   5.837  18.657  0.00  0.00    +0.000 OA
BRANCH  23  26
ATOM     26  C   UNL     1       5.904   5.669  16.070  0.00  0.00    +0.000 A 
ATOM     27  C   UNL     1       7.207   5.591  15.581  0.00  0.00    +0.000 A 
ATOM     28  C   UNL     1       7.454   4.833  14.433  0.00  0.00    +0.000 A 
ATOM     29  C   UNL     1       6.415   4.148  13.790  0.00  0.00    +0.000 A 
ATOM     30  C   UNL     1       5.116   4.233  14.291  0.00  0.00    +0.000 A 
ATOM     31  C   UNL     1       4.861   4.984  15.438  0.00  0.00    +0.000 A 
BRANCH  29  32
ATOM     32  O   UNL     1       6.776   3.470  12.658  0.00  0.00    +0.000 OA
ATOM     33  C   UNL     1       5.716   2.831  11.954  0.00  0.00    +0.000 C 
ENDBRANCH  29  32
ENDBRANCH  23  26
ENDBRANCH  21  23
ENDBRANCH   5  21
TORSDOF 9
ENDMDL
MODEL 9
REMARK VINA RESULT:      -6.5      3.164      9.747
REMARK  Name = 
REMARK  12 active torsions:
REMARK  status: ('A' for Active; 'I' for Inactive)
REMARK    1  A    between atoms: C_1  and  C_2
REMARK    2  A    between atoms: C_2  and  N_3
REMARK    3  A    between atoms: N_3  and  C_4
REMARK    4  A    between atoms: N_3  and  S_6
REMARK    5  A    between atoms: C_4  and  C_5
REMARK    6  A    between atoms: S_6  and  C_9
REMARK    7  A    between atoms: C_12  and  N_13
REMARK    8  A    between atoms: C_19  and  N_20
REMARK    9  A    between atoms: N_20  and  S_21
REMARK   10  A    between atoms: S_21  and  C_24
REMARK   11  A    between atoms: C_27  and  O_28
REMARK   12  A    between atoms: O_28  and  C_29
REMARK                            x       y       z     vdW  Elec       q    Type
REMARK                         _______ _______ _______ _____ _____    ______ ____
ROOT
ATOM      1  C   UNL     1       2.021   7.335  19.197  0.00  0.00    +0.000 A 
ATOM      2  C   UNL     1       1.759   8.007  18.008  0.00  0.00    +0.000 A 
ATOM      3  C   UNL     1       1.313   9.334  18.052  0.00  0.00    +0.000 A 
ATOM      4  C   UNL     1       1.120  10.035  19.264  0.00  0.00    +0.000 A 
ATOM      5  C   UNL     1       1.439   9.318  20.451  0.00  0.00    +0.000 A 
ATOM      6  C   UNL     1       1.871   7.985  20.418  0.00  0.00    +0.000 A 
ENDROOT
BRANCH   4   7
ATOM      7  N   UNL     1       0.611  11.323  19.225  0.00  0.00    +0.000 N 
ATOM      8  C   UNL     1      -0.807  11.675  19.077  0.00  0.00    +0.000 C 
ATOM      9  C   UNL     1      -0.966  12.717  17.955  0.00  0.00    +0.000 C 
ATOM     10  O   UNL     1      -0.137  13.871  18.155  0.00  0.00    +0.000 OA
ATOM     11  C   UNL     1       1.244  13.482  18.261  0.00  0.00    +0.000 C 
ATOM     12  C   UNL     1       1.460  12.515  19.435  0.00  0.00    +0.000 C 
ENDBRANCH   4   7
BRANCH   1  13
ATOM     13  S   UNL     1       2.658   5.677  19.167  0.00  0.00    +0.000 S 
ATOM     14  O   UNL     1       1.867   4.942  18.206  0.00  0.00    +0.000 OA
ATOM     15  O   UNL     1       2.780   5.230  20.541  0.00  0.00    +0.000 OA
BRANCH  13  16
ATOM     16  N   UNL     1       4.267   5.841  18.544  0.00  0.00    +0.000 NA
BRANCH  16  18
ATOM     17  C   UNL     1       6.723   5.563  19.133  0.00  0.00    +0.000 C 
ATOM     18  C   UNL     1       5.284   5.151  19.398  0.00  0.00    +0.000 C 
ENDBRANCH  16  18
BRANCH  16  19
ATOM     19  C   UNL     1       4.355   5.523  17.079  0.00  0.00    +0.000 C 
ATOM     20  C   UNL     1       4.961   6.647  16.250  0.00  0.00    +0.000 C 
ENDBRANCH  16  19
ENDBRANCH  13  16
ENDBRANCH   1  13
BRANCH   5  21
ATOM     21  N   UNL     1       1.302   9.872  21.753  0.00  0.00    +0.000 N 
ATOM     22  H   UNL     1       2.129  10.197  22.242  0.00  0.00    +0.000 HD
BRANCH  21  23
ATOM     23  S   UNL     1      -0.025   9.516  22.717  0.00  0.00    +0.000 S 
ATOM     24  O   UNL     1      -0.881   8.551  22.075  0.00  0.00    +0.000 OA
ATOM     25  O   UNL     1       0.506   9.301  24.057  0.00  0.00    +0.000 OA
BRANCH  23  26
ATOM     26  C   UNL     1      -0.847  11.087  22.749  0.00  0.00    +0.000 A 
ATOM     27  C   UNL     1      -0.199  12.244  22.321  0.00  0.00    +0.000 A 
ATOM     28  C   UNL     1      -0.873  13.466  22.405  0.00  0.00    +0.000 A 
ATOM     29  C   UNL     1      -2.183  13.530  22.895  0.00  0.00    +0.000 A 
ATOM     30  C   UNL     1      -2.820  12.364  23.319  0.00  0.00    +0.000 A 
ATOM     31  C   UNL     1      -2.158  11.140  23.235  0.00  0.00    +0.000 A 
BRANCH  29  32
ATOM     32  O   UNL     1      -2.722  14.785  22.960  0.00  0.00    +0.000 OA
ATOM     33  C   UNL     1      -4.134  14.864  22.796  0.00  0.00    +0.000 C 
ENDBRANCH  29  32
ENDBRANCH  23  26
ENDBRANCH  21  23
ENDBRANCH   5  21
TORSDOF 9
ENDMDL
