MODEL 1
REMARK VINA RESULT:      -8.7      0.000      0.000
REMARK  Name = 
REMARK  8 active torsions:
REMARK  status: ('A' for Active; 'I' for Inactive)
REMARK    1  A    between atoms: C_2  and  C_4
REMARK    2  A    between atoms: C_7  and  O_8
REMARK    3  A    between atoms: O_8  and  C_9
REMARK    4  A    between atoms: C_9  and  C_10
REMARK    5  A    between atoms: C_13  and  C_14
REMARK    6  A    between atoms: C_14  and  O_15
REMARK    7  A    between atoms: O_15  and  C_16
REMARK    8  A    between atoms: C_19  and  C_20
REMARK                            x       y       z     vdW  Elec       q    Type
REMARK                         _______ _______ _______ _____ _____    ______ ____
ROOT
ATOM      1  C   UNL     1       1.104   8.762  20.385  0.00  0.00    +0.000 A 
ATOM      2  C   UNL     1       1.371   9.099  19.059  0.00  0.00    +0.000 A 
ATOM      3  C   UNL     1       0.839  10.247  18.503  0.00  0.00    +0.000 A 
ATOM      4  C   UNL     1       0.056  11.118  19.268  0.00  0.00    +0.000 A 
ATOM      5  C   UNL     1      -0.198  10.828  20.635  0.00  0.00    +0.000 A 
ATOM      6  C   UNL     1      -0.904  11.722  21.475  0.00  0.00    +0.000 A 
ATOM      7  C   UNL     1      -1.165  11.402  22.807  0.00  0.00    +0.000 A 
ATOM      8  C   UNL     1      -0.765  10.175  23.321  0.00  0.00    +0.000 A 
ATOM      9  C   UNL     1      -0.042   9.287  22.527  0.00  0.00    +0.000 A 
ATOM     10  C   UNL     1       0.288   9.608  21.188  0.00  0.00    +0.000 A 
ENDROOT
BRANCH   1  11
ATOM     11  C   UNL     1       1.784   7.545  20.928  0.00  0.00    +0.000 C 
BRANCH  11  12
ATOM     12  O   UNL     1       1.109   6.411  20.544  0.00  0.00    +0.000 OA
BRANCH  12  16
ATOM     13  C   UNL     1       3.244   2.959  19.650  0.00  0.00    +0.000 A 
ATOM     14  C   UNL     1       2.728   3.182  20.941  0.00  0.00    +0.000 A 
ATOM     15  C   UNL     1       1.980   4.329  21.213  0.00  0.00    +0.000 A 
ATOM     16  C   UNL     1       1.729   5.259  20.207  0.00  0.00    +0.000 A 
ATOM     17  C   UNL     1       2.176   5.002  18.896  0.00  0.00    +0.000 A 
ATOM     18  C   UNL     1       2.934   3.869  18.625  0.00  0.00    +0.000 A 
BRANCH  13  20
ATOM     19  N   UNL     1       5.159   1.601  20.148  0.00  0.00    +0.000 NA
ATOM     20  C   UNL     1       4.133   1.798  19.394  0.00  0.00    +0.000 C 
ATOM     21  N   UNL     1       3.915   0.946  18.274  0.00  0.00    +0.000 N 
ATOM     22  H   UNL     1       5.806   0.821  19.985  0.00  0.00    +0.000 HD
ATOM     23  H   UNL     1       4.566   0.176  18.068  0.00  0.00    +0.000 HD
ATOM     24  H   UNL     1       3.195   1.159  17.569  0.00  0.00    +0.000 HD
ENDBRANCH  13  20
ENDBRANCH  12  16
ENDBRANCH  11  12
ENDBRANCH   1  11
BRANCH   4  25
ATOM     25  C   UNL     1      -0.486  12.324  18.571  0.00  0.00    +0.000 C 
BRANCH  25  26
ATOM     26  O   UNL     1      -1.483  11.936  17.712  0.00  0.00    +0.000 OA
BRANCH  26  27
ATOM     27  C   UNL     1      -2.747  11.651  18.094  0.00  0.00    +0.000 A 
ATOM     28  C   UNL     1      -3.420  12.367  19.095  0.00  0.00    +0.000 A 
ATOM     29  C   UNL     1      -4.738  12.054  19.425  0.00  0.00    +0.000 A 
ATOM     30  C   UNL     1      -5.431  11.015  18.764  0.00  0.00    +0.000 A 
ATOM     31  C   UNL     1      -4.723  10.286  17.776  0.00  0.00    +0.000 A 
ATOM     32  C   UNL     1      -3.411  10.608  17.452  0.00  0.00    +0.000 A 
BRANCH  30  33
ATOM     33  C   UNL     1      -6.879  10.697  19.085  0.00  0.00    +0.000 C 
ATOM     34  N   UNL     1      -7.721  11.622  19.414  0.00  0.00    +0.000 NA
ATOM     35  N   UNL     1      -7.373   9.366  19.018  0.00  0.00    +0.000 N 
ATOM     36  H   UNL     1      -7.500  12.619  19.492  0.00  0.00    +0.000 HD
ATOM     37  H   UNL     1      -6.802   8.562  18.747  0.00  0.00    +0.000 HD
ATOM     38  H   UNL     1      -8.372   9.187  19.212  0.00  0.00    +0.000 HD
ENDBRANCH  30  33
ENDBRANCH  26  27
ENDBRANCH  25  26
ENDBRANCH   4  25
TORSDOF 8
ENDMDL
MODEL 2
REMARK VINA RESULT:      -8.7      2.046      9.619
REMARK  Name = 
REMARK  8 active torsions:
REMARK  status: ('A' for Active; 'I' for Inactive)
REMARK    1  A    between atoms: C_2  and  C_4
REMARK    2  A    between atoms: C_7  and  O_8
REMARK    3  A    between atoms: O_8  and  C_9
REMARK    4  A    between atoms: C_9  and  C_10
REMARK    5  A    between atoms: C_13  and  C_14
REMARK    6  A    between atoms: C_14  and  O_15
REMARK    7  A    between atoms: O_15  and  C_16
REMARK    8  A    between atoms: C_19  and  C_20
REMARK                            x       y       z     vdW  Elec       q    Type
REMARK                         _______ _______ _______ _____ _____    ______ ____
ROOT
ATOM      1  C   UNL     1       0.631  10.781  19.247  0.00  0.00    +0.000 A 
ATOM      2  C   UNL     1       1.332   9.959  18.365  0.00  0.00    +0.000 A 
ATOM      3  C   UNL     1       1.804   8.727  18.775  0.00  0.00    +0.000 A 
ATOM      4  C   UNL     1       1.555   8.258  20.069  0.00  0.00    +0.000 A 
ATOM      5  C   UNL     1       0.805   9.050  20.979  0.00  0.00    +0.000 A 
ATOM      6  C   UNL     1       0.446   8.582  22.266  0.00  0.00    +0.000 A 
ATOM      7  C   UNL     1      -0.266   9.390  23.151  0.00  0.00    +0.000 A 
ATOM      8  C   UNL     1      -0.604  10.689  22.793  0.00  0.00    +0.000 A 
ATOM      9  C   UNL     1      -0.291  11.168  21.522  0.00  0.00    +0.000 A 
ATOM     10  C   UNL     1       0.383  10.351  20.581  0.00  0.00    +0.000 A 
ENDROOT
BRANCH   1  11
ATOM     11  C   UNL     1       0.088  12.062  18.698  0.00  0.00    +0.000 C 
BRANCH  11  12
ATOM     12  O   UNL     1      -0.838  11.805  17.716  0.00  0.00    +0.000 OA
BRANCH  12  16
ATOM     13  C   UNL     1      -4.907  11.161  18.271  0.00  0.00    +0.000 A 
ATOM     14  C   UNL     1      -4.187  10.461  17.283  0.00  0.00    +0.000 A 
ATOM     15  C   UNL     1      -2.813  10.662  17.137  0.00  0.00    +0.000 A 
ATOM     16  C   UNL     1      -2.140  11.548  17.973  0.00  0.00    +0.000 A 
ATOM     17  C   UNL     1      -2.840  12.191  19.012  0.00  0.00    +0.000 A 
ATOM     18  C   UNL     1      -4.211  12.007  19.151  0.00  0.00    +0.000 A 
BRANCH  13  20
ATOM     19  N   UNL     1      -7.132  11.991  17.926  0.00  0.00    +0.000 NA
ATOM     20  C   UNL     1      -6.384  11.031  18.348  0.00  0.00    +0.000 C 
ATOM     21  N   UNL     1      -6.985   9.894  18.960  0.00  0.00    +0.000 N 
ATOM     22  H   UNL     1      -8.156  11.943  17.986  0.00  0.00    +0.000 HD
ATOM     23  H   UNL     1      -8.007   9.834  19.062  0.00  0.00    +0.000 HD
ATOM     24  H   UNL     1      -6.417   9.179  19.437  0.00  0.00    +0.000 HD
ENDBRANCH  13  20
ENDBRANCH  12  16
ENDBRANCH  11  12
ENDBRANCH   1  11
BRANCH   4  25
ATOM     25  C   UNL     1       2.122   6.920  20.420  0.00  0.00    +0.000 C 
BRANCH  25  26
ATOM     26  O   UNL     1       2.196   6.151  19.286  0.00  0.00    +0.000 OA
BRANCH  26  27
ATOM     27  C   UNL     1       3.353   5.747  18.716  0.00  0.00    +0.000 A 
ATOM     28  C   UNL     1       3.468   5.462  17.348  0.00  0.00    +0.000 A 
ATOM     29  C   UNL     1       4.695   5.084  16.805  0.00  0.00    +0.000 A 
ATOM     30  C   UNL     1       5.851   4.980  17.611  0.00  0.00    +0.000 A 
ATOM     31  C   UNL     1       5.706   5.245  18.995  0.00  0.00    +0.000 A 
ATOM     32  C   UNL     1       4.479   5.625  19.526  0.00  0.00    +0.000 A 
BRANCH  30  33
ATOM     33  C   UNL     1       7.199   4.613  17.020  0.00  0.00    +0.000 C 
ATOM     34  N   UNL     1       8.143   4.106  17.744  0.00  0.00    +0.000 NA
ATOM     35  N   UNL     1       7.472   4.795  15.637  0.00  0.00    +0.000 N 
ATOM     36  H   UNL     1       8.077   3.915  18.749  0.00  0.00    +0.000 HD
ATOM     37  H   UNL     1       6.792   5.166  14.969  0.00  0.00    +0.000 HD
ATOM     38  H   UNL     1       8.389   4.506  15.259  0.00  0.00    +0.000 HD
ENDBRANCH  30  33
ENDBRANCH  26  27
ENDBRANCH  25  26
ENDBRANCH   4  25
TORSDOF 8
ENDMDL
MODEL 3
REMARK VINA RESULT:      -8.6      2.103      9.824
REMARK  Name = 
REMARK  8 active torsions:
REMARK  status: ('A' for Active; 'I' for Inactive)
REMARK    1  A    between atoms: C_2  and  C_4
REMARK    2  A    between atoms: C_7  and  O_8
REMARK    3  A    between atoms: O_8  and  C_9
REMARK    4  A    between atoms: C_9  and  C_10
REMARK    5  A    between atoms: C_13  and  C_14
REMARK    6  A    between atoms: C_14  and  O_15
REMARK    7  A    between atoms: O_15  and  C_16
REMARK    8  A    between atoms: C_19  and  C_20
REMARK                            x       y       z     vdW  Elec       q    Type
REMARK                         _______ _______ _______ _____ _____    ______ ____
ROOT
ATOM      1  C   UNL     1       0.020  10.820  19.102  0.00  0.00    +0.000 A 
ATOM      2  C   UNL     1       0.753  10.025  18.223  0.00  0.00    +0.000 A 
ATOM      3  C   UNL     1       1.430   8.910  18.679  0.00  0.00    +0.000 A 
ATOM      4  C   UNL     1       1.362   8.530  20.023  0.00  0.00    +0.000 A 
ATOM      5  C   UNL     1       0.586   9.292  20.938  0.00  0.00    +0.000 A 
ATOM      6  C   UNL     1       0.408   8.897  22.286  0.00  0.00    +0.000 A 
ATOM      7  C   UNL     1      -0.334   9.678  23.170  0.00  0.00    +0.000 A 
ATOM      8  C   UNL     1      -0.884  10.882  22.748  0.00  0.00    +0.000 A 
ATOM      9  C   UNL     1      -0.751  11.282  21.419  0.00  0.00    +0.000 A 
ATOM     10  C   UNL     1      -0.050  10.483  20.483  0.00  0.00    +0.000 A 
ENDROOT
BRANCH   1  11
ATOM     11  C   UNL     1      -0.746  11.961  18.511  0.00  0.00    +0.000 C 
BRANCH  11  12
ATOM     12  O   UNL     1      -1.804  11.491  17.770  0.00  0.00    +0.000 OA
BRANCH  12  16
ATOM     13  C   UNL     1      -5.725  11.784  19.117  0.00  0.00    +0.000 A 
ATOM     14  C   UNL     1      -4.667  12.400  19.814  0.00  0.00    +0.000 A 
ATOM     15  C   UNL     1      -3.362  12.324  19.326  0.00  0.00    +0.000 A 
ATOM     16  C   UNL     1      -3.094  11.647  18.138  0.00  0.00    +0.000 A 
ATOM     17  C   UNL     1      -4.158  11.096  17.398  0.00  0.00    +0.000 A 
ATOM     18  C   UNL     1      -5.457  11.156  17.888  0.00  0.00    +0.000 A 
BRANCH  13  20
ATOM     19  N   UNL     1      -7.648  10.646  19.992  0.00  0.00    +0.000 NA
ATOM     20  C   UNL     1      -7.091  11.770  19.697  0.00  0.00    +0.000 C 
ATOM     21  N   UNL     1      -7.829  12.978  19.856  0.00  0.00    +0.000 N 
ATOM     22  H   UNL     1      -8.600  10.600  20.373  0.00  0.00    +0.000 HD
ATOM     23  H   UNL     1      -8.796  12.958  20.206  0.00  0.00    +0.000 HD
ATOM     24  H   UNL     1      -7.473  13.875  19.496  0.00  0.00    +0.000 HD
ENDBRANCH  13  20
ENDBRANCH  12  16
ENDBRANCH  11  12
ENDBRANCH   1  11
BRANCH   4  25
ATOM     25  C   UNL     1       2.142   7.318  20.421  0.00  0.00    +0.000 C 
BRANCH  25  26
ATOM     26  O   UNL     1       2.210   6.457  19.355  0.00  0.00    +0.000 OA
BRANCH  26  27
ATOM     27  C   UNL     1       3.358   6.100  18.738  0.00  0.00    +0.000 A 
ATOM     28  C   UNL     1       3.686   6.516  17.440  0.00  0.00    +0.000 A 
ATOM     29  C   UNL     1       4.902   6.147  16.865  0.00  0.00    +0.000 A 
ATOM     30  C   UNL     1       5.834   5.353  17.570  0.00  0.00    +0.000 A 
ATOM     31  C   UNL     1       5.470   4.920  18.869  0.00  0.00    +0.000 A 
ATOM     32  C   UNL     1       4.257   5.296  19.435  0.00  0.00    +0.000 A 
BRANCH  30  33
ATOM     33  C   UNL     1       7.178   4.985  16.970  0.00  0.00    +0.000 C 
ATOM     34  N   UNL     1       7.521   5.369  15.784  0.00  0.00    +0.000 NA
ATOM     35  N   UNL     1       8.125   4.216  17.700  0.00  0.00    +0.000 N 
ATOM     36  H   UNL     1       6.939   5.933  15.156  0.00  0.00    +0.000 HD
ATOM     37  H   UNL     1       7.969   3.880  18.653  0.00  0.00    +0.000 HD
ATOM     38  H   UNL     1       9.044   4.009  17.275  0.00  0.00    +0.000 HD
ENDBRANCH  30  33
ENDBRANCH  26  27
ENDBRANCH  25  26
ENDBRANCH   4  25
TORSDOF 8
ENDMDL
MODEL 4
REMARK VINA RESULT:      -8.6      0.296      1.195
REMARK  Name = 
REMARK  8 active torsions:
REMARK  status: ('A' for Active; 'I' for Inactive)
REMARK    1  A    between atoms: C_2  and  C_4
REMARK    2  A    between atoms: C_7  and  O_8
REMARK    3  A    between atoms: O_8  and  C_9
REMARK    4  A    between atoms: C_9  and  C_10
REMARK    5  A    between atoms: C_13  and  C_14
REMARK    6  A    between atoms: C_14  and  O_15
REMARK    7  A    between atoms: O_15  and  C_16
REMARK    8  A    between atoms: C_19  and  C_20
REMARK                            x       y       z     vdW  Elec       q    Type
REMARK                         _______ _______ _______ _____ _____    ______ ____
ROOT
ATOM      1  C   UNL     1       1.083   8.861  20.324  0.00  0.00    +0.000 A 
ATOM      2  C   UNL     1       1.319   9.214  18.995  0.00  0.00    +0.000 A 
ATOM      3  C   UNL     1       0.717  10.329  18.444  0.00  0.00    +0.000 A 
ATOM      4  C   UNL     1      -0.110  11.152  19.216  0.00  0.00    +0.000 A 
ATOM      5  C   UNL     1      -0.335  10.848  20.585  0.00  0.00    +0.000 A 
ATOM      6  C   UNL     1      -1.086  11.699  21.432  0.00  0.00    +0.000 A 
ATOM      7  C   UNL     1      -1.317  11.364  22.765  0.00  0.00    +0.000 A 
ATOM      8  C   UNL     1      -0.842  10.162  23.276  0.00  0.00    +0.000 A 
ATOM      9  C   UNL     1      -0.074   9.318  22.475  0.00  0.00    +0.000 A 
ATOM     10  C   UNL     1       0.225   9.658  21.133  0.00  0.00    +0.000 A 
ENDROOT
BRANCH   1  11
ATOM     11  C   UNL     1       1.837   7.686  20.861  0.00  0.00    +0.000 C 
BRANCH  11  12
ATOM     12  O   UNL     1       1.141   6.525  20.624  0.00  0.00    +0.000 OA
BRANCH  12  16
ATOM     13  C   UNL     1       3.185   3.067  19.556  0.00  0.00    +0.000 A 
ATOM     14  C   UNL     1       2.683   3.243  20.861  0.00  0.00    +0.000 A 
ATOM     15  C   UNL     1       1.965   4.394  21.190  0.00  0.00    +0.000 A 
ATOM     16  C   UNL     1       1.730   5.375  20.230  0.00  0.00    +0.000 A 
ATOM     17  C   UNL     1       2.163   5.168  18.906  0.00  0.00    +0.000 A 
ATOM     18  C   UNL     1       2.891   4.031  18.577  0.00  0.00    +0.000 A 
BRANCH  13  20
ATOM     19  N   UNL     1       3.739   1.132  18.252  0.00  0.00    +0.000 NA
ATOM     20  C   UNL     1       4.044   1.899  19.241  0.00  0.00    +0.000 C 
ATOM     21  N   UNL     1       5.154   1.564  20.068  0.00  0.00    +0.000 N 
ATOM     22  H   UNL     1       4.299   0.302  18.020  0.00  0.00    +0.000 HD
ATOM     23  H   UNL     1       5.713   0.721  19.878  0.00  0.00    +0.000 HD
ATOM     24  H   UNL     1       5.339   2.068  20.947  0.00  0.00    +0.000 HD
ENDBRANCH  13  20
ENDBRANCH  12  16
ENDBRANCH  11  12
ENDBRANCH   1  11
BRANCH   4  25
ATOM     25  C   UNL     1      -0.727  12.324  18.524  0.00  0.00    +0.000 C 
BRANCH  25  26
ATOM     26  O   UNL     1      -1.684  11.877  17.648  0.00  0.00    +0.000 OA
BRANCH  26  27
ATOM     27  C   UNL     1      -2.928  11.497  18.011  0.00  0.00    +0.000 A 
ATOM     28  C   UNL     1      -3.493  10.273  17.625  0.00  0.00    +0.000 A 
ATOM     29  C   UNL     1      -4.769   9.914  18.059  0.00  0.00    +0.000 A 
ATOM     30  C   UNL     1      -5.523  10.766  18.897  0.00  0.00    +0.000 A 
ATOM     31  C   UNL     1      -4.945  12.010  19.251  0.00  0.00    +0.000 A 
ATOM     32  C   UNL     1      -3.672  12.357  18.817  0.00  0.00    +0.000 A 
BRANCH  30  33
ATOM     33  C   UNL     1      -6.893  10.365  19.410  0.00  0.00    +0.000 C 
ATOM     34  N   UNL     1      -7.496   9.304  18.980  0.00  0.00    +0.000 NA
ATOM     35  N   UNL     1      -7.562  11.132  20.402  0.00  0.00    +0.000 N 
ATOM     36  H   UNL     1      -7.124   8.660  18.276  0.00  0.00    +0.000 HD
ATOM     37  H   UNL     1      -7.170  11.974  20.828  0.00  0.00    +0.000 HD
ATOM     38  H   UNL     1      -8.481  10.814  20.753  0.00  0.00    +0.000 HD
ENDBRANCH  30  33
ENDBRANCH  26  27
ENDBRANCH  25  26
ENDBRANCH   4  25
TORSDOF 8
ENDMDL
MODEL 5
REMARK VINA RESULT:      -8.6      2.176      2.685
REMARK  Name = 
REMARK  8 active torsions:
REMARK  status: ('A' for Active; 'I' for Inactive)
REMARK    1  A    between atoms: C_2  and  C_4
REMARK    2  A    between atoms: C_7  and  O_8
REMARK    3  A    between atoms: O_8  and  C_9
REMARK    4  A    between atoms: C_9  and  C_10
REMARK    5  A    between atoms: C_13  and  C_14
REMARK    6  A    between atoms: C_14  and  O_15
REMARK    7  A    between atoms: O_15  and  C_16
REMARK    8  A    between atoms: C_19  and  C_20
REMARK                            x       y       z     vdW  Elec       q    Type
REMARK                         _______ _______ _______ _____ _____    ______ ____
ROOT
ATOM      1  C   UNL     1       1.611   8.321  19.559  0.00  0.00    +0.000 A 
ATOM      2  C   UNL     1       1.583   8.793  18.248  0.00  0.00    +0.000 A 
ATOM      3  C   UNL     1       0.855   9.921  17.920  0.00  0.00    +0.000 A 
ATOM      4  C   UNL     1       0.165  10.639  18.902  0.00  0.00    +0.000 A 
ATOM      5  C   UNL     1       0.209  10.212  20.256  0.00  0.00    +0.000 A 
ATOM      6  C   UNL     1      -0.393  10.955  21.300  0.00  0.00    +0.000 A 
ATOM      7  C   UNL     1      -0.360  10.500  22.617  0.00  0.00    +0.000 A 
ATOM      8  C   UNL     1       0.238   9.283  22.921  0.00  0.00    +0.000 A 
ATOM      9  C   UNL     1       0.865   8.544  21.920  0.00  0.00    +0.000 A 
ATOM     10  C   UNL     1       0.897   9.008  20.582  0.00  0.00    +0.000 A 
ENDROOT
BRANCH   1  11
ATOM     11  C   UNL     1       2.486   7.141  19.840  0.00  0.00    +0.000 C 
BRANCH  11  12
ATOM     12  O   UNL     1       2.299   6.171  18.885  0.00  0.00    +0.000 OA
BRANCH  12  16
ATOM     13  C   UNL     1       5.367   4.849  16.411  0.00  0.00    +0.000 A 
ATOM     14  C   UNL     1       4.294   4.004  16.757  0.00  0.00    +0.000 A 
ATOM     15  C   UNL     1       3.252   4.477  17.557  0.00  0.00    +0.000 A 
ATOM     16  C   UNL     1       3.259   5.793  18.013  0.00  0.00    +0.000 A 
ATOM     17  C   UNL     1       4.289   6.664  17.607  0.00  0.00    +0.000 A 
ATOM     18  C   UNL     1       5.336   6.193  16.823  0.00  0.00    +0.000 A 
BRANCH  13  20
ATOM     19  N   UNL     1       7.723   4.579  16.050  0.00  0.00    +0.000 NA
ATOM     20  C   UNL     1       6.526   4.310  15.657  0.00  0.00    +0.000 C 
ATOM     21  N   UNL     1       6.334   3.569  14.457  0.00  0.00    +0.000 N 
ATOM     22  H   UNL     1       8.546   4.241  15.538  0.00  0.00    +0.000 HD
ATOM     23  H   UNL     1       7.141   3.246  13.907  0.00  0.00    +0.000 HD
ATOM     24  H   UNL     1       5.400   3.461  14.036  0.00  0.00    +0.000 HD
ENDBRANCH  13  20
ENDBRANCH  12  16
ENDBRANCH  11  12
ENDBRANCH   1  11
BRANCH   4  25
ATOM     25  C   UNL     1      -0.605  11.835  18.444  0.00  0.00    +0.000 C 
BRANCH  25  26
ATOM     26  O   UNL     1      -1.614  11.428  17.608  0.00  0.00    +0.000 OA
BRANCH  26  27
ATOM     27  C   UNL     1      -2.927  11.644  17.839  0.00  0.00    +0.000 A 
ATOM     28  C   UNL     1      -3.912  11.473  16.855  0.00  0.00    +0.000 A 
ATOM     29  C   UNL     1      -5.258  11.674  17.158  0.00  0.00    +0.000 A 
ATOM     30  C   UNL     1      -5.667  12.051  18.457  0.00  0.00    +0.000 A 
ATOM     31  C   UNL     1      -4.654  12.247  19.428  0.00  0.00    +0.000 A 
ATOM     32  C   UNL     1      -3.315  12.040  19.117  0.00  0.00    +0.000 A 
BRANCH  30  33
ATOM     33  C   UNL     1      -7.132  12.229  18.807  0.00  0.00    +0.000 C 
ATOM     34  N   UNL     1      -7.719  11.477  19.680  0.00  0.00    +0.000 NA
ATOM     35  N   UNL     1      -7.916  13.247  18.199  0.00  0.00    +0.000 N 
ATOM     36  H   UNL     1      -7.270  10.714  20.196  0.00  0.00    +0.000 HD
ATOM     37  H   UNL     1      -7.550  13.912  17.514  0.00  0.00    +0.000 HD
ATOM     38  H   UNL     1      -8.904  13.363  18.482  0.00  0.00    +0.000 HD
ENDBRANCH  30  33
ENDBRANCH  26  27
ENDBRANCH  25  26
ENDBRANCH   4  25
TORSDOF 8
ENDMDL
MODEL 6
REMARK VINA RESULT:      -8.4      2.393      9.889
REMARK  Name = 
REMARK  8 active torsions:
REMARK  status: ('A' for Active; 'I' for Inactive)
REMARK    1  A    between atoms: C_2  and  C_4
REMARK    2  A    between atoms: C_7  and  O_8
REMARK    3  A    between atoms: O_8  and  C_9
REMARK    4  A    between atoms: C_9  and  C_10
REMARK    5  A    between atoms: C_13  and  C_14
REMARK    6  A    between atoms: C_14  and  O_15
REMARK    7  A    between atoms: O_15  and  C_16
REMARK    8  A    between atoms: C_19  and  C_20
REMARK                            x       y       z     vdW  Elec       q    Type
REMARK                         _______ _______ _______ _____ _____    ______ ____
ROOT
ATOM      1  C   UNL     1      -0.147  11.010  19.237  0.00  0.00    +0.000 A 
ATOM      2  C   UNL     1       0.531  10.389  18.189  0.00  0.00    +0.000 A 
ATOM      3  C   UNL     1       1.304   9.267  18.417  0.00  0.00    +0.000 A 
ATOM      4  C   UNL     1       1.391   8.703  19.694  0.00  0.00    +0.000 A 
ATOM      5  C   UNL     1       0.676   9.284  20.776  0.00  0.00    +0.000 A 
ATOM      6  C   UNL     1       0.655   8.698  22.065  0.00  0.00    +0.000 A 
ATOM      7  C   UNL     1      -0.031   9.303  23.118  0.00  0.00    +0.000 A 
ATOM      8  C   UNL     1      -0.679  10.517  22.923  0.00  0.00    +0.000 A 
ATOM      9  C   UNL     1      -0.701  11.102  21.659  0.00  0.00    +0.000 A 
ATOM     10  C   UNL     1      -0.061  10.483  20.557  0.00  0.00    +0.000 A 
ENDROOT
BRANCH   1  11
ATOM     11  C   UNL     1      -1.024  12.171  18.888  0.00  0.00    +0.000 C 
BRANCH  11  12
ATOM     12  O   UNL     1      -2.255  11.729  18.466  0.00  0.00    +0.000 OA
BRANCH  12  16
ATOM     13  C   UNL     1      -5.741  12.460  20.608  0.00  0.00    +0.000 A 
ATOM     14  C   UNL     1      -4.488  12.889  21.087  0.00  0.00    +0.000 A 
ATOM     15  C   UNL     1      -3.332  12.669  20.336  0.00  0.00    +0.000 A 
ATOM     16  C   UNL     1      -3.409  12.032  19.100  0.00  0.00    +0.000 A 
ATOM     17  C   UNL     1      -4.667  11.670  18.581  0.00  0.00    +0.000 A 
ATOM     18  C   UNL     1      -5.819  11.873  19.333  0.00  0.00    +0.000 A 
BRANCH  13  20
ATOM     19  N   UNL     1      -7.166  11.737  22.398  0.00  0.00    +0.000 NA
ATOM     20  C   UNL     1      -6.949  12.593  21.459  0.00  0.00    +0.000 C 
ATOM     21  N   UNL     1      -7.916  13.606  21.200  0.00  0.00    +0.000 N 
ATOM     22  H   UNL     1      -8.004  11.788  22.990  0.00  0.00    +0.000 HD
ATOM     23  H   UNL     1      -8.779  13.660  21.757  0.00  0.00    +0.000 HD
ATOM     24  H   UNL     1      -7.848  14.213  20.371  0.00  0.00    +0.000 HD
ENDBRANCH  13  20
ENDBRANCH  12  16
ENDBRANCH  11  12
ENDBRANCH   1  11
BRANCH   4  25
ATOM     25  C   UNL     1       2.265   7.500  19.841  0.00  0.00    +0.000 C 
BRANCH  25  26
ATOM     26  O   UNL     1       2.110   6.695  18.741  0.00  0.00    +0.000 OA
BRANCH  26  27
ATOM     27  C   UNL     1       3.134   6.196  18.014  0.00  0.00    +0.000 A 
ATOM     28  C   UNL     1       3.373   4.820  17.881  0.00  0.00    +0.000 A 
ATOM     29  C   UNL     1       4.423   4.358  17.088  0.00  0.00    +0.000 A 
ATOM     30  C   UNL     1       5.268   5.256  16.397  0.00  0.00    +0.000 A 
ATOM     31  C   UNL     1       5.026   6.641  16.568  0.00  0.00    +0.000 A 
ATOM     32  C   UNL     1       3.975   7.091  17.359  0.00  0.00    +0.000 A 
BRANCH  30  33
ATOM     33  C   UNL     1       6.384   4.761  15.497  0.00  0.00    +0.000 C 
ATOM     34  N   UNL     1       7.543   5.334  15.472  0.00  0.00    +0.000 NA
ATOM     35  N   UNL     1       6.204   3.629  14.656  0.00  0.00    +0.000 N 
ATOM     36  H   UNL     1       7.808   6.150  16.033  0.00  0.00    +0.000 HD
ATOM     37  H   UNL     1       5.339   3.087  14.612  0.00  0.00    +0.000 HD
ATOM     38  H   UNL     1       6.994   3.298  14.077  0.00  0.00    +0.000 HD
ENDBRANCH  30  33
ENDBRANCH  26  27
ENDBRANCH  25  26
ENDBRANCH   4  25
TORSDOF 8
ENDMDL
MODEL 7
REMARK VINA RESULT:      -8.3      0.869      1.603
REMARK  Name = 
REMARK  8 active torsions:
REMARK  status: ('A' for Active; 'I' for Inactive)
REMARK    1  A    between atoms: C_2  and  C_4
REMARK    2  A    between atoms: C_7  and  O_8
REMARK    3  A    between atoms: O_8  and  C_9
REMARK    4  A    between atoms: C_9  and  C_10
REMARK    5  A    between atoms: C_13  and  C_14
REMARK    6  A    between atoms: C_14  and  O_15
REMARK    7  A    between atoms: O_15  and  C_16
REMARK    8  A    between atoms: C_19  and  C_20
REMARK                            x       y       z     vdW  Elec       q    Type
REMARK                         _______ _______ _______ _____ _____    ______ ____
ROOT
ATOM      1  C   UNL     1       0.843   9.237  20.539  0.00  0.00    +0.000 A 
ATOM      2  C   UNL     1       1.136   9.471  19.196  0.00  0.00    +0.000 A 
ATOM      3  C   UNL     1       0.532  10.511  18.514  0.00  0.00    +0.000 A 
ATOM      4  C   UNL     1      -0.354  11.375  19.164  0.00  0.00    +0.000 A 
ATOM      5  C   UNL     1      -0.641  11.192  20.544  0.00  0.00    +0.000 A 
ATOM      6  C   UNL     1      -1.456  12.095  21.269  0.00  0.00    +0.000 A 
ATOM      7  C   UNL     1      -1.745  11.877  22.615  0.00  0.00    +0.000 A 
ATOM      8  C   UNL     1      -1.262  10.745  23.259  0.00  0.00    +0.000 A 
ATOM      9  C   UNL     1      -0.433   9.854  22.580  0.00  0.00    +0.000 A 
ATOM     10  C   UNL     1      -0.076  10.078  21.227  0.00  0.00    +0.000 A 
ENDROOT
BRANCH   1  11
ATOM     11  C   UNL     1       1.601   8.142  21.220  0.00  0.00    +0.000 C 
BRANCH  11  12
ATOM     12  O   UNL     1       1.128   6.915  20.819  0.00  0.00    +0.000 OA
BRANCH  12  16
ATOM     13  C   UNL     1       3.369   3.943  18.969  0.00  0.00    +0.000 A 
ATOM     14  C   UNL     1       3.368   5.265  18.482  0.00  0.00    +0.000 A 
ATOM     15  C   UNL     1       2.640   6.258  19.139  0.00  0.00    +0.000 A 
ATOM     16  C   UNL     1       1.916   5.954  20.289  0.00  0.00    +0.000 A 
ATOM     17  C   UNL     1       1.976   4.652  20.823  0.00  0.00    +0.000 A 
ATOM     18  C   UNL     1       2.686   3.656  20.163  0.00  0.00    +0.000 A 
BRANCH  13  20
ATOM     19  N   UNL     1       3.950   1.645  18.596  0.00  0.00    +0.000 NA
ATOM     20  C   UNL     1       4.050   2.868  18.204  0.00  0.00    +0.000 C 
ATOM     21  N   UNL     1       4.881   3.180  17.091  0.00  0.00    +0.000 N 
ATOM     22  H   UNL     1       4.427   0.881  18.104  0.00  0.00    +0.000 HD
ATOM     23  H   UNL     1       5.396   2.437  16.599  0.00  0.00    +0.000 HD
ATOM     24  H   UNL     1       5.100   4.155  16.840  0.00  0.00    +0.000 HD
ENDBRANCH  13  20
ENDBRANCH  12  16
ENDBRANCH  11  12
ENDBRANCH   1  11
BRANCH   4  25
ATOM     25  C   UNL     1      -0.968  12.458  18.336  0.00  0.00    +0.000 C 
BRANCH  25  26
ATOM     26  O   UNL     1      -1.899  11.906  17.493  0.00  0.00    +0.000 OA
BRANCH  26  27
ATOM     27  C   UNL     1      -3.114  11.464  17.887  0.00  0.00    +0.000 A 
ATOM     28  C   UNL     1      -3.589  10.179  17.589  0.00  0.00    +0.000 A 
ATOM     29  C   UNL     1      -4.836   9.761  18.052  0.00  0.00    +0.000 A 
ATOM     30  C   UNL     1      -5.650  10.613  18.832  0.00  0.00    +0.000 A 
ATOM     31  C   UNL     1      -5.163  11.916  19.096  0.00  0.00    +0.000 A 
ATOM     32  C   UNL     1      -3.917  12.322  18.633  0.00  0.00    +0.000 A 
BRANCH  30  33
ATOM     33  C   UNL     1      -6.988  10.150  19.377  0.00  0.00    +0.000 C 
ATOM     34  N   UNL     1      -7.415   8.943  19.198  0.00  0.00    +0.000 NA
ATOM     35  N   UNL     1      -7.820  11.026  20.126  0.00  0.00    +0.000 N 
ATOM     36  H   UNL     1      -6.913   8.211  18.686  0.00  0.00    +0.000 HD
ATOM     37  H   UNL     1      -7.572  11.993  20.348  0.00  0.00    +0.000 HD
ATOM     38  H   UNL     1      -8.712  10.672  20.511  0.00  0.00    +0.000 HD
ENDBRANCH  30  33
ENDBRANCH  26  27
ENDBRANCH  25  26
ENDBRANCH   4  25
TORSDOF 8
ENDMDL
MODEL 8
REMARK VINA RESULT:      -8.3      3.633      6.124
REMARK  Name = 
REMARK  8 active torsions:
REMARK  status: ('A' for Active; 'I' for Inactive)
REMARK    1  A    between atoms: C_2  and  C_4
REMARK    2  A    between atoms: C_7  and  O_8
REMARK    3  A    between atoms: O_8  and  C_9
REMARK    4  A    between atoms: C_9  and  C_10
REMARK    5  A    between atoms: C_13  and  C_14
REMARK    6  A    between atoms: C_14  and  O_15
REMARK    7  A    between atoms: O_15  and  C_16
REMARK    8  A    between atoms: C_19  and  C_20
REMARK                            x       y       z     vdW  Elec       q    Type
REMARK                         _______ _______ _______ _____ _____    ______ ____
ROOT
ATOM      1  C   UNL     1       2.441   4.454  17.929  0.00  0.00    +0.000 A 
ATOM      2  C   UNL     1       2.497   5.821  17.663  0.00  0.00    +0.000 A 
ATOM      3  C   UNL     1       2.312   6.745  18.675  0.00  0.00    +0.000 A 
ATOM      4  C   UNL     1       2.107   6.330  19.994  0.00  0.00    +0.000 A 
ATOM      5  C   UNL     1       2.090   4.944  20.308  0.00  0.00    +0.000 A 
ATOM      6  C   UNL     1       1.980   4.476  21.640  0.00  0.00    +0.000 A 
ATOM      7  C   UNL     1       1.936   3.111  21.920  0.00  0.00    +0.000 A 
ATOM      8  C   UNL     1       1.964   2.185  20.884  0.00  0.00    +0.000 A 
ATOM      9  C   UNL     1       2.102   2.615  19.566  0.00  0.00    +0.000 A 
ATOM     10  C   UNL     1       2.205   3.993  19.255  0.00  0.00    +0.000 A 
ENDROOT
BRANCH   1  11
ATOM     11  C   UNL     1       2.730   3.526  16.792  0.00  0.00    +0.000 C 
BRANCH  11  12
ATOM     12  O   UNL     1       4.073   3.237  16.743  0.00  0.00    +0.000 OA
BRANCH  12  16
ATOM     13  C   UNL     1       6.852   6.204  17.611  0.00  0.00    +0.000 A 
ATOM     14  C   UNL     1       6.477   5.251  18.578  0.00  0.00    +0.000 A 
ATOM     15  C   UNL     1       5.571   4.238  18.257  0.00  0.00    +0.000 A 
ATOM     16  C   UNL     1       5.037   4.154  16.974  0.00  0.00    +0.000 A 
ATOM     17  C   UNL     1       5.468   5.057  15.982  0.00  0.00    +0.000 A 
ATOM     18  C   UNL     1       6.357   6.076  16.301  0.00  0.00    +0.000 A 
BRANCH  13  20
ATOM     19  N   UNL     1       7.737   8.406  17.258  0.00  0.00    +0.000 NA
ATOM     20  C   UNL     1       7.725   7.344  17.987  0.00  0.00    +0.000 C 
ATOM     21  N   UNL     1       8.612   7.247  19.097  0.00  0.00    +0.000 N 
ATOM     22  H   UNL     1       8.346   9.203  17.478  0.00  0.00    +0.000 HD
ATOM     23  H   UNL     1       9.256   8.018  19.320  0.00  0.00    +0.000 HD
ATOM     24  H   UNL     1       8.734   6.363  19.611  0.00  0.00    +0.000 HD
ENDBRANCH  13  20
ENDBRANCH  12  16
ENDBRANCH  11  12
ENDBRANCH   1  11
BRANCH   4  25
ATOM     25  C   UNL     1       1.902   7.404  21.013  0.00  0.00    +0.000 C 
BRANCH  25  26
ATOM     26  O   UNL     1       1.240   8.455  20.431  0.00  0.00    +0.000 OA
BRANCH  26  27
ATOM     27  C   UNL     1       0.442   9.316  21.101  0.00  0.00    +0.000 A 
ATOM     28  C   UNL     1      -0.049   9.053  22.388  0.00  0.00    +0.000 A 
ATOM     29  C   UNL     1      -0.839   9.993  23.050  0.00  0.00    +0.000 A 
ATOM     30  C   UNL     1      -1.163  11.230  22.448  0.00  0.00    +0.000 A 
ATOM     31  C   UNL     1      -0.680  11.463  21.137  0.00  0.00    +0.000 A 
ATOM     32  C   UNL     1       0.110  10.521  20.488  0.00  0.00    +0.000 A 
BRANCH  30  33
ATOM     33  C   UNL     1      -1.984  12.276  23.178  0.00  0.00    +0.000 C 
ATOM     34  N   UNL     1      -3.172  12.021  23.620  0.00  0.00    +0.000 NA
ATOM     35  N   UNL     1      -1.468  13.577  23.423  0.00  0.00    +0.000 N 
ATOM     36  H   UNL     1      -3.658  11.124  23.519  0.00  0.00    +0.000 HD
ATOM     37  H   UNL     1      -0.534  13.880  23.140  0.00  0.00    +0.000 HD
ATOM     38  H   UNL     1      -2.040  14.258  23.951  0.00  0.00    +0.000 HD
ENDBRANCH  30  33
ENDBRANCH  26  27
ENDBRANCH  25  26
ENDBRANCH   4  25
TORSDOF 8
ENDMDL
MODEL 9
REMARK VINA RESULT:      -8.3      2.653      9.634
REMARK  Name = 
REMARK  8 active torsions:
REMARK  status: ('A' for Active; 'I' for Inactive)
REMARK    1  A    between atoms: C_2  and  C_4
REMARK    2  A    between atoms: C_7  and  O_8
REMARK    3  A    between atoms: O_8  and  C_9
REMARK    4  A    between atoms: C_9  and  C_10
REMARK    5  A    between atoms: C_13  and  C_14
REMARK    6  A    between atoms: C_14  and  O_15
REMARK    7  A    between atoms: O_15  and  C_16
REMARK    8  A    between atoms: C_19  and  C_20
REMARK                            x       y       z     vdW  Elec       q    Type
REMARK                         _______ _______ _______ _____ _____    ______ ____
ROOT
ATOM      1  C   UNL     1       1.079  10.946  19.076  0.00  0.00    +0.000 A 
ATOM      2  C   UNL     1       1.718  10.365  17.981  0.00  0.00    +0.000 A 
ATOM      3  C   UNL     1       2.083   9.032  18.003  0.00  0.00    +0.000 A 
ATOM      4  C   UNL     1       1.784   8.226  19.106  0.00  0.00    +0.000 A 
ATOM      5  C   UNL     1       1.093   8.774  20.220  0.00  0.00    +0.000 A 
ATOM      6  C   UNL     1       0.684   7.979  21.317  0.00  0.00    +0.000 A 
ATOM      7  C   UNL     1       0.032   8.546  22.411  0.00  0.00    +0.000 A 
ATOM      8  C   UNL     1      -0.194   9.916  22.456  0.00  0.00    +0.000 A 
ATOM      9  C   UNL     1       0.170  10.720  21.378  0.00  0.00    +0.000 A 
ATOM     10  C   UNL     1       0.783  10.164  20.228  0.00  0.00    +0.000 A 
ENDROOT
BRANCH   1  11
ATOM     11  C   UNL     1       0.649  12.372  18.935  0.00  0.00    +0.000 C 
BRANCH  11  12
ATOM     12  O   UNL     1      -0.307  12.486  17.954  0.00  0.00    +0.000 OA
BRANCH  12  16
ATOM     13  C   UNL     1      -4.313  11.414  18.242  0.00  0.00    +0.000 A 
ATOM     14  C   UNL     1      -3.529  11.016  17.141  0.00  0.00    +0.000 A 
ATOM     15  C   UNL     1      -2.176  11.352  17.080  0.00  0.00    +0.000 A 
ATOM     16  C   UNL     1      -1.585  12.076  18.113  0.00  0.00    +0.000 A 
ATOM     17  C   UNL     1      -2.344  12.408  19.251  0.00  0.00    +0.000 A 
ATOM     18  C   UNL     1      -3.696  12.089  19.309  0.00  0.00    +0.000 A 
BRANCH  13  20
ATOM     19  N   UNL     1      -6.248  10.201  18.975  0.00  0.00    +0.000 NA
ATOM     20  C   UNL     1      -5.774  11.153  18.249  0.00  0.00    +0.000 C 
ATOM     21  N   UNL     1      -6.650  11.887  17.400  0.00  0.00    +0.000 N 
ATOM     22  H   UNL     1      -7.251   9.979  18.985  0.00  0.00    +0.000 HD
ATOM     23  H   UNL     1      -7.654  11.666  17.367  0.00  0.00    +0.000 HD
ATOM     24  H   UNL     1      -6.288  12.553  16.702  0.00  0.00    +0.000 HD
ENDBRANCH  13  20
ENDBRANCH  12  16
ENDBRANCH  11  12
ENDBRANCH   1  11
BRANCH   4  25
ATOM     25  C   UNL     1       2.235   6.802  19.040  0.00  0.00    +0.000 C 
BRANCH  25  26
ATOM     26  O   UNL     1       3.605   6.767  18.973  0.00  0.00    +0.000 OA
BRANCH  26  27
ATOM     27  C   UNL     1       4.302   6.209  17.960  0.00  0.00    +0.000 A 
ATOM     28  C   UNL     1       3.945   4.986  17.373  0.00  0.00    +0.000 A 
ATOM     29  C   UNL     1       4.679   4.473  16.304  0.00  0.00    +0.000 A 
ATOM     30  C   UNL     1       5.794   5.166  15.782  0.00  0.00    +0.000 A 
ATOM     31  C   UNL     1       6.155   6.385  16.409  0.00  0.00    +0.000 A 
ATOM     32  C   UNL     1       5.415   6.890  17.471  0.00  0.00    +0.000 A 
BRANCH  30  33
ATOM     33  C   UNL     1       6.571   4.638  14.591  0.00  0.00    +0.000 C 
ATOM     34  N   UNL     1       6.271   3.513  14.029  0.00  0.00    +0.000 NA
ATOM     35  N   UNL     1       7.651   5.372  14.032  0.00  0.00    +0.000 N 
ATOM     36  H   UNL     1       5.513   2.890  14.325  0.00  0.00    +0.000 HD
ATOM     37  H   UNL     1       7.960   6.283  14.381  0.00  0.00    +0.000 HD
ATOM     38  H   UNL     1       8.141   5.000  13.201  0.00  0.00    +0.000 HD
ENDBRANCH  30  33
ENDBRANCH  26  27
ENDBRANCH  25  26
ENDBRANCH   4  25
TORSDOF 8
ENDMDL
