MODEL 1
REMARK VINA RESULT:      -8.6      0.000      0.000
REMARK  Name = 
REMARK  3 active torsions:
REMARK  status: ('A' for Active; 'I' for Inactive)
REMARK    1  A    between atoms: C_1  and  C_2
REMARK    2  A    between atoms: C_6  and  C_7
REMARK    3  A    between atoms: C_12  and  N_13
REMARK                            x       y       z     vdW  Elec       q    Type
REMARK                         _______ _______ _______ _____ _____    ______ ____
ROOT
ATOM      1  C   UNL     1       6.868   4.826  16.336  0.00  0.00    +0.000 C 
ATOM      2  O   UNL     1       7.952   4.927  16.916  0.00  0.00    +0.000 OA
ATOM      3  N   UNL     1       5.651   4.906  17.045  0.00  0.00    +0.000 N 
ATOM      4  C   UNL     1       5.746   5.531  18.369  0.00  0.00    +0.000 C 
ATOM      5  C   UNL     1       4.608   5.169  19.318  0.00  0.00    +0.000 C 
ATOM      6  C   UNL     1       3.224   5.278  18.675  0.00  0.00    +0.000 C 
ATOM      7  C   UNL     1       3.204   4.470  17.375  0.00  0.00    +0.000 C 
ATOM      8  C   UNL     1       4.330   4.858  16.423  0.00  0.00    +0.000 C 
ENDROOT
BRANCH   6   9
ATOM      9  N   UNL     1       2.754   6.649  18.520  0.00  0.00    +0.000 N 
ATOM     10  N   UNL     1       3.000   7.328  17.383  0.00  0.00    +0.000 NA
ATOM     11  N   UNL     1       2.530   8.558  17.525  0.00  0.00    +0.000 NA
ATOM     12  C   UNL     1       1.957   8.649  18.760  0.00  0.00    +0.000 A 
ATOM     13  C   UNL     1       1.329   9.736  19.382  0.00  0.00    +0.000 A 
ATOM     14  C   UNL     1       0.819   9.539  20.662  0.00  0.00    +0.000 A 
ATOM     15  F   UNL     1       0.211  10.558  21.284  0.00  0.00    +0.000 F 
ATOM     16  C   UNL     1       0.918   8.311  21.314  0.00  0.00    +0.000 A 
ATOM     17  C   UNL     1       1.551   7.219  20.706  0.00  0.00    +0.000 A 
ATOM     18  C   UNL     1       2.068   7.428  19.421  0.00  0.00    +0.000 A 
ENDBRANCH   6   9
BRANCH   1  24
ATOM     19  C   UNL     1       5.220   2.681  12.048  0.00  0.00    +0.000 C 
ATOM     20  C   UNL     1       6.143   3.628  12.758  0.00  0.00    +0.000 A 
ATOM     21  C   UNL     1       7.062   4.408  12.053  0.00  0.00    +0.000 A 
ATOM     22  C   UNL     1       7.900   5.290  12.733  0.00  0.00    +0.000 A 
ATOM     23  C   UNL     1       7.842   5.377  14.126  0.00  0.00    +0.000 A 
ATOM     24  C   UNL     1       6.935   4.596  14.859  0.00  0.00    +0.000 A 
ATOM     25  C   UNL     1       6.062   3.756  14.155  0.00  0.00    +0.000 A 
ENDBRANCH   1  24
TORSDOF 2
ENDMDL
MODEL 2
REMARK VINA RESULT:      -7.8      1.735      2.772
REMARK  Name = 
REMARK  3 active torsions:
REMARK  status: ('A' for Active; 'I' for Inactive)
REMARK    1  A    between atoms: C_1  and  C_2
REMARK    2  A    between atoms: C_6  and  C_7
REMARK    3  A    between atoms: C_12  and  N_13
REMARK                            x       y       z     vdW  Elec       q    Type
REMARK                         _______ _______ _______ _____ _____    ______ ____
ROOT
ATOM      1  C   UNL     1       6.826   4.608  13.756  0.00  0.00    +0.000 C 
ATOM      2  O   UNL     1       7.770   5.275  13.325  0.00  0.00    +0.000 OA
ATOM      3  N   UNL     1       6.486   4.625  15.125  0.00  0.00    +0.000 N 
ATOM      4  C   UNL     1       7.014   5.767  15.879  0.00  0.00    +0.000 C 
ATOM      5  C   UNL     1       7.099   5.541  17.386  0.00  0.00    +0.000 C 
ATOM      6  C   UNL     1       5.827   4.933  17.981  0.00  0.00    +0.000 C 
ATOM      7  C   UNL     1       5.456   3.670  17.202  0.00  0.00    +0.000 C 
ATOM      8  C   UNL     1       5.347   3.913  15.700  0.00  0.00    +0.000 C 
ENDROOT
BRANCH   6   9
ATOM      9  N   UNL     1       4.730   5.883  18.115  0.00  0.00    +0.000 N 
ATOM     10  N   UNL     1       4.650   6.949  17.296  0.00  0.00    +0.000 NA
ATOM     11  N   UNL     1       3.610   7.680  17.667  0.00  0.00    +0.000 NA
ATOM     12  C   UNL     1       3.010   7.053  18.720  0.00  0.00    +0.000 A 
ATOM     13  C   UNL     1       1.883   7.425  19.465  0.00  0.00    +0.000 A 
ATOM     14  C   UNL     1       1.482   6.576  20.493  0.00  0.00    +0.000 A 
ATOM     15  F   UNL     1       0.408   6.903  21.223  0.00  0.00    +0.000 F 
ATOM     16  C   UNL     1       2.163   5.395  20.782  0.00  0.00    +0.000 A 
ATOM     17  C   UNL     1       3.296   5.016  20.049  0.00  0.00    +0.000 A 
ATOM     18  C   UNL     1       3.697   5.880  19.021  0.00  0.00    +0.000 A 
ENDBRANCH   6   9
BRANCH   1  24
ATOM     19  C   UNL     1       6.229   0.409  10.978  0.00  0.00    +0.000 C 
ATOM     20  C   UNL     1       5.735   1.754  11.427  0.00  0.00    +0.000 A 
ATOM     21  C   UNL     1       4.513   2.263  10.980  0.00  0.00    +0.000 A 
ATOM     22  C   UNL     1       4.070   3.509  11.420  0.00  0.00    +0.000 A 
ATOM     23  C   UNL     1       4.858   4.264  12.290  0.00  0.00    +0.000 A 
ATOM     24  C   UNL     1       6.094   3.780  12.746  0.00  0.00    +0.000 A 
ATOM     25  C   UNL     1       6.499   2.503  12.337  0.00  0.00    +0.000 A 
ENDBRANCH   1  24
TORSDOF 2
ENDMDL
MODEL 3
REMARK VINA RESULT:      -7.7      0.510      1.380
REMARK  Name = 
REMARK  3 active torsions:
REMARK  status: ('A' for Active; 'I' for Inactive)
REMARK    1  A    between atoms: C_1  and  C_2
REMARK    2  A    between atoms: C_6  and  C_7
REMARK    3  A    between atoms: C_12  and  N_13
REMARK                            x       y       z     vdW  Elec       q    Type
REMARK                         _______ _______ _______ _____ _____    ______ ____
ROOT
ATOM      1  C   UNL     1       6.624   4.941  16.578  0.00  0.00    +0.000 C 
ATOM      2  O   UNL     1       7.714   5.020  17.151  0.00  0.00    +0.000 OA
ATOM      3  N   UNL     1       5.413   5.040  17.297  0.00  0.00    +0.000 N 
ATOM      4  C   UNL     1       5.530   5.657  18.622  0.00  0.00    +0.000 C 
ATOM      5  C   UNL     1       4.392   5.312  19.579  0.00  0.00    +0.000 C 
ATOM      6  C   UNL     1       3.006   5.448  18.946  0.00  0.00    +0.000 C 
ATOM      7  C   UNL     1       2.962   4.647  17.644  0.00  0.00    +0.000 C 
ATOM      8  C   UNL     1       4.087   5.018  16.684  0.00  0.00    +0.000 C 
ENDROOT
BRANCH   6   9
ATOM      9  N   UNL     1       2.560   6.828  18.801  0.00  0.00    +0.000 N 
ATOM     10  N   UNL     1       2.796   7.502  17.659  0.00  0.00    +0.000 NA
ATOM     11  N   UNL     1       2.353   8.741  17.810  0.00  0.00    +0.000 NA
ATOM     12  C   UNL     1       1.807   8.843  19.056  0.00  0.00    +0.000 A 
ATOM     13  C   UNL     1       1.213   9.942  19.691  0.00  0.00    +0.000 A 
ATOM     14  C   UNL     1       0.725   9.755  20.981  0.00  0.00    +0.000 A 
ATOM     15  F   UNL     1       0.150  10.786  21.614  0.00  0.00    +0.000 F 
ATOM     16  C   UNL     1       0.813   8.526  21.631  0.00  0.00    +0.000 A 
ATOM     17  C   UNL     1       1.412   7.421  21.011  0.00  0.00    +0.000 A 
ATOM     18  C   UNL     1       1.907   7.621  19.715  0.00  0.00    +0.000 A 
ENDBRANCH   6   9
BRANCH   1  24
ATOM     19  C   UNL     1       8.325   6.033  11.929  0.00  0.00    +0.000 C 
ATOM     20  C   UNL     1       7.508   5.171  12.847  0.00  0.00    +0.000 A 
ATOM     21  C   UNL     1       6.818   4.055  12.367  0.00  0.00    +0.000 A 
ATOM     22  C   UNL     1       6.075   3.262  13.241  0.00  0.00    +0.000 A 
ATOM     23  C   UNL     1       6.000   3.595  14.594  0.00  0.00    +0.000 A 
ATOM     24  C   UNL     1       6.676   4.716  15.100  0.00  0.00    +0.000 A 
ATOM     25  C   UNL     1       7.460   5.470  14.219  0.00  0.00    +0.000 A 
ENDBRANCH   1  24
TORSDOF 2
ENDMDL
MODEL 4
REMARK VINA RESULT:      -7.7      1.744      2.806
REMARK  Name = 
REMARK  3 active torsions:
REMARK  status: ('A' for Active; 'I' for Inactive)
REMARK    1  A    between atoms: C_1  and  C_2
REMARK    2  A    between atoms: C_6  and  C_7
REMARK    3  A    between atoms: C_12  and  N_13
REMARK                            x       y       z     vdW  Elec       q    Type
REMARK                         _______ _______ _______ _____ _____    ______ ____
ROOT
ATOM      1  C   UNL     1       6.732   4.478  13.706  0.00  0.00    +0.000 C 
ATOM      2  O   UNL     1       7.684   5.127  13.262  0.00  0.00    +0.000 OA
ATOM      3  N   UNL     1       6.403   4.512  15.078  0.00  0.00    +0.000 N 
ATOM      4  C   UNL     1       6.955   5.652  15.818  0.00  0.00    +0.000 C 
ATOM      5  C   UNL     1       7.048   5.437  17.326  0.00  0.00    +0.000 C 
ATOM      6  C   UNL     1       5.772   4.855  17.936  0.00  0.00    +0.000 C 
ATOM      7  C   UNL     1       5.375   3.591  17.171  0.00  0.00    +0.000 C 
ATOM      8  C   UNL     1       5.258   3.823  15.668  0.00  0.00    +0.000 C 
ENDROOT
BRANCH   6   9
ATOM      9  N   UNL     1       4.691   5.822  18.070  0.00  0.00    +0.000 N 
ATOM     10  N   UNL     1       4.612   6.874  17.232  0.00  0.00    +0.000 NA
ATOM     11  N   UNL     1       3.589   7.627  17.607  0.00  0.00    +0.000 NA
ATOM     12  C   UNL     1       2.998   7.028  18.681  0.00  0.00    +0.000 A 
ATOM     13  C   UNL     1       1.889   7.430  19.437  0.00  0.00    +0.000 A 
ATOM     14  C   UNL     1       1.493   6.607  20.488  0.00  0.00    +0.000 A 
ATOM     15  F   UNL     1       0.436   6.963  21.229  0.00  0.00    +0.000 F 
ATOM     16  C   UNL     1       2.162   5.422  20.788  0.00  0.00    +0.000 A 
ATOM     17  C   UNL     1       3.277   5.013  20.044  0.00  0.00    +0.000 A 
ATOM     18  C   UNL     1       3.673   5.851  18.994  0.00  0.00    +0.000 A 
ENDBRANCH   6   9
BRANCH   1  24
ATOM     19  C   UNL     1       3.024   3.816  10.313  0.00  0.00    +0.000 C 
ATOM     20  C   UNL     1       4.242   3.304  11.027  0.00  0.00    +0.000 A 
ATOM     21  C   UNL     1       4.783   2.051  10.729  0.00  0.00    +0.000 A 
ATOM     22  C   UNL     1       5.921   1.603  11.397  0.00  0.00    +0.000 A 
ATOM     23  C   UNL     1       6.510   2.395  12.384  0.00  0.00    +0.000 A 
ATOM     24  C   UNL     1       5.980   3.653  12.710  0.00  0.00    +0.000 A 
ATOM     25  C   UNL     1       4.869   4.111  11.992  0.00  0.00    +0.000 A 
ENDBRANCH   1  24
TORSDOF 2
ENDMDL
MODEL 5
REMARK VINA RESULT:      -7.7      4.746      6.568
REMARK  Name = 
REMARK  3 active torsions:
REMARK  status: ('A' for Active; 'I' for Inactive)
REMARK    1  A    between atoms: C_1  and  C_2
REMARK    2  A    between atoms: C_6  and  C_7
REMARK    3  A    between atoms: C_12  and  N_13
REMARK                            x       y       z     vdW  Elec       q    Type
REMARK                         _______ _______ _______ _____ _____    ______ ____
ROOT
ATOM      1  C   UNL     1       2.495   6.774  18.652  0.00  0.00    +0.000 C 
ATOM      2  O   UNL     1       3.296   6.673  17.718  0.00  0.00    +0.000 OA
ATOM      3  N   UNL     1       1.937   8.023  19.001  0.00  0.00    +0.000 N 
ATOM      4  C   UNL     1       2.021   9.051  17.958  0.00  0.00    +0.000 C 
ATOM      5  C   UNL     1       1.907  10.482  18.476  0.00  0.00    +0.000 C 
ATOM      6  C   UNL     1       0.752  10.681  19.459  0.00  0.00    +0.000 C 
ATOM      7  C   UNL     1       0.852   9.642  20.577  0.00  0.00    +0.000 C 
ATOM      8  C   UNL     1       0.938   8.214  20.049  0.00  0.00    +0.000 C 
ENDROOT
BRANCH   6   9
ATOM      9  N   UNL     1      -0.558  10.733  18.822  0.00  0.00    +0.000 N 
ATOM     10  N   UNL     1      -0.769  10.102  17.650  0.00  0.00    +0.000 NA
ATOM     11  N   UNL     1      -2.009  10.359  17.259  0.00  0.00    +0.000 NA
ATOM     12  C   UNL     1      -2.595  11.142  18.210  0.00  0.00    +0.000 A 
ATOM     13  C   UNL     1      -3.888  11.681  18.259  0.00  0.00    +0.000 A 
ATOM     14  C   UNL     1      -4.225  12.446  19.372  0.00  0.00    +0.000 A 
ATOM     15  F   UNL     1      -5.454  12.974  19.449  0.00  0.00    +0.000 F 
ATOM     16  C   UNL     1      -3.324  12.675  20.410  0.00  0.00    +0.000 A 
ATOM     17  C   UNL     1      -2.026  12.149  20.369  0.00  0.00    +0.000 A 
ATOM     18  C   UNL     1      -1.693  11.386  19.242  0.00  0.00    +0.000 A 
ENDBRANCH   6   9
BRANCH   1  24
ATOM     19  C   UNL     1       0.673   2.048  18.868  0.00  0.00    +0.000 C 
ATOM     20  C   UNL     1       1.362   3.209  19.525  0.00  0.00    +0.000 A 
ATOM     21  C   UNL     1       1.818   3.128  20.843  0.00  0.00    +0.000 A 
ATOM     22  C   UNL     1       2.465   4.215  21.428  0.00  0.00    +0.000 A 
ATOM     23  C   UNL     1       2.637   5.398  20.706  0.00  0.00    +0.000 A 
ATOM     24  C   UNL     1       2.179   5.509  19.385  0.00  0.00    +0.000 A 
ATOM     25  C   UNL     1       1.579   4.389  18.794  0.00  0.00    +0.000 A 
ENDBRANCH   1  24
TORSDOF 2
ENDMDL
MODEL 6
REMARK VINA RESULT:      -7.6      4.435      6.471
REMARK  Name = 
REMARK  3 active torsions:
REMARK  status: ('A' for Active; 'I' for Inactive)
REMARK    1  A    between atoms: C_1  and  C_2
REMARK    2  A    between atoms: C_6  and  C_7
REMARK    3  A    between atoms: C_12  and  N_13
REMARK                            x       y       z     vdW  Elec       q    Type
REMARK                         _______ _______ _______ _____ _____    ______ ____
ROOT
ATOM      1  C   UNL     1       2.636   6.917  18.261  0.00  0.00    +0.000 C 
ATOM      2  O   UNL     1       3.475   7.009  17.361  0.00  0.00    +0.000 OA
ATOM      3  N   UNL     1       2.017   8.065  18.802  0.00  0.00    +0.000 N 
ATOM      4  C   UNL     1       2.101   9.265  17.963  0.00  0.00    +0.000 C 
ATOM      5  C   UNL     1       1.913  10.576  18.722  0.00  0.00    +0.000 C 
ATOM      6  C   UNL     1       0.714  10.560  19.673  0.00  0.00    +0.000 C 
ATOM      7  C   UNL     1       0.813   9.341  20.591  0.00  0.00    +0.000 C 
ATOM      8  C   UNL     1       0.973   8.034  19.823  0.00  0.00    +0.000 C 
ENDROOT
BRANCH   6   9
ATOM      9  N   UNL     1      -0.571  10.684  18.998  0.00  0.00    +0.000 N 
ATOM     10  N   UNL     1      -0.775  10.086  17.808  0.00  0.00    +0.000 NA
ATOM     11  N   UNL     1      -1.989  10.408  17.386  0.00  0.00    +0.000 NA
ATOM     12  C   UNL     1      -2.569  11.198  18.335  0.00  0.00    +0.000 A 
ATOM     13  C   UNL     1      -3.836  11.794  18.357  0.00  0.00    +0.000 A 
ATOM     14  C   UNL     1      -4.173  12.552  19.475  0.00  0.00    +0.000 A 
ATOM     15  F   UNL     1      -5.378  13.134  19.527  0.00  0.00    +0.000 F 
ATOM     16  C   UNL     1      -3.294  12.720  20.543  0.00  0.00    +0.000 A 
ATOM     17  C   UNL     1      -2.020  12.135  20.530  0.00  0.00    +0.000 A 
ATOM     18  C   UNL     1      -1.688  11.380  19.398  0.00  0.00    +0.000 A 
ENDBRANCH   6   9
BRANCH   1  24
ATOM     19  C   UNL     1       2.268   3.418  21.912  0.00  0.00    +0.000 C 
ATOM     20  C   UNL     1       2.098   3.825  20.477  0.00  0.00    +0.000 A 
ATOM     21  C   UNL     1       1.573   2.941  19.531  0.00  0.00    +0.000 A 
ATOM     22  C   UNL     1       1.414   3.345  18.207  0.00  0.00    +0.000 A 
ATOM     23  C   UNL     1       1.802   4.627  17.815  0.00  0.00    +0.000 A 
ATOM     24  C   UNL     1       2.342   5.531  18.743  0.00  0.00    +0.000 A 
ATOM     25  C   UNL     1       2.444   5.128  20.080  0.00  0.00    +0.000 A 
ENDBRANCH   1  24
TORSDOF 2
ENDMDL
MODEL 7
REMARK VINA RESULT:      -7.4      4.496      6.717
REMARK  Name = 
REMARK  3 active torsions:
REMARK  status: ('A' for Active; 'I' for Inactive)
REMARK    1  A    between atoms: C_1  and  C_2
REMARK    2  A    between atoms: C_6  and  C_7
REMARK    3  A    between atoms: C_12  and  N_13
REMARK                            x       y       z     vdW  Elec       q    Type
REMARK                         _______ _______ _______ _____ _____    ______ ____
ROOT
ATOM      1  C   UNL     1       2.400   7.822  18.320  0.00  0.00    +0.000 C 
ATOM      2  O   UNL     1       3.124   7.913  17.324  0.00  0.00    +0.000 OA
ATOM      3  N   UNL     1       1.812   8.965  18.900  0.00  0.00    +0.000 N 
ATOM      4  C   UNL     1       1.755  10.143  18.027  0.00  0.00    +0.000 C 
ATOM      5  C   UNL     1       1.614  11.469  18.769  0.00  0.00    +0.000 C 
ATOM      6  C   UNL     1       0.537  11.444  19.855  0.00  0.00    +0.000 C 
ATOM      7  C   UNL     1       0.784  10.257  20.787  0.00  0.00    +0.000 C 
ATOM      8  C   UNL     1       0.897   8.933  20.039  0.00  0.00    +0.000 C 
ENDROOT
BRANCH   6   9
ATOM      9  N   UNL     1      -0.822  11.509  19.335  0.00  0.00    +0.000 N 
ATOM     10  N   UNL     1      -1.086  11.127  18.071  0.00  0.00    +0.000 NA
ATOM     11  N   UNL     1      -2.370  11.346  17.831  0.00  0.00    +0.000 NA
ATOM     12  C   UNL     1      -2.930  11.848  18.969  0.00  0.00    +0.000 A 
ATOM     13  C   UNL     1      -4.251  12.241  19.223  0.00  0.00    +0.000 A 
ATOM     14  C   UNL     1      -4.548  12.716  20.497  0.00  0.00    +0.000 A 
ATOM     15  F   UNL     1      -5.802  13.098  20.772  0.00  0.00    +0.000 F 
ATOM     16  C   UNL     1      -3.581  12.800  21.496  0.00  0.00    +0.000 A 
ATOM     17  C   UNL     1      -2.255  12.418  21.253  0.00  0.00    +0.000 A 
ATOM     18  C   UNL     1      -1.963  11.948  19.965  0.00  0.00    +0.000 A 
ENDBRANCH   6   9
BRANCH   1  24
ATOM     19  C   UNL     1       2.078   2.789  17.799  0.00  0.00    +0.000 C 
ATOM     20  C   UNL     1       2.103   4.008  18.675  0.00  0.00    +0.000 A 
ATOM     21  C   UNL     1       2.034   3.901  20.066  0.00  0.00    +0.000 A 
ATOM     22  C   UNL     1       2.070   5.047  20.859  0.00  0.00    +0.000 A 
ATOM     23  C   UNL     1       2.152   6.307  20.264  0.00  0.00    +0.000 A 
ATOM     24  C   UNL     1       2.212   6.442  18.869  0.00  0.00    +0.000 A 
ATOM     25  C   UNL     1       2.229   5.279  18.089  0.00  0.00    +0.000 A 
ENDBRANCH   1  24
TORSDOF 2
ENDMDL
MODEL 8
REMARK VINA RESULT:      -7.3      4.828     10.515
REMARK  Name = 
REMARK  3 active torsions:
REMARK  status: ('A' for Active; 'I' for Inactive)
REMARK    1  A    between atoms: C_1  and  C_2
REMARK    2  A    between atoms: C_6  and  C_7
REMARK    3  A    between atoms: C_12  and  N_13
REMARK                            x       y       z     vdW  Elec       q    Type
REMARK                         _______ _______ _______ _____ _____    ______ ____
ROOT
ATOM      1  C   UNL     1      -0.828  12.957  21.023  0.00  0.00    +0.000 C 
ATOM      2  O   UNL     1      -0.130  13.872  21.467  0.00  0.00    +0.000 OA
ATOM      3  N   UNL     1      -0.308  12.027  20.097  0.00  0.00    +0.000 N 
ATOM      4  C   UNL     1       1.156  11.958  20.046  0.00  0.00    +0.000 C 
ATOM      5  C   UNL     1       1.713  11.376  18.751  0.00  0.00    +0.000 C 
ATOM      6  C   UNL     1       1.011  10.089  18.312  0.00  0.00    +0.000 C 
ATOM      7  C   UNL     1      -0.499  10.327  18.265  0.00  0.00    +0.000 C 
ATOM      8  C   UNL     1      -1.050  10.883  19.574  0.00  0.00    +0.000 C 
ENDROOT
BRANCH   6   9
ATOM      9  N   UNL     1       1.397   8.917  19.087  0.00  0.00    +0.000 N 
ATOM     10  N   UNL     1       0.902   8.728  20.326  0.00  0.00    +0.000 NA
ATOM     11  N   UNL     1       1.457   7.636  20.831  0.00  0.00    +0.000 NA
ATOM     12  C   UNL     1       2.294   7.115  19.888  0.00  0.00    +0.000 A 
ATOM     13  C   UNL     1       3.108   5.976  19.940  0.00  0.00    +0.000 A 
ATOM     14  C   UNL     1       3.862   5.671  18.810  0.00  0.00    +0.000 A 
ATOM     15  F   UNL     1       4.650   4.588  18.826  0.00  0.00    +0.000 F 
ATOM     16  C   UNL     1       3.818   6.458  17.660  0.00  0.00    +0.000 A 
ATOM     17  C   UNL     1       3.014   7.604  17.599  0.00  0.00    +0.000 A 
ATOM     18  C   UNL     1       2.264   7.907  18.743  0.00  0.00    +0.000 A 
ENDBRANCH   6   9
BRANCH   1  24
ATOM     19  C   UNL     1      -4.303  12.398  24.672  0.00  0.00    +0.000 C 
ATOM     20  C   UNL     1      -3.952  12.706  23.245  0.00  0.00    +0.000 A 
ATOM     21  C   UNL     1      -4.935  13.055  22.316  0.00  0.00    +0.000 A 
ATOM     22  C   UNL     1      -4.584  13.349  21.000  0.00  0.00    +0.000 A 
ATOM     23  C   UNL     1      -3.248  13.272  20.599  0.00  0.00    +0.000 A 
ATOM     24  C   UNL     1      -2.242  12.915  21.510  0.00  0.00    +0.000 A 
ATOM     25  C   UNL     1      -2.606  12.676  22.841  0.00  0.00    +0.000 A 
ENDBRANCH   1  24
TORSDOF 2
ENDMDL
MODEL 9
REMARK VINA RESULT:      -7.2      7.925      9.674
REMARK  Name = 
REMARK  3 active torsions:
REMARK  status: ('A' for Active; 'I' for Inactive)
REMARK    1  A    between atoms: C_1  and  C_2
REMARK    2  A    between atoms: C_6  and  C_7
REMARK    3  A    between atoms: C_12  and  N_13
REMARK                            x       y       z     vdW  Elec       q    Type
REMARK                         _______ _______ _______ _____ _____    ______ ____
ROOT
ATOM      1  C   UNL     1       2.079  13.953  20.987  0.00  0.00    +0.000 C 
ATOM      2  O   UNL     1       2.005  14.406  22.133  0.00  0.00    +0.000 OA
ATOM      3  N   UNL     1       1.339  12.813  20.605  0.00  0.00    +0.000 N 
ATOM      4  C   UNL     1       0.202  12.494  21.475  0.00  0.00    +0.000 C 
ATOM      5  C   UNL     1      -0.265  11.044  21.391  0.00  0.00    +0.000 C 
ATOM      6  C   UNL     1      -0.416  10.537  19.955  0.00  0.00    +0.000 C 
ATOM      7  C   UNL     1       0.882  10.797  19.187  0.00  0.00    +0.000 C 
ATOM      8  C   UNL     1       1.326  12.254  19.256  0.00  0.00    +0.000 C 
ENDROOT
BRANCH   6   9
ATOM      9  N   UNL     1      -1.607  11.035  19.279  0.00  0.00    +0.000 N 
ATOM     10  N   UNL     1      -2.416  11.922  19.891  0.00  0.00    +0.000 NA
ATOM     11  N   UNL     1      -3.449  12.157  19.096  0.00  0.00    +0.000 NA
ATOM     12  C   UNL     1      -3.276  11.429  17.956  0.00  0.00    +0.000 A 
ATOM     13  C   UNL     1      -4.089  11.332  16.819  0.00  0.00    +0.000 A 
ATOM     14  C   UNL     1      -3.656  10.508  15.784  0.00  0.00    +0.000 A 
ATOM     15  F   UNL     1      -4.410  10.395  14.683  0.00  0.00    +0.000 F 
ATOM     16  C   UNL     1      -2.457   9.800  15.859  0.00  0.00    +0.000 A 
ATOM     17  C   UNL     1      -1.639   9.882  16.994  0.00  0.00    +0.000 A 
ATOM     18  C   UNL     1      -2.087  10.708  18.033  0.00  0.00    +0.000 A 
ENDBRANCH   6   9
BRANCH   1  24
ATOM     19  C   UNL     1       3.015  16.852  16.935  0.00  0.00    +0.000 C 
ATOM     20  C   UNL     1       3.503  16.109  18.145  0.00  0.00    +0.000 A 
ATOM     21  C   UNL     1       4.852  16.123  18.507  0.00  0.00    +0.000 A 
ATOM     22  C   UNL     1       5.280  15.436  19.642  0.00  0.00    +0.000 A 
ATOM     23  C   UNL     1       4.365  14.709  20.406  0.00  0.00    +0.000 A 
ATOM     24  C   UNL     1       3.006  14.670  20.057  0.00  0.00    +0.000 A 
ATOM     25  C   UNL     1       2.585  15.410  18.946  0.00  0.00    +0.000 A 
ENDBRANCH   1  24
TORSDOF 2
ENDMDL
