MODEL 1
REMARK VINA RESULT:      -5.4      0.000      0.000
REMARK  Name = 
REMARK  7 active torsions:
REMARK  status: ('A' for Active; 'I' for Inactive)
REMARK    1  A    between atoms: C_2  and  C_3
REMARK    2  A    between atoms: C_3  and  C_4
REMARK    3  A    between atoms: C_4  and  C_5
REMARK    4  A    between atoms: C_5  and  C_6
REMARK    5  A    between atoms: C_6  and  O_7
REMARK    6  A    between atoms: O_7  and  C_8
REMARK    7  A    between atoms: N_13  and  C_14
REMARK                            x       y       z     vdW  Elec       q    Type
REMARK                         _______ _______ _______ _____ _____    ______ ____
ROOT
ATOM      1  O   UNL     1       4.970   5.177  17.084  0.00  0.00    +0.000 OA
ENDROOT
BRANCH   1   2
ATOM      2  C   UNL     1       4.228   4.273  17.719  0.00  0.00    +0.000 A 
ATOM      3  N   UNL     1       4.053   3.020  17.361  0.00  0.00    +0.000 NA
ATOM      4  C   UNL     1       3.225   2.491  18.324  0.00  0.00    +0.000 A 
ATOM      5  C   UNL     1       2.898   3.439  19.267  0.00  0.00    +0.000 A 
ATOM      6  I   UNL     1       1.700   3.111  20.877  0.00  0.00    +0.000 I 
ATOM      7  N   UNL     1       3.543   4.577  18.868  0.00  0.00    +0.000 N 
ATOM      8  C   UNL     1       3.546   5.879  19.484  0.00  0.00    +0.000 C 
ENDBRANCH   1   2
BRANCH   1   9
ATOM      9  C   UNL     1       6.252   4.705  16.662  0.00  0.00    +0.000 C 
BRANCH   9  10
ATOM     10  C   UNL     1       6.378   4.976  15.164  0.00  0.00    +0.000 C 
BRANCH  10  11
ATOM     11  C   UNL     1       6.248   3.695  14.340  0.00  0.00    +0.000 C 
BRANCH  11  12
ATOM     12  C   UNL     1       6.334   3.988  12.840  0.00  0.00    +0.000 C 
BRANCH  12  14
ATOM     13  C   UNL     1       4.392   3.265  11.429  0.00  0.00    +0.000 C 
ATOM     14  C   UNL     1       5.551   2.988  12.038  0.00  0.00    +0.000 C 
ENDBRANCH  12  14
ENDBRANCH  11  12
ENDBRANCH  10  11
ENDBRANCH   9  10
ENDBRANCH   1   9
TORSDOF 6
ENDMDL
MODEL 2
REMARK VINA RESULT:      -5.4      0.915      1.792
REMARK  Name = 
REMARK  7 active torsions:
REMARK  status: ('A' for Active; 'I' for Inactive)
REMARK    1  A    between atoms: C_2  and  C_3
REMARK    2  A    between atoms: C_3  and  C_4
REMARK    3  A    between atoms: C_4  and  C_5
REMARK    4  A    between atoms: C_5  and  C_6
REMARK    5  A    between atoms: C_6  and  O_7
REMARK    6  A    between atoms: O_7  and  C_8
REMARK    7  A    between atoms: N_13  and  C_14
REMARK                            x       y       z     vdW  Elec       q    Type
REMARK                         _______ _______ _______ _____ _____    ______ ____
ROOT
ATOM      1  O   UNL     1       5.795   4.133  17.419  0.00  0.00    +0.000 OA
ENDROOT
BRANCH   1   2
ATOM      2  C   UNL     1       4.839   4.419  18.299  0.00  0.00    +0.000 A 
ATOM      3  N   UNL     1       4.732   5.526  19.001  0.00  0.00    +0.000 NA
ATOM      4  C   UNL     1       3.591   5.360  19.750  0.00  0.00    +0.000 A 
ATOM      5  C   UNL     1       3.009   4.139  19.496  0.00  0.00    +0.000 A 
ATOM      6  I   UNL     1       1.303   3.461  20.372  0.00  0.00    +0.000 I 
ATOM      7  N   UNL     1       3.818   3.543  18.569  0.00  0.00    +0.000 N 
ATOM      8  C   UNL     1       3.686   2.248  17.951  0.00  0.00    +0.000 C 
ENDBRANCH   1   2
BRANCH   1   9
ATOM      9  C   UNL     1       5.740   4.893  16.210  0.00  0.00    +0.000 C 
BRANCH   9  10
ATOM     10  C   UNL     1       5.605   3.911  15.048  0.00  0.00    +0.000 C 
BRANCH  10  11
ATOM     11  C   UNL     1       6.444   4.335  13.844  0.00  0.00    +0.000 C 
BRANCH  11  12
ATOM     12  C   UNL     1       6.176   3.435  12.635  0.00  0.00    +0.000 C 
BRANCH  12  14
ATOM     13  C   UNL     1       4.136   2.924  11.269  0.00  0.00    +0.000 C 
ATOM     14  C   UNL     1       4.885   3.795  11.956  0.00  0.00    +0.000 C 
ENDBRANCH  12  14
ENDBRANCH  11  12
ENDBRANCH  10  11
ENDBRANCH   9  10
ENDBRANCH   1   9
TORSDOF 6
ENDMDL
MODEL 3
REMARK VINA RESULT:      -5.3      1.084      1.243
REMARK  Name = 
REMARK  7 active torsions:
REMARK  status: ('A' for Active; 'I' for Inactive)
REMARK    1  A    between atoms: C_2  and  C_3
REMARK    2  A    between atoms: C_3  and  C_4
REMARK    3  A    between atoms: C_4  and  C_5
REMARK    4  A    between atoms: C_5  and  C_6
REMARK    5  A    between atoms: C_6  and  O_7
REMARK    6  A    between atoms: O_7  and  C_8
REMARK    7  A    between atoms: N_13  and  C_14
REMARK                            x       y       z     vdW  Elec       q    Type
REMARK                         _______ _______ _______ _____ _____    ______ ____
ROOT
ATOM      1  O   UNL     1       5.199   5.459  17.460  0.00  0.00    +0.000 OA
ENDROOT
BRANCH   1   2
ATOM      2  C   UNL     1       4.676   4.608  18.339  0.00  0.00    +0.000 A 
ATOM      3  N   UNL     1       5.309   3.629  18.946  0.00  0.00    +0.000 NA
ATOM      4  C   UNL     1       4.363   3.046  19.756  0.00  0.00    +0.000 A 
ATOM      5  C   UNL     1       3.148   3.680  19.630  0.00  0.00    +0.000 A 
ATOM      6  I   UNL     1       1.458   3.164  20.635  0.00  0.00    +0.000 I 
ATOM      7  N   UNL     1       3.359   4.676  18.717  0.00  0.00    +0.000 N 
ATOM      8  C   UNL     1       2.425   5.646  18.205  0.00  0.00    +0.000 C 
ENDBRANCH   1   2
BRANCH   1   9
ATOM      9  C   UNL     1       6.628   5.490  17.438  0.00  0.00    +0.000 C 
BRANCH   9  10
ATOM     10  C   UNL     1       7.075   5.358  15.983  0.00  0.00    +0.000 C 
BRANCH  10  11
ATOM     11  C   UNL     1       6.628   4.031  15.369  0.00  0.00    +0.000 C 
BRANCH  11  12
ATOM     12  C   UNL     1       5.643   4.255  14.220  0.00  0.00    +0.000 C 
BRANCH  12  14
ATOM     13  C   UNL     1       5.326   3.206  11.964  0.00  0.00    +0.000 C 
ATOM     14  C   UNL     1       6.133   3.631  12.944  0.00  0.00    +0.000 C 
ENDBRANCH  12  14
ENDBRANCH  11  12
ENDBRANCH  10  11
ENDBRANCH   9  10
ENDBRANCH   1   9
TORSDOF 6
ENDMDL
MODEL 4
REMARK VINA RESULT:      -5.3      3.428      6.188
REMARK  Name = 
REMARK  7 active torsions:
REMARK  status: ('A' for Active; 'I' for Inactive)
REMARK    1  A    between atoms: C_2  and  C_3
REMARK    2  A    between atoms: C_3  and  C_4
REMARK    3  A    between atoms: C_4  and  C_5
REMARK    4  A    between atoms: C_5  and  C_6
REMARK    5  A    between atoms: C_6  and  O_7
REMARK    6  A    between atoms: O_7  and  C_8
REMARK    7  A    between atoms: N_13  and  C_14
REMARK                            x       y       z     vdW  Elec       q    Type
REMARK                         _______ _______ _______ _____ _____    ______ ____
ROOT
ATOM      1  O   UNL     1       2.610   5.520  18.497  0.00  0.00    +0.000 OA
ENDROOT
BRANCH   1   2
ATOM      2  C   UNL     1       3.592   5.798  17.643  0.00  0.00    +0.000 A 
ATOM      3  N   UNL     1       4.037   6.995  17.331  0.00  0.00    +0.000 NA
ATOM      4  C   UNL     1       5.050   6.771  16.429  0.00  0.00    +0.000 A 
ATOM      5  C   UNL     1       5.212   5.424  16.196  0.00  0.00    +0.000 A 
ATOM      6  I   UNL     1       6.593   4.621  14.937  0.00  0.00    +0.000 I 
ATOM      7  N   UNL     1       4.271   4.810  16.975  0.00  0.00    +0.000 N 
ATOM      8  C   UNL     1       3.990   3.405  17.117  0.00  0.00    +0.000 C 
ENDBRANCH   1   2
BRANCH   1   9
ATOM      9  C   UNL     1       2.809   6.026  19.819  0.00  0.00    +0.000 C 
BRANCH   9  10
ATOM     10  C   UNL     1       1.779   5.363  20.732  0.00  0.00    +0.000 C 
BRANCH  10  11
ATOM     11  C   UNL     1       2.318   4.077  21.358  0.00  0.00    +0.000 C 
BRANCH  11  12
ATOM     12  C   UNL     1       1.341   2.914  21.164  0.00  0.00    +0.000 C 
BRANCH  12  14
ATOM     13  C   UNL     1       0.938   2.306  18.766  0.00  0.00    +0.000 C 
ATOM     14  C   UNL     1       0.615   3.017  19.853  0.00  0.00    +0.000 C 
ENDBRANCH  12  14
ENDBRANCH  11  12
ENDBRANCH  10  11
ENDBRANCH   9  10
ENDBRANCH   1   9
TORSDOF 6
ENDMDL
MODEL 5
REMARK VINA RESULT:      -5.3      1.800      2.698
REMARK  Name = 
REMARK  7 active torsions:
REMARK  status: ('A' for Active; 'I' for Inactive)
REMARK    1  A    between atoms: C_2  and  C_3
REMARK    2  A    between atoms: C_3  and  C_4
REMARK    3  A    between atoms: C_4  and  C_5
REMARK    4  A    between atoms: C_5  and  C_6
REMARK    5  A    between atoms: C_6  and  O_7
REMARK    6  A    between atoms: O_7  and  C_8
REMARK    7  A    between atoms: N_13  and  C_14
REMARK                            x       y       z     vdW  Elec       q    Type
REMARK                         _______ _______ _______ _____ _____    ______ ____
ROOT
ATOM      1  O   UNL     1       6.122   4.729  19.666  0.00  0.00    +0.000 OA
ENDROOT
BRANCH   1   2
ATOM      2  C   UNL     1       4.816   4.736  19.409  0.00  0.00    +0.000 A 
ATOM      3  N   UNL     1       4.106   5.771  19.019  0.00  0.00    +0.000 NA
ATOM      4  C   UNL     1       2.827   5.287  18.874  0.00  0.00    +0.000 A 
ATOM      5  C   UNL     1       2.770   3.947  19.185  0.00  0.00    +0.000 A 
ATOM      6  I   UNL     1       1.087   2.808  19.113  0.00  0.00    +0.000 I 
ATOM      7  N   UNL     1       4.048   3.605  19.530  0.00  0.00    +0.000 N 
ATOM      8  C   UNL     1       4.562   2.327  19.949  0.00  0.00    +0.000 C 
ENDBRANCH   1   2
BRANCH   1   9
ATOM      9  C   UNL     1       6.900   5.580  18.822  0.00  0.00    +0.000 C 
BRANCH   9  10
ATOM     10  C   UNL     1       7.317   4.766  17.598  0.00  0.00    +0.000 C 
BRANCH  10  11
ATOM     11  C   UNL     1       7.128   5.553  16.301  0.00  0.00    +0.000 C 
BRANCH  11  12
ATOM     12  C   UNL     1       5.676   5.487  15.818  0.00  0.00    +0.000 C 
BRANCH  12  14
ATOM     13  C   UNL     1       6.214   3.980  13.887  0.00  0.00    +0.000 C 
ATOM     14  C   UNL     1       5.443   4.294  14.936  0.00  0.00    +0.000 C 
ENDBRANCH  12  14
ENDBRANCH  11  12
ENDBRANCH  10  11
ENDBRANCH   9  10
ENDBRANCH   1   9
TORSDOF 6
ENDMDL
MODEL 6
REMARK VINA RESULT:      -5.3      0.996      1.892
REMARK  Name = 
REMARK  7 active torsions:
REMARK  status: ('A' for Active; 'I' for Inactive)
REMARK    1  A    between atoms: C_2  and  C_3
REMARK    2  A    between atoms: C_3  and  C_4
REMARK    3  A    between atoms: C_4  and  C_5
REMARK    4  A    between atoms: C_5  and  C_6
REMARK    5  A    between atoms: C_6  and  O_7
REMARK    6  A    between atoms: O_7  and  C_8
REMARK    7  A    between atoms: N_13  and  C_14
REMARK                            x       y       z     vdW  Elec       q    Type
REMARK                         _______ _______ _______ _____ _____    ______ ____
ROOT
ATOM      1  O   UNL     1       4.989   3.860  17.031  0.00  0.00    +0.000 OA
ENDROOT
BRANCH   1   2
ATOM      2  C   UNL     1       4.295   4.120  18.136  0.00  0.00    +0.000 A 
ATOM      3  N   UNL     1       4.204   5.283  18.743  0.00  0.00    +0.000 NA
ATOM      4  C   UNL     1       3.378   5.056  19.818  0.00  0.00    +0.000 A 
ATOM      5  C   UNL     1       2.971   3.741  19.858  0.00  0.00    +0.000 A 
ATOM      6  I   UNL     1       1.740   2.948  21.268  0.00  0.00    +0.000 I 
ATOM      7  N   UNL     1       3.566   3.150  18.778  0.00  0.00    +0.000 N 
ATOM      8  C   UNL     1       3.490   1.781  18.339  0.00  0.00    +0.000 C 
ENDBRANCH   1   2
BRANCH   1   9
ATOM      9  C   UNL     1       5.384   5.017  16.290  0.00  0.00    +0.000 C 
BRANCH   9  10
ATOM     10  C   UNL     1       6.803   4.778  15.775  0.00  0.00    +0.000 C 
BRANCH  10  11
ATOM     11  C   UNL     1       6.844   4.677  14.250  0.00  0.00    +0.000 C 
BRANCH  11  12
ATOM     12  C   UNL     1       5.574   4.022  13.702  0.00  0.00    +0.000 C 
BRANCH  12  14
ATOM     13  C   UNL     1       7.010   3.353  11.759  0.00  0.00    +0.000 C 
ATOM     14  C   UNL     1       5.823   3.359  12.378  0.00  0.00    +0.000 C 
ENDBRANCH  12  14
ENDBRANCH  11  12
ENDBRANCH  10  11
ENDBRANCH   9  10
ENDBRANCH   1   9
TORSDOF 6
ENDMDL
MODEL 7
REMARK VINA RESULT:      -5.3      0.925      1.755
REMARK  Name = 
REMARK  7 active torsions:
REMARK  status: ('A' for Active; 'I' for Inactive)
REMARK    1  A    between atoms: C_2  and  C_3
REMARK    2  A    between atoms: C_3  and  C_4
REMARK    3  A    between atoms: C_4  and  C_5
REMARK    4  A    between atoms: C_5  and  C_6
REMARK    5  A    between atoms: C_6  and  O_7
REMARK    6  A    between atoms: O_7  and  C_8
REMARK    7  A    between atoms: N_13  and  C_14
REMARK                            x       y       z     vdW  Elec       q    Type
REMARK                         _______ _______ _______ _____ _____    ______ ____
ROOT
ATOM      1  O   UNL     1       4.475   5.214  16.554  0.00  0.00    +0.000 OA
ENDROOT
BRANCH   1   2
ATOM      2  C   UNL     1       3.967   5.126  17.781  0.00  0.00    +0.000 A 
ATOM      3  N   UNL     1       4.213   5.937  18.786  0.00  0.00    +0.000 NA
ATOM      4  C   UNL     1       3.457   5.449  19.826  0.00  0.00    +0.000 A 
ATOM      5  C   UNL     1       2.752   4.331  19.441  0.00  0.00    +0.000 A 
ATOM      6  I   UNL     1       1.500   3.275  20.645  0.00  0.00    +0.000 I 
ATOM      7  N   UNL     1       3.088   4.131  18.130  0.00  0.00    +0.000 N 
ATOM      8  C   UNL     1       2.646   3.097  17.230  0.00  0.00    +0.000 C 
ENDBRANCH   1   2
BRANCH   1   9
ATOM      9  C   UNL     1       5.825   5.681  16.501  0.00  0.00    +0.000 C 
BRANCH   9  10
ATOM     10  C   UNL     1       6.711   4.499  16.110  0.00  0.00    +0.000 C 
BRANCH  10  11
ATOM     11  C   UNL     1       6.091   3.672  14.984  0.00  0.00    +0.000 C 
BRANCH  11  12
ATOM     12  C   UNL     1       6.343   4.316  13.619  0.00  0.00    +0.000 C 
BRANCH  12  14
ATOM     13  C   UNL     1       4.930   3.263  11.835  0.00  0.00    +0.000 C 
ATOM     14  C   UNL     1       6.090   3.348  12.498  0.00  0.00    +0.000 C 
ENDBRANCH  12  14
ENDBRANCH  11  12
ENDBRANCH  10  11
ENDBRANCH   9  10
ENDBRANCH   1   9
TORSDOF 6
ENDMDL
MODEL 8
REMARK VINA RESULT:      -5.2      3.465      6.011
REMARK  Name = 
REMARK  7 active torsions:
REMARK  status: ('A' for Active; 'I' for Inactive)
REMARK    1  A    between atoms: C_2  and  C_3
REMARK    2  A    between atoms: C_3  and  C_4
REMARK    3  A    between atoms: C_4  and  C_5
REMARK    4  A    between atoms: C_5  and  C_6
REMARK    5  A    between atoms: C_6  and  O_7
REMARK    6  A    between atoms: O_7  and  C_8
REMARK    7  A    between atoms: N_13  and  C_14
REMARK                            x       y       z     vdW  Elec       q    Type
REMARK                         _______ _______ _______ _____ _____    ______ ____
ROOT
ATOM      1  O   UNL     1       4.589   3.417  17.020  0.00  0.00    +0.000 OA
ENDROOT
BRANCH   1   2
ATOM      2  C   UNL     1       5.415   4.280  17.605  0.00  0.00    +0.000 A 
ATOM      3  N   UNL     1       5.966   4.149  18.792  0.00  0.00    +0.000 NA
ATOM      4  C   UNL     1       6.737   5.276  18.950  0.00  0.00    +0.000 A 
ATOM      5  C   UNL     1       6.644   6.095  17.847  0.00  0.00    +0.000 A 
ATOM      6  I   UNL     1       7.612   7.870  17.632  0.00  0.00    +0.000 I 
ATOM      7  N   UNL     1       5.792   5.450  16.994  0.00  0.00    +0.000 N 
ATOM      8  C   UNL     1       5.334   5.859  15.691  0.00  0.00    +0.000 C 
ENDBRANCH   1   2
BRANCH   1   9
ATOM      9  C   UNL     1       3.463   3.039  17.814  0.00  0.00    +0.000 C 
BRANCH   9  10
ATOM     10  C   UNL     1       2.359   4.068  17.578  0.00  0.00    +0.000 C 
BRANCH  10  11
ATOM     11  C   UNL     1       1.435   4.201  18.788  0.00  0.00    +0.000 C 
BRANCH  11  12
ATOM     12  C   UNL     1       1.119   2.832  19.397  0.00  0.00    +0.000 C 
BRANCH  12  14
ATOM     13  C   UNL     1       2.218   3.270  21.608  0.00  0.00    +0.000 C 
ATOM     14  C   UNL     1       1.153   2.876  20.898  0.00  0.00    +0.000 C 
ENDBRANCH  12  14
ENDBRANCH  11  12
ENDBRANCH  10  11
ENDBRANCH   9  10
ENDBRANCH   1   9
TORSDOF 6
ENDMDL
MODEL 9
REMARK VINA RESULT:      -5.1      1.159      1.404
REMARK  Name = 
REMARK  7 active torsions:
REMARK  status: ('A' for Active; 'I' for Inactive)
REMARK    1  A    between atoms: C_2  and  C_3
REMARK    2  A    between atoms: C_3  and  C_4
REMARK    3  A    between atoms: C_4  and  C_5
REMARK    4  A    between atoms: C_5  and  C_6
REMARK    5  A    between atoms: C_6  and  O_7
REMARK    6  A    between atoms: O_7  and  C_8
REMARK    7  A    between atoms: N_13  and  C_14
REMARK                            x       y       z     vdW  Elec       q    Type
REMARK                         _______ _______ _______ _____ _____    ______ ____
ROOT
ATOM      1  O   UNL     1       4.520   4.544  16.683  0.00  0.00    +0.000 OA
ENDROOT
BRANCH   1   2
ATOM      2  C   UNL     1       4.282   4.023  17.884  0.00  0.00    +0.000 A 
ATOM      3  N   UNL     1       5.178   3.528  18.710  0.00  0.00    +0.000 NA
ATOM      4  C   UNL     1       4.459   3.127  19.811  0.00  0.00    +0.000 A 
ATOM      5  C   UNL     1       3.117   3.382  19.643  0.00  0.00    +0.000 A 
ATOM      6  I   UNL     1       1.673   2.960  21.012  0.00  0.00    +0.000 I 
ATOM      7  N   UNL     1       3.014   3.952  18.404  0.00  0.00    +0.000 N 
ATOM      8  C   UNL     1       1.836   4.413  17.715  0.00  0.00    +0.000 C 
ENDBRANCH   1   2
BRANCH   1   9
ATOM      9  C   UNL     1       5.727   4.091  16.067  0.00  0.00    +0.000 C 
BRANCH   9  10
ATOM     10  C   UNL     1       5.802   4.716  14.674  0.00  0.00    +0.000 C 
BRANCH  10  11
ATOM     11  C   UNL     1       5.993   3.660  13.586  0.00  0.00    +0.000 C 
BRANCH  11  12
ATOM     12  C   UNL     1       4.931   3.792  12.492  0.00  0.00    +0.000 C 
BRANCH  12  14
ATOM     13  C   UNL     1       6.014   1.766  11.488  0.00  0.00    +0.000 C 
ATOM     14  C   UNL     1       5.056   2.701  11.467  0.00  0.00    +0.000 C 
ENDBRANCH  12  14
ENDBRANCH  11  12
ENDBRANCH  10  11
ENDBRANCH   9  10
ENDBRANCH   1   9
TORSDOF 6
ENDMDL
