MODEL 1
REMARK VINA RESULT:      -9.2      0.000      0.000
REMARK  Name = 
REMARK  6 active torsions:
REMARK  status: ('A' for Active; 'I' for Inactive)
REMARK    1  A    between atoms: C_1  and  N_2
REMARK    2  A    between atoms: N_2  and  C_3
REMARK    3  A    between atoms: C_6  and  C_7
REMARK    4  A    between atoms: C_12  and  O_13
REMARK    5  A    between atoms: O_13  and  C_14
REMARK    6  A    between atoms: C_14  and  C_15
REMARK                            x       y       z     vdW  Elec       q    Type
REMARK                         _______ _______ _______ _____ _____    ______ ____
ROOT
ATOM      1  C   UNL     1       2.723   5.934  19.505  0.00  0.00    +0.000 A 
ATOM      2  C   UNL     1       1.970   6.045  20.681  0.00  0.00    +0.000 A 
ATOM      3  C   UNL     1       1.307   7.229  20.975  0.00  0.00    +0.000 A 
ATOM      4  C   UNL     1       1.367   8.311  20.088  0.00  0.00    +0.000 A 
ATOM      5  C   UNL     1       0.711   9.501  20.391  0.00  0.00    +0.000 A 
ATOM      6  C   UNL     1       0.670  10.549  19.468  0.00  0.00    +0.000 A 
ATOM      7  C   UNL     1       1.393  10.457  18.281  0.00  0.00    +0.000 A 
ATOM      8  C   UNL     1       2.110   9.294  17.992  0.00  0.00    +0.000 A 
ATOM      9  C   UNL     1       2.086   8.207  18.880  0.00  0.00    +0.000 A 
ATOM     10  C   UNL     1       2.771   7.019  18.610  0.00  0.00    +0.000 A 
ENDROOT
BRANCH   1  16
ATOM     11  C   UNL     1       6.150   3.772  15.270  0.00  0.00    +0.000 C 
ATOM     12  N   UNL     1       5.593   4.709  16.228  0.00  0.00    +0.000 N 
ATOM     13  C   UNL     1       5.291   6.035  15.675  0.00  0.00    +0.000 C 
ATOM     14  C   UNL     1       4.880   4.332  17.342  0.00  0.00    +0.000 C 
ATOM     15  N   UNL     1       4.585   5.181  18.260  0.00  0.00    +0.000 NA
ATOM     16  C   UNL     1       3.664   4.753  19.323  0.00  0.00    +0.000 C 
ATOM     17  N   UNL     1       2.900   3.502  19.112  0.00  0.00    +0.000 NA
ATOM     18  C   UNL     1       3.342   2.755  18.166  0.00  0.00    +0.000 C 
ATOM     19  N   UNL     1       2.727   1.592  17.818  0.00  0.00    +0.000 N 
ATOM     20  N   UNL     1       4.365   3.093  17.367  0.00  0.00    +0.000 N 
ATOM     21  H   UNL     1       1.812   1.551  18.254  0.00  0.00    +0.000 HD
ATOM     22  H   UNL     1       2.649   1.461  16.818  0.00  0.00    +0.000 HD
ATOM     23  H   UNL     1       4.719   2.392  16.737  0.00  0.00    +0.000 HD
ENDBRANCH   1  16
BRANCH   6  24
ATOM     24  O   UNL     1      -0.077  11.686  19.641  0.00  0.00    +0.000 OA
BRANCH  24  25
ATOM     25  C   UNL     1      -0.730  12.125  18.443  0.00  0.00    +0.000 C 
BRANCH  25  26
ATOM     26  C   UNL     1      -2.158  11.675  18.366  0.00  0.00    +0.000 A 
ATOM     27  C   UNL     1      -3.199  12.286  19.074  0.00  0.00    +0.000 A 
ATOM     28  C   UNL     1      -4.511  11.829  18.923  0.00  0.00    +0.000 A 
ATOM     29  C   UNL     1      -4.792  10.766  18.067  0.00  0.00    +0.000 A 
ATOM     30  C   UNL     1      -3.763  10.149  17.359  0.00  0.00    +0.000 A 
ATOM     31  C   UNL     1      -2.461  10.604  17.515  0.00  0.00    +0.000 A 
ATOM     32  F   UNL     1      -1.479  10.011  16.825  0.00  0.00    +0.000 F 
ENDBRANCH  25  26
ENDBRANCH  24  25
ENDBRANCH   6  24
TORSDOF 4
ENDMDL
MODEL 2
REMARK VINA RESULT:      -9.2      1.018      1.398
REMARK  Name = 
REMARK  6 active torsions:
REMARK  status: ('A' for Active; 'I' for Inactive)
REMARK    1  A    between atoms: C_1  and  N_2
REMARK    2  A    between atoms: N_2  and  C_3
REMARK    3  A    between atoms: C_6  and  C_7
REMARK    4  A    between atoms: C_12  and  O_13
REMARK    5  A    between atoms: O_13  and  C_14
REMARK    6  A    between atoms: C_14  and  C_15
REMARK                            x       y       z     vdW  Elec       q    Type
REMARK                         _______ _______ _______ _____ _____    ______ ____
ROOT
ATOM      1  C   UNL     1       2.949   5.874  19.433  0.00  0.00    +0.000 A 
ATOM      2  C   UNL     1       2.173   5.969  20.596  0.00  0.00    +0.000 A 
ATOM      3  C   UNL     1       1.443   7.122  20.855  0.00  0.00    +0.000 A 
ATOM      4  C   UNL     1       1.458   8.186  19.945  0.00  0.00    +0.000 A 
ATOM      5  C   UNL     1       0.734   9.344  20.212  0.00  0.00    +0.000 A 
ATOM      6  C   UNL     1       0.650  10.369  19.266  0.00  0.00    +0.000 A 
ATOM      7  C   UNL     1       1.395  10.291  18.091  0.00  0.00    +0.000 A 
ATOM      8  C   UNL     1       2.178   9.163  17.838  0.00  0.00    +0.000 A 
ATOM      9  C   UNL     1       2.199   8.095  18.749  0.00  0.00    +0.000 A 
ATOM     10  C   UNL     1       2.951   6.941  18.515  0.00  0.00    +0.000 A 
ENDROOT
BRANCH   1  16
ATOM     11  C   UNL     1       6.334   3.630  15.206  0.00  0.00    +0.000 C 
ATOM     12  N   UNL     1       5.758   4.597  16.123  0.00  0.00    +0.000 N 
ATOM     13  C   UNL     1       5.350   5.860  15.495  0.00  0.00    +0.000 C 
ATOM     14  C   UNL     1       5.115   4.257  17.290  0.00  0.00    +0.000 C 
ATOM     15  N   UNL     1       4.803   5.150  18.161  0.00  0.00    +0.000 NA
ATOM     16  C   UNL     1       3.955   4.742  19.290  0.00  0.00    +0.000 C 
ATOM     17  N   UNL     1       3.263   3.436  19.198  0.00  0.00    +0.000 NA
ATOM     18  C   UNL     1       3.714   2.652  18.287  0.00  0.00    +0.000 C 
ATOM     19  N   UNL     1       3.161   1.432  18.045  0.00  0.00    +0.000 N 
ATOM     20  N   UNL     1       4.681   2.994  17.421  0.00  0.00    +0.000 N 
ATOM     21  H   UNL     1       2.268   1.367  18.524  0.00  0.00    +0.000 HD
ATOM     22  H   UNL     1       3.051   1.227  17.061  0.00  0.00    +0.000 HD
ATOM     23  H   UNL     1       5.053   2.274  16.826  0.00  0.00    +0.000 HD
ENDBRANCH   1  16
BRANCH   6  24
ATOM     24  O   UNL     1      -0.160  11.467  19.404  0.00  0.00    +0.000 OA
BRANCH  24  25
ATOM     25  C   UNL     1      -1.536  11.135  19.628  0.00  0.00    +0.000 C 
BRANCH  25  26
ATOM     26  C   UNL     1      -2.304  10.968  18.351  0.00  0.00    +0.000 A 
ATOM     27  C   UNL     1      -1.874  10.161  17.292  0.00  0.00    +0.000 A 
ATOM     28  C   UNL     1      -2.664  10.030  16.146  0.00  0.00    +0.000 A 
ATOM     29  C   UNL     1      -3.883  10.698  16.051  0.00  0.00    +0.000 A 
ATOM     30  C   UNL     1      -4.319  11.506  17.100  0.00  0.00    +0.000 A 
ATOM     31  C   UNL     1      -3.530  11.635  18.234  0.00  0.00    +0.000 A 
ATOM     32  F   UNL     1      -3.961  12.407  19.240  0.00  0.00    +0.000 F 
ENDBRANCH  25  26
ENDBRANCH  24  25
ENDBRANCH   6  24
TORSDOF 4
ENDMDL
MODEL 3
REMARK VINA RESULT:      -9.1      4.584      8.328
REMARK  Name = 
REMARK  6 active torsions:
REMARK  status: ('A' for Active; 'I' for Inactive)
REMARK    1  A    between atoms: C_1  and  N_2
REMARK    2  A    between atoms: N_2  and  C_3
REMARK    3  A    between atoms: C_6  and  C_7
REMARK    4  A    between atoms: C_12  and  O_13
REMARK    5  A    between atoms: O_13  and  C_14
REMARK    6  A    between atoms: C_14  and  C_15
REMARK                            x       y       z     vdW  Elec       q    Type
REMARK                         _______ _______ _______ _____ _____    ______ ____
ROOT
ATOM      1  C   UNL     1       0.326   9.900  19.895  0.00  0.00    +0.000 A 
ATOM      2  C   UNL     1       0.491   9.076  21.015  0.00  0.00    +0.000 A 
ATOM      3  C   UNL     1       1.324   7.966  20.947  0.00  0.00    +0.000 A 
ATOM      4  C   UNL     1       2.022   7.679  19.768  0.00  0.00    +0.000 A 
ATOM      5  C   UNL     1       2.848   6.561  19.700  0.00  0.00    +0.000 A 
ATOM      6  C   UNL     1       3.635   6.321  18.570  0.00  0.00    +0.000 A 
ATOM      7  C   UNL     1       3.506   7.139  17.449  0.00  0.00    +0.000 A 
ATOM      8  C   UNL     1       2.633   8.227  17.479  0.00  0.00    +0.000 A 
ATOM      9  C   UNL     1       1.902   8.519  18.642  0.00  0.00    +0.000 A 
ATOM     10  C   UNL     1       1.039   9.615  18.716  0.00  0.00    +0.000 A 
ENDROOT
BRANCH   1  16
ATOM     11  C   UNL     1      -3.951  11.583  16.257  0.00  0.00    +0.000 C 
ATOM     12  N   UNL     1      -3.135  10.728  17.099  0.00  0.00    +0.000 N 
ATOM     13  C   UNL     1      -2.735   9.461  16.473  0.00  0.00    +0.000 C 
ATOM     14  C   UNL     1      -2.326  11.195  18.108  0.00  0.00    +0.000 C 
ATOM     15  N   UNL     1      -1.784  10.390  18.952  0.00  0.00    +0.000 NA
ATOM     16  C   UNL     1      -0.787  10.938  19.881  0.00  0.00    +0.000 C 
ATOM     17  N   UNL     1      -0.243  12.285  19.596  0.00  0.00    +0.000 NA
ATOM     18  C   UNL     1      -0.918  12.969  18.745  0.00  0.00    +0.000 C 
ATOM     19  N   UNL     1      -0.528  14.209  18.343  0.00  0.00    +0.000 N 
ATOM     20  N   UNL     1      -1.990  12.494  18.092  0.00  0.00    +0.000 N 
ATOM     21  H   UNL     1       0.426  14.376  18.644  0.00  0.00    +0.000 HD
ATOM     22  H   UNL     1      -0.616  14.356  17.346  0.00  0.00    +0.000 HD
ATOM     23  H   UNL     1      -2.526  13.142  17.539  0.00  0.00    +0.000 HD
ENDBRANCH   1  16
BRANCH   6  24
ATOM     24  O   UNL     1       4.574   5.325  18.495  0.00  0.00    +0.000 OA
BRANCH  24  25
ATOM     25  C   UNL     1       4.021   4.046  18.158  0.00  0.00    +0.000 C 
BRANCH  25  26
ATOM     26  C   UNL     1       3.076   3.532  19.202  0.00  0.00    +0.000 A 
ATOM     27  C   UNL     1       3.490   3.071  20.457  0.00  0.00    +0.000 A 
ATOM     28  C   UNL     1       2.544   2.639  21.391  0.00  0.00    +0.000 A 
ATOM     29  C   UNL     1       1.185   2.665  21.081  0.00  0.00    +0.000 A 
ATOM     30  C   UNL     1       0.763   3.119  19.833  0.00  0.00    +0.000 A 
ATOM     31  C   UNL     1       1.707   3.544  18.908  0.00  0.00    +0.000 A 
ATOM     32  F   UNL     1       1.291   3.988  17.714  0.00  0.00    +0.000 F 
ENDBRANCH  25  26
ENDBRANCH  24  25
ENDBRANCH   6  24
TORSDOF 4
ENDMDL
MODEL 4
REMARK VINA RESULT:      -9.1      1.485      2.974
REMARK  Name = 
REMARK  6 active torsions:
REMARK  status: ('A' for Active; 'I' for Inactive)
REMARK    1  A    between atoms: C_1  and  N_2
REMARK    2  A    between atoms: N_2  and  C_3
REMARK    3  A    between atoms: C_6  and  C_7
REMARK    4  A    between atoms: C_12  and  O_13
REMARK    5  A    between atoms: O_13  and  C_14
REMARK    6  A    between atoms: C_14  and  C_15
REMARK                            x       y       z     vdW  Elec       q    Type
REMARK                         _______ _______ _______ _____ _____    ______ ____
ROOT
ATOM      1  C   UNL     1       3.270   6.793  18.325  0.00  0.00    +0.000 A 
ATOM      2  C   UNL     1       3.071   7.847  17.424  0.00  0.00    +0.000 A 
ATOM      3  C   UNL     1       2.200   8.881  17.743  0.00  0.00    +0.000 A 
ATOM      4  C   UNL     1       1.535   8.889  18.975  0.00  0.00    +0.000 A 
ATOM      5  C   UNL     1       0.654   9.921  19.287  0.00  0.00    +0.000 A 
ATOM      6  C   UNL     1       0.068  10.001  20.552  0.00  0.00    +0.000 A 
ATOM      7  C   UNL     1       0.266   8.977  21.476  0.00  0.00    +0.000 A 
ATOM      8  C   UNL     1       1.096   7.901  21.153  0.00  0.00    +0.000 A 
ATOM      9  C   UNL     1       1.752   7.859  19.913  0.00  0.00    +0.000 A 
ATOM     10  C   UNL     1       2.610   6.811  19.567  0.00  0.00    +0.000 A 
ENDROOT
BRANCH   1  16
ATOM     11  C   UNL     1       4.616   1.539  20.548  0.00  0.00    +0.000 C 
ATOM     12  N   UNL     1       3.821   2.675  20.118  0.00  0.00    +0.000 N 
ATOM     13  C   UNL     1       2.842   3.140  21.109  0.00  0.00    +0.000 C 
ATOM     14  C   UNL     1       4.246   3.600  19.194  0.00  0.00    +0.000 C 
ATOM     15  N   UNL     1       3.434   4.466  18.700  0.00  0.00    +0.000 NA
ATOM     16  C   UNL     1       3.997   5.537  17.866  0.00  0.00    +0.000 C 
ATOM     17  N   UNL     1       5.464   5.740  17.897  0.00  0.00    +0.000 NA
ATOM     18  C   UNL     1       6.130   4.767  18.405  0.00  0.00    +0.000 C 
ATOM     19  N   UNL     1       7.482   4.815  18.545  0.00  0.00    +0.000 N 
ATOM     20  N   UNL     1       5.562   3.677  18.943  0.00  0.00    +0.000 N 
ATOM     21  H   UNL     1       7.803   5.766  18.397  0.00  0.00    +0.000 HD
ATOM     22  H   UNL     1       7.808   4.467  19.438  0.00  0.00    +0.000 HD
ATOM     23  H   UNL     1       6.166   2.915  19.203  0.00  0.00    +0.000 HD
ENDBRANCH   1  16
BRANCH   6  24
ATOM     24  O   UNL     1      -0.691  11.064  20.973  0.00  0.00    +0.000 OA
BRANCH  24  25
ATOM     25  C   UNL     1      -0.969  12.011  19.934  0.00  0.00    +0.000 C 
BRANCH  25  26
ATOM     26  C   UNL     1      -2.423  12.056  19.568  0.00  0.00    +0.000 A 
ATOM     27  C   UNL     1      -3.396  12.685  20.353  0.00  0.00    +0.000 A 
ATOM     28  C   UNL     1      -4.727  12.713  19.927  0.00  0.00    +0.000 A 
ATOM     29  C   UNL     1      -5.094  12.119  18.720  0.00  0.00    +0.000 A 
ATOM     30  C   UNL     1      -4.132  11.488  17.934  0.00  0.00    +0.000 A 
ATOM     31  C   UNL     1      -2.812  11.460  18.362  0.00  0.00    +0.000 A 
ATOM     32  F   UNL     1      -1.893  10.859  17.595  0.00  0.00    +0.000 F 
ENDBRANCH  25  26
ENDBRANCH  24  25
ENDBRANCH   6  24
TORSDOF 4
ENDMDL
MODEL 5
REMARK VINA RESULT:      -9.0      2.919      4.267
REMARK  Name = 
REMARK  6 active torsions:
REMARK  status: ('A' for Active; 'I' for Inactive)
REMARK    1  A    between atoms: C_1  and  N_2
REMARK    2  A    between atoms: N_2  and  C_3
REMARK    3  A    between atoms: C_6  and  C_7
REMARK    4  A    between atoms: C_12  and  O_13
REMARK    5  A    between atoms: O_13  and  C_14
REMARK    6  A    between atoms: C_14  and  C_15
REMARK                            x       y       z     vdW  Elec       q    Type
REMARK                         _______ _______ _______ _____ _____    ______ ____
ROOT
ATOM      1  C   UNL     1       3.247   6.779  18.350  0.00  0.00    +0.000 A 
ATOM      2  C   UNL     1       3.036   7.847  17.468  0.00  0.00    +0.000 A 
ATOM      3  C   UNL     1       2.168   8.875  17.814  0.00  0.00    +0.000 A 
ATOM      4  C   UNL     1       1.519   8.863  19.055  0.00  0.00    +0.000 A 
ATOM      5  C   UNL     1       0.642   9.890  19.395  0.00  0.00    +0.000 A 
ATOM      6  C   UNL     1       0.072   9.950  20.668  0.00  0.00    +0.000 A 
ATOM      7  C   UNL     1       0.284   8.912  21.573  0.00  0.00    +0.000 A 
ATOM      8  C   UNL     1       1.109   7.842  21.223  0.00  0.00    +0.000 A 
ATOM      9  C   UNL     1       1.749   7.819  19.974  0.00  0.00    +0.000 A 
ATOM     10  C   UNL     1       2.602   6.777  19.601  0.00  0.00    +0.000 A 
ENDROOT
BRANCH   1  16
ATOM     11  C   UNL     1       4.652   1.504  20.483  0.00  0.00    +0.000 C 
ATOM     12  N   UNL     1       3.845   2.642  20.083  0.00  0.00    +0.000 N 
ATOM     13  C   UNL     1       2.885   3.093  21.098  0.00  0.00    +0.000 C 
ATOM     14  C   UNL     1       4.249   3.580  19.162  0.00  0.00    +0.000 C 
ATOM     15  N   UNL     1       3.425   4.448  18.694  0.00  0.00    +0.000 NA
ATOM     16  C   UNL     1       3.968   5.532  17.862  0.00  0.00    +0.000 C 
ATOM     17  N   UNL     1       5.434   5.739  17.866  0.00  0.00    +0.000 NA
ATOM     18  C   UNL     1       6.113   4.762  18.350  0.00  0.00    +0.000 C 
ATOM     19  N   UNL     1       7.468   4.812  18.464  0.00  0.00    +0.000 N 
ATOM     20  N   UNL     1       5.560   3.664  18.886  0.00  0.00    +0.000 N 
ATOM     21  H   UNL     1       7.783   5.766  18.320  0.00  0.00    +0.000 HD
ATOM     22  H   UNL     1       7.812   4.455  19.345  0.00  0.00    +0.000 HD
ATOM     23  H   UNL     1       6.171   2.901  19.125  0.00  0.00    +0.000 HD
ENDBRANCH   1  16
BRANCH   6  24
ATOM     24  O   UNL     1      -0.681  11.006  21.116  0.00  0.00    +0.000 OA
BRANCH  24  25
ATOM     25  C   UNL     1      -0.706  11.122  22.544  0.00  0.00    +0.000 C 
BRANCH  25  26
ATOM     26  C   UNL     1      -1.621  12.210  23.019  0.00  0.00    +0.000 A 
ATOM     27  C   UNL     1      -2.917  11.977  23.494  0.00  0.00    +0.000 A 
ATOM     28  C   UNL     1      -3.697  13.042  23.951  0.00  0.00    +0.000 A 
ATOM     29  C   UNL     1      -3.192  14.341  23.940  0.00  0.00    +0.000 A 
ATOM     30  C   UNL     1      -1.905  14.585  23.467  0.00  0.00    +0.000 A 
ATOM     31  C   UNL     1      -1.134  13.524  23.010  0.00  0.00    +0.000 A 
ATOM     32  F   UNL     1       0.105  13.766  22.566  0.00  0.00    +0.000 F 
ENDBRANCH  25  26
ENDBRANCH  24  25
ENDBRANCH   6  24
TORSDOF 4
ENDMDL
MODEL 6
REMARK VINA RESULT:      -9.0      4.756      9.200
REMARK  Name = 
REMARK  6 active torsions:
REMARK  status: ('A' for Active; 'I' for Inactive)
REMARK    1  A    between atoms: C_1  and  N_2
REMARK    2  A    between atoms: N_2  and  C_3
REMARK    3  A    between atoms: C_6  and  C_7
REMARK    4  A    between atoms: C_12  and  O_13
REMARK    5  A    between atoms: O_13  and  C_14
REMARK    6  A    between atoms: C_14  and  C_15
REMARK                            x       y       z     vdW  Elec       q    Type
REMARK                         _______ _______ _______ _____ _____    ______ ____
ROOT
ATOM      1  C   UNL     1       1.120   9.798  19.041  0.00  0.00    +0.000 A 
ATOM      2  C   UNL     1       1.837   9.643  17.848  0.00  0.00    +0.000 A 
ATOM      3  C   UNL     1       2.567   8.483  17.619  0.00  0.00    +0.000 A 
ATOM      4  C   UNL     1       2.572   7.453  18.568  0.00  0.00    +0.000 A 
ATOM      5  C   UNL     1       3.313   6.297  18.340  0.00  0.00    +0.000 A 
ATOM      6  C   UNL     1       3.241   5.217  19.223  0.00  0.00    +0.000 A 
ATOM      7  C   UNL     1       2.517   5.337  20.408  0.00  0.00    +0.000 A 
ATOM      8  C   UNL     1       1.821   6.516  20.682  0.00  0.00    +0.000 A 
ATOM      9  C   UNL     1       1.824   7.572  19.757  0.00  0.00    +0.000 A 
ATOM     10  C   UNL     1       1.117   8.755  19.986  0.00  0.00    +0.000 A 
ENDROOT
BRANCH   1  16
ATOM     11  C   UNL     1      -2.215  12.080  23.288  0.00  0.00    +0.000 C 
ATOM     12  N   UNL     1      -1.118  11.383  22.641  0.00  0.00    +0.000 N 
ATOM     13  C   UNL     1      -0.803  10.072  23.225  0.00  0.00    +0.000 C 
ATOM     14  C   UNL     1      -0.761  11.570  21.326  0.00  0.00    +0.000 C 
ATOM     15  N   UNL     1       0.335  11.085  20.860  0.00  0.00    +0.000 NA
ATOM     16  C   UNL     1       0.558  11.163  19.409  0.00  0.00    +0.000 C 
ATOM     17  N   UNL     1      -0.599  11.502  18.549  0.00  0.00    +0.000 NA
ATOM     18  C   UNL     1      -1.606  11.997  19.173  0.00  0.00    +0.000 C 
ATOM     19  N   UNL     1      -2.762  12.322  18.534  0.00  0.00    +0.000 N 
ATOM     20  N   UNL     1      -1.661  12.134  20.507  0.00  0.00    +0.000 N 
ATOM     21  H   UNL     1      -2.755  11.923  17.601  0.00  0.00    +0.000 HD
ATOM     22  H   UNL     1      -3.593  12.038  19.034  0.00  0.00    +0.000 HD
ATOM     23  H   UNL     1      -2.438  12.645  20.893  0.00  0.00    +0.000 HD
ENDBRANCH   1  16
BRANCH   6  24
ATOM     24  O   UNL     1       3.828   4.000  18.987  0.00  0.00    +0.000 OA
BRANCH  24  25
ATOM     25  C   UNL     1       5.255   4.069  18.874  0.00  0.00    +0.000 C 
BRANCH  25  26
ATOM     26  C   UNL     1       5.714   4.267  17.461  0.00  0.00    +0.000 A 
ATOM     27  C   UNL     1       4.991   3.827  16.346  0.00  0.00    +0.000 A 
ATOM     28  C   UNL     1       5.469   4.080  15.057  0.00  0.00    +0.000 A 
ATOM     29  C   UNL     1       6.666   4.773  14.873  0.00  0.00    +0.000 A 
ATOM     30  C   UNL     1       7.394   5.212  15.976  0.00  0.00    +0.000 A 
ATOM     31  C   UNL     1       6.916   4.956  17.254  0.00  0.00    +0.000 A 
ATOM     32  F   UNL     1       7.618   5.390  18.309  0.00  0.00    +0.000 F 
ENDBRANCH  25  26
ENDBRANCH  24  25
ENDBRANCH   6  24
TORSDOF 4
ENDMDL
MODEL 7
REMARK VINA RESULT:      -9.0      1.821      3.269
REMARK  Name = 
REMARK  6 active torsions:
REMARK  status: ('A' for Active; 'I' for Inactive)
REMARK    1  A    between atoms: C_1  and  N_2
REMARK    2  A    between atoms: N_2  and  C_3
REMARK    3  A    between atoms: C_6  and  C_7
REMARK    4  A    between atoms: C_12  and  O_13
REMARK    5  A    between atoms: O_13  and  C_14
REMARK    6  A    between atoms: C_14  and  C_15
REMARK                            x       y       z     vdW  Elec       q    Type
REMARK                         _______ _______ _______ _____ _____    ______ ____
ROOT
ATOM      1  C   UNL     1       3.272   6.777  18.348  0.00  0.00    +0.000 A 
ATOM      2  C   UNL     1       3.076   7.845  17.463  0.00  0.00    +0.000 A 
ATOM      3  C   UNL     1       2.199   8.871  17.792  0.00  0.00    +0.000 A 
ATOM      4  C   UNL     1       1.526   8.857  19.020  0.00  0.00    +0.000 A 
ATOM      5  C   UNL     1       0.640   9.882  19.343  0.00  0.00    +0.000 A 
ATOM      6  C   UNL     1       0.046   9.941  20.605  0.00  0.00    +0.000 A 
ATOM      7  C   UNL     1       0.241   8.903  21.514  0.00  0.00    +0.000 A 
ATOM      8  C   UNL     1       1.076   7.834  21.179  0.00  0.00    +0.000 A 
ATOM      9  C   UNL     1       1.740   7.813  19.943  0.00  0.00    +0.000 A 
ATOM     10  C   UNL     1       2.603   6.773  19.586  0.00  0.00    +0.000 A 
ENDROOT
BRANCH   1  16
ATOM     11  C   UNL     1       4.667   1.513  20.517  0.00  0.00    +0.000 C 
ATOM     12  N   UNL     1       3.861   2.647  20.101  0.00  0.00    +0.000 N 
ATOM     13  C   UNL     1       2.884   3.096  21.101  0.00  0.00    +0.000 C 
ATOM     14  C   UNL     1       4.275   3.583  19.184  0.00  0.00    +0.000 C 
ATOM     15  N   UNL     1       3.454   4.448  18.701  0.00  0.00    +0.000 NA
ATOM     16  C   UNL     1       4.005   5.531  17.874  0.00  0.00    +0.000 C 
ATOM     17  N   UNL     1       5.470   5.744  17.899  0.00  0.00    +0.000 NA
ATOM     18  C   UNL     1       6.146   4.771  18.395  0.00  0.00    +0.000 C 
ATOM     19  N   UNL     1       7.499   4.827  18.528  0.00  0.00    +0.000 N 
ATOM     20  N   UNL     1       5.589   3.672  18.926  0.00  0.00    +0.000 N 
ATOM     21  H   UNL     1       7.812   5.782  18.387  0.00  0.00    +0.000 HD
ATOM     22  H   UNL     1       7.831   4.473  19.416  0.00  0.00    +0.000 HD
ATOM     23  H   UNL     1       6.199   2.912  19.176  0.00  0.00    +0.000 HD
ENDBRANCH   1  16
BRANCH   6  24
ATOM     24  O   UNL     1      -0.718  10.995  21.038  0.00  0.00    +0.000 OA
BRANCH  24  25
ATOM     25  C   UNL     1      -0.914  12.004  20.038  0.00  0.00    +0.000 C 
BRANCH  25  26
ATOM     26  C   UNL     1      -2.311  12.013  19.494  0.00  0.00    +0.000 A 
ATOM     27  C   UNL     1      -2.667  11.431  18.272  0.00  0.00    +0.000 A 
ATOM     28  C   UNL     1      -3.999  11.451  17.848  0.00  0.00    +0.000 A 
ATOM     29  C   UNL     1      -4.980  12.049  18.638  0.00  0.00    +0.000 A 
ATOM     30  C   UNL     1      -4.635  12.633  19.855  0.00  0.00    +0.000 A 
ATOM     31  C   UNL     1      -3.311  12.613  20.270  0.00  0.00    +0.000 A 
ATOM     32  F   UNL     1      -2.991  13.170  21.445  0.00  0.00    +0.000 F 
ENDBRANCH  25  26
ENDBRANCH  24  25
ENDBRANCH   6  24
TORSDOF 4
ENDMDL
MODEL 8
REMARK VINA RESULT:      -8.9      2.145      2.454
REMARK  Name = 
REMARK  6 active torsions:
REMARK  status: ('A' for Active; 'I' for Inactive)
REMARK    1  A    between atoms: C_1  and  N_2
REMARK    2  A    between atoms: N_2  and  C_3
REMARK    3  A    between atoms: C_6  and  C_7
REMARK    4  A    between atoms: C_12  and  O_13
REMARK    5  A    between atoms: O_13  and  C_14
REMARK    6  A    between atoms: C_14  and  C_15
REMARK                            x       y       z     vdW  Elec       q    Type
REMARK                         _______ _______ _______ _____ _____    ______ ____
ROOT
ATOM      1  C   UNL     1       2.725   5.959  19.507  0.00  0.00    +0.000 A 
ATOM      2  C   UNL     1       1.998   6.109  20.694  0.00  0.00    +0.000 A 
ATOM      3  C   UNL     1       1.346   7.305  20.966  0.00  0.00    +0.000 A 
ATOM      4  C   UNL     1       1.392   8.359  20.044  0.00  0.00    +0.000 A 
ATOM      5  C   UNL     1       0.747   9.560  20.324  0.00  0.00    +0.000 A 
ATOM      6  C   UNL     1       0.690  10.580  19.371  0.00  0.00    +0.000 A 
ATOM      7  C   UNL     1       1.387  10.447  18.171  0.00  0.00    +0.000 A 
ATOM      8  C   UNL     1       2.094   9.274  17.904  0.00  0.00    +0.000 A 
ATOM      9  C   UNL     1       2.084   8.214  18.825  0.00  0.00    +0.000 A 
ATOM     10  C   UNL     1       2.758   7.015  18.578  0.00  0.00    +0.000 A 
ENDROOT
BRANCH   1  16
ATOM     11  C   UNL     1       6.178   3.743  15.320  0.00  0.00    +0.000 C 
ATOM     12  N   UNL     1       5.620   4.690  16.267  0.00  0.00    +0.000 N 
ATOM     13  C   UNL     1       5.335   6.016  15.704  0.00  0.00    +0.000 C 
ATOM     14  C   UNL     1       4.891   4.326  17.375  0.00  0.00    +0.000 C 
ATOM     15  N   UNL     1       4.594   5.183  18.286  0.00  0.00    +0.000 NA
ATOM     16  C   UNL     1       3.658   4.768  19.341  0.00  0.00    +0.000 C 
ATOM     17  N   UNL     1       2.884   3.523  19.128  0.00  0.00    +0.000 NA
ATOM     18  C   UNL     1       3.330   2.767  18.191  0.00  0.00    +0.000 C 
ATOM     19  N   UNL     1       2.708   1.608  17.842  0.00  0.00    +0.000 N 
ATOM     20  N   UNL     1       4.364   3.092  17.401  0.00  0.00    +0.000 N 
ATOM     21  H   UNL     1       1.788   1.578  18.269  0.00  0.00    +0.000 HD
ATOM     22  H   UNL     1       2.639   1.472  16.843  0.00  0.00    +0.000 HD
ATOM     23  H   UNL     1       4.718   2.384  16.779  0.00  0.00    +0.000 HD
ENDBRANCH   1  16
BRANCH   6  24
ATOM     24  O   UNL     1      -0.048  11.725  19.525  0.00  0.00    +0.000 OA
BRANCH  24  25
ATOM     25  C   UNL     1       0.081  12.316  20.825  0.00  0.00    +0.000 C 
BRANCH  25  26
ATOM     26  C   UNL     1      -1.240  12.505  21.507  0.00  0.00    +0.000 A 
ATOM     27  C   UNL     1      -2.257  13.325  21.006  0.00  0.00    +0.000 A 
ATOM     28  C   UNL     1      -3.475  13.423  21.684  0.00  0.00    +0.000 A 
ATOM     29  C   UNL     1      -3.686  12.706  22.861  0.00  0.00    +0.000 A 
ATOM     30  C   UNL     1      -2.679  11.889  23.369  0.00  0.00    +0.000 A 
ATOM     31  C   UNL     1      -1.469  11.797  22.694  0.00  0.00    +0.000 A 
ATOM     32  F   UNL     1      -0.510  11.003  23.186  0.00  0.00    +0.000 F 
ENDBRANCH  25  26
ENDBRANCH  24  25
ENDBRANCH   6  24
TORSDOF 4
ENDMDL
MODEL 9
REMARK VINA RESULT:      -8.8      4.727      9.080
REMARK  Name = 
REMARK  6 active torsions:
REMARK  status: ('A' for Active; 'I' for Inactive)
REMARK    1  A    between atoms: C_1  and  N_2
REMARK    2  A    between atoms: N_2  and  C_3
REMARK    3  A    between atoms: C_6  and  C_7
REMARK    4  A    between atoms: C_12  and  O_13
REMARK    5  A    between atoms: O_13  and  C_14
REMARK    6  A    between atoms: C_14  and  C_15
REMARK                            x       y       z     vdW  Elec       q    Type
REMARK                         _______ _______ _______ _____ _____    ______ ____
ROOT
ATOM      1  C   UNL     1       1.237   9.674  19.095  0.00  0.00    +0.000 A 
ATOM      2  C   UNL     1       1.820   9.468  17.838  0.00  0.00    +0.000 A 
ATOM      3  C   UNL     1       2.442   8.260  17.548  0.00  0.00    +0.000 A 
ATOM      4  C   UNL     1       2.469   7.234  18.500  0.00  0.00    +0.000 A 
ATOM      5  C   UNL     1       3.102   6.028  18.210  0.00  0.00    +0.000 A 
ATOM      6  C   UNL     1       3.043   4.957  19.105  0.00  0.00    +0.000 A 
ATOM      7  C   UNL     1       2.450   5.128  20.354  0.00  0.00    +0.000 A 
ATOM      8  C   UNL     1       1.867   6.353  20.685  0.00  0.00    +0.000 A 
ATOM      9  C   UNL     1       1.852   7.405  19.756  0.00  0.00    +0.000 A 
ATOM     10  C   UNL     1       1.255   8.635  20.044  0.00  0.00    +0.000 A 
ENDROOT
BRANCH   1  16
ATOM     11  C   UNL     1      -1.950  12.128  23.358  0.00  0.00    +0.000 C 
ATOM     12  N   UNL     1      -0.916  11.346  22.708  0.00  0.00    +0.000 N 
ATOM     13  C   UNL     1      -0.752   9.989  23.245  0.00  0.00    +0.000 C 
ATOM     14  C   UNL     1      -0.508  11.544  21.409  0.00  0.00    +0.000 C 
ATOM     15  N   UNL     1       0.543  10.967  20.947  0.00  0.00    +0.000 NA
ATOM     16  C   UNL     1       0.809  11.075  19.506  0.00  0.00    +0.000 C 
ATOM     17  N   UNL     1      -0.285  11.565  18.635  0.00  0.00    +0.000 NA
ATOM     18  C   UNL     1      -1.250  12.139  19.258  0.00  0.00    +0.000 C 
ATOM     19  N   UNL     1      -2.350  12.606  18.607  0.00  0.00    +0.000 N 
ATOM     20  N   UNL     1      -1.325  12.230  20.594  0.00  0.00    +0.000 N 
ATOM     21  H   UNL     1      -2.361  12.243  17.660  0.00  0.00    +0.000 HD
ATOM     22  H   UNL     1      -3.219  12.391  19.079  0.00  0.00    +0.000 HD
ATOM     23  H   UNL     1      -2.054  12.803  20.984  0.00  0.00    +0.000 HD
ENDBRANCH   1  16
BRANCH   6  24
ATOM     24  O   UNL     1       3.518   3.702  18.821  0.00  0.00    +0.000 OA
BRANCH  24  25
ATOM     25  C   UNL     1       4.896   3.522  19.172  0.00  0.00    +0.000 C 
BRANCH  25  26
ATOM     26  C   UNL     1       5.800   4.499  18.483  0.00  0.00    +0.000 A 
ATOM     27  C   UNL     1       6.554   5.464  19.160  0.00  0.00    +0.000 A 
ATOM     28  C   UNL     1       7.401   6.318  18.448  0.00  0.00    +0.000 A 
ATOM     29  C   UNL     1       7.501   6.215  17.062  0.00  0.00    +0.000 A 
ATOM     30  C   UNL     1       6.753   5.260  16.377  0.00  0.00    +0.000 A 
ATOM     31  C   UNL     1       5.911   4.416  17.089  0.00  0.00    +0.000 A 
ATOM     32  F   UNL     1       5.202   3.495  16.424  0.00  0.00    +0.000 F 
ENDBRANCH  25  26
ENDBRANCH  24  25
ENDBRANCH   6  24
TORSDOF 4
ENDMDL
