MODEL 1
REMARK VINA RESULT:      -7.5      0.000      0.000
REMARK  Name = 
REMARK  4 active torsions:
REMARK  status: ('A' for Active; 'I' for Inactive)
REMARK    1  A    between atoms: O_1  and  C_2
REMARK    2  A    between atoms: N_6  and  C_7
REMARK    3  A    between atoms: C_7  and  C_8
REMARK    4  A    between atoms: C_11  and  C_12
REMARK                            x       y       z     vdW  Elec       q    Type
REMARK                         _______ _______ _______ _____ _____    ______ ____
ROOT
ATOM      1  C   UNL     1       2.545   7.018  18.725  0.00  0.00    +0.000 A 
ATOM      2  C   UNL     1       2.258   6.723  20.062  0.00  0.00    +0.000 A 
ATOM      3  C   UNL     1       1.539   7.627  20.858  0.00  0.00    +0.000 A 
ATOM      4  C   UNL     1       1.088   8.858  20.351  0.00  0.00    +0.000 A 
ATOM      5  C   UNL     1       1.487   9.185  19.042  0.00  0.00    +0.000 A 
ATOM      6  C   UNL     1       2.189   8.278  18.238  0.00  0.00    +0.000 A 
ENDROOT
BRANCH   4   7
ATOM      7  C   UNL     1       0.155   9.726  21.117  0.00  0.00    +0.000 A 
ATOM      8  C   UNL     1      -0.450  10.861  20.560  0.00  0.00    +0.000 A 
ATOM      9  C   UNL     1      -1.239  11.680  21.360  0.00  0.00    +0.000 A 
ATOM     10  N   UNL     1      -1.488  11.449  22.663  0.00  0.00    +0.000 NA
ATOM     11  C   UNL     1      -0.918  10.351  23.191  0.00  0.00    +0.000 A 
ATOM     12  C   UNL     1      -0.106   9.483  22.476  0.00  0.00    +0.000 A 
ENDBRANCH   4   7
BRANCH   1  13
ATOM     13  C   UNL     1       3.123   5.962  17.799  0.00  0.00    +0.000 C 
BRANCH  13  18
ATOM     14  C   UNL     1       6.780   5.619  19.008  0.00  0.00    +0.000 A 
ATOM     15  C   UNL     1       7.337   6.496  18.157  0.00  0.00    +0.000 A 
ATOM     16  C   UNL     1       6.584   7.047  17.065  0.00  0.00    +0.000 A 
ATOM     17  C   UNL     1       5.267   6.825  16.984  0.00  0.00    +0.000 A 
ATOM     18  N   UNL     1       4.608   5.960  17.855  0.00  0.00    +0.000 N 
ATOM     19  C   UNL     1       5.339   5.170  18.775  0.00  0.00    +0.000 A 
ATOM     20  S   UNL     1       4.710   3.807  19.562  0.00  0.00    +0.000 S 
BRANCH  14  21
ATOM     21  O   UNL     1       7.465   5.134  20.104  0.00  0.00    +0.000 OA
ATOM     22  H   UNL     1       7.684   5.875  20.690  0.00  0.00    +0.000 HD
ENDBRANCH  14  21
ENDBRANCH  13  18
ENDBRANCH   1  13
TORSDOF 4
ENDMDL
MODEL 2
REMARK VINA RESULT:      -7.5      0.879      1.736
REMARK  Name = 
REMARK  4 active torsions:
REMARK  status: ('A' for Active; 'I' for Inactive)
REMARK    1  A    between atoms: O_1  and  C_2
REMARK    2  A    between atoms: N_6  and  C_7
REMARK    3  A    between atoms: C_7  and  C_8
REMARK    4  A    between atoms: C_11  and  C_12
REMARK                            x       y       z     vdW  Elec       q    Type
REMARK                         _______ _______ _______ _____ _____    ______ ____
ROOT
ATOM      1  C   UNL     1       2.993   6.476  18.136  0.00  0.00    +0.000 A 
ATOM      2  C   UNL     1       2.607   7.756  17.724  0.00  0.00    +0.000 A 
ATOM      3  C   UNL     1       1.918   8.613  18.594  0.00  0.00    +0.000 A 
ATOM      4  C   UNL     1       1.584   8.222  19.903  0.00  0.00    +0.000 A 
ATOM      5  C   UNL     1       1.877   6.893  20.257  0.00  0.00    +0.000 A 
ATOM      6  C   UNL     1       2.581   6.039  19.398  0.00  0.00    +0.000 A 
ENDROOT
BRANCH   4   7
ATOM      7  C   UNL     1       1.041   9.188  20.894  0.00  0.00    +0.000 A 
ATOM      8  C   UNL     1       0.641   8.804  22.182  0.00  0.00    +0.000 A 
ATOM      9  C   UNL     1       0.057   9.740  23.027  0.00  0.00    +0.000 A 
ATOM     10  N   UNL     1      -0.145  11.031  22.698  0.00  0.00    +0.000 NA
ATOM     11  C   UNL     1       0.253  11.400  21.468  0.00  0.00    +0.000 A 
ATOM     12  C   UNL     1       0.833  10.534  20.552  0.00  0.00    +0.000 A 
ENDBRANCH   4   7
BRANCH   1  13
ATOM     13  C   UNL     1       3.926   5.630  17.288  0.00  0.00    +0.000 C 
BRANCH  13  18
ATOM     14  C   UNL     1       7.235   5.789  19.284  0.00  0.00    +0.000 A 
ATOM     15  C   UNL     1       7.821   6.776  18.587  0.00  0.00    +0.000 A 
ATOM     16  C   UNL     1       7.250   7.255  17.359  0.00  0.00    +0.000 A 
ATOM     17  C   UNL     1       6.035   6.840  16.983  0.00  0.00    +0.000 A 
ATOM     18  N   UNL     1       5.343   5.849  17.676  0.00  0.00    +0.000 N 
ATOM     19  C   UNL     1       5.968   5.138  18.729  0.00  0.00    +0.000 A 
ATOM     20  S   UNL     1       5.403   3.664  19.343  0.00  0.00    +0.000 S 
BRANCH  14  21
ATOM     21  O   UNL     1       7.729   5.365  20.502  0.00  0.00    +0.000 OA
ATOM     22  H   UNL     1       7.014   4.934  20.997  0.00  0.00    +0.000 HD
ENDBRANCH  14  21
ENDBRANCH  13  18
ENDBRANCH   1  13
TORSDOF 4
ENDMDL
MODEL 3
REMARK VINA RESULT:      -7.3      0.205      1.034
REMARK  Name = 
REMARK  4 active torsions:
REMARK  status: ('A' for Active; 'I' for Inactive)
REMARK    1  A    between atoms: O_1  and  C_2
REMARK    2  A    between atoms: N_6  and  C_7
REMARK    3  A    between atoms: C_7  and  C_8
REMARK    4  A    between atoms: C_11  and  C_12
REMARK                            x       y       z     vdW  Elec       q    Type
REMARK                         _______ _______ _______ _____ _____    ______ ____
ROOT
ATOM      1  C   UNL     1       2.503   7.064  18.724  0.00  0.00    +0.000 A 
ATOM      2  C   UNL     1       2.197   6.824  20.068  0.00  0.00    +0.000 A 
ATOM      3  C   UNL     1       1.509   7.780  20.829  0.00  0.00    +0.000 A 
ATOM      4  C   UNL     1       1.108   9.010  20.279  0.00  0.00    +0.000 A 
ATOM      5  C   UNL     1       1.527   9.279  18.963  0.00  0.00    +0.000 A 
ATOM      6  C   UNL     1       2.199   8.320  18.194  0.00  0.00    +0.000 A 
ENDROOT
BRANCH   4   7
ATOM      7  C   UNL     1       0.205   9.938  21.011  0.00  0.00    +0.000 A 
ATOM      8  C   UNL     1      -0.027   9.835  22.389  0.00  0.00    +0.000 A 
ATOM      9  C   UNL     1      -0.953  10.676  22.994  0.00  0.00    +0.000 A 
ATOM     10  N   UNL     1      -1.655  11.621  22.340  0.00  0.00    +0.000 NA
ATOM     11  C   UNL     1      -1.420  11.727  21.019  0.00  0.00    +0.000 A 
ATOM     12  C   UNL     1      -0.525  10.924  20.327  0.00  0.00    +0.000 A 
ENDBRANCH   4   7
BRANCH   1  13
ATOM     13  C   UNL     1       3.045   5.957  17.836  0.00  0.00    +0.000 C 
BRANCH  13  18
ATOM     14  C   UNL     1       6.721   5.590  18.981  0.00  0.00    +0.000 A 
ATOM     15  C   UNL     1       7.274   6.436  18.095  0.00  0.00    +0.000 A 
ATOM     16  C   UNL     1       6.506   6.969  17.005  0.00  0.00    +0.000 A 
ATOM     17  C   UNL     1       5.185   6.765  16.956  0.00  0.00    +0.000 A 
ATOM     18  N   UNL     1       4.531   5.934  17.863  0.00  0.00    +0.000 N 
ATOM     19  C   UNL     1       5.268   5.157  18.789  0.00  0.00    +0.000 A 
ATOM     20  S   UNL     1       4.636   3.826  19.624  0.00  0.00    +0.000 S 
BRANCH  14  21
ATOM     21  O   UNL     1       7.421   5.123  20.075  0.00  0.00    +0.000 OA
ATOM     22  H   UNL     1       7.617   5.869  20.664  0.00  0.00    +0.000 HD
ENDBRANCH  14  21
ENDBRANCH  13  18
ENDBRANCH   1  13
TORSDOF 4
ENDMDL
MODEL 4
REMARK VINA RESULT:      -7.3      2.090      2.953
REMARK  Name = 
REMARK  4 active torsions:
REMARK  status: ('A' for Active; 'I' for Inactive)
REMARK    1  A    between atoms: O_1  and  C_2
REMARK    2  A    between atoms: N_6  and  C_7
REMARK    3  A    between atoms: C_7  and  C_8
REMARK    4  A    between atoms: C_11  and  C_12
REMARK                            x       y       z     vdW  Elec       q    Type
REMARK                         _______ _______ _______ _____ _____    ______ ____
ROOT
ATOM      1  C   UNL     1       2.480   6.981  18.559  0.00  0.00    +0.000 A 
ATOM      2  C   UNL     1       2.361   6.742  19.932  0.00  0.00    +0.000 A 
ATOM      3  C   UNL     1       1.732   7.673  20.771  0.00  0.00    +0.000 A 
ATOM      4  C   UNL     1       1.205   8.877  20.271  0.00  0.00    +0.000 A 
ATOM      5  C   UNL     1       1.438   9.150  18.911  0.00  0.00    +0.000 A 
ATOM      6  C   UNL     1       2.050   8.216  18.066  0.00  0.00    +0.000 A 
ENDROOT
BRANCH   4   7
ATOM      7  C   UNL     1       0.360   9.769  21.108  0.00  0.00    +0.000 A 
ATOM      8  C   UNL     1       0.088  11.099  20.758  0.00  0.00    +0.000 A 
ATOM      9  C   UNL     1      -0.632  11.905  21.632  0.00  0.00    +0.000 A 
ATOM     10  N   UNL     1      -1.119  11.488  22.817  0.00  0.00    +0.000 NA
ATOM     11  C   UNL     1      -0.869  10.208  23.143  0.00  0.00    +0.000 A 
ATOM     12  C   UNL     1      -0.148   9.333  22.343  0.00  0.00    +0.000 A 
ENDBRANCH   4   7
BRANCH   1  13
ATOM     13  C   UNL     1       2.955   5.891  17.614  0.00  0.00    +0.000 C 
BRANCH  13  18
ATOM     14  C   UNL     1       3.437   2.234  18.777  0.00  0.00    +0.000 A 
ATOM     15  C   UNL     1       2.144   1.868  18.767  0.00  0.00    +0.000 A 
ATOM     16  C   UNL     1       1.102   2.838  18.585  0.00  0.00    +0.000 A 
ATOM     17  C   UNL     1       1.413   4.097  18.252  0.00  0.00    +0.000 A 
ATOM     18  N   UNL     1       2.731   4.544  18.200  0.00  0.00    +0.000 N 
ATOM     19  C   UNL     1       3.791   3.714  18.641  0.00  0.00    +0.000 A 
ATOM     20  S   UNL     1       5.341   4.281  19.023  0.00  0.00    +0.000 S 
BRANCH  14  21
ATOM     21  O   UNL     1       4.455   1.308  18.878  0.00  0.00    +0.000 OA
ATOM     22  H   UNL     1       5.145   1.663  19.460  0.00  0.00    +0.000 HD
ENDBRANCH  14  21
ENDBRANCH  13  18
ENDBRANCH   1  13
TORSDOF 4
ENDMDL
MODEL 5
REMARK VINA RESULT:      -7.3      0.960      1.516
REMARK  Name = 
REMARK  4 active torsions:
REMARK  status: ('A' for Active; 'I' for Inactive)
REMARK    1  A    between atoms: O_1  and  C_2
REMARK    2  A    between atoms: N_6  and  C_7
REMARK    3  A    between atoms: C_7  and  C_8
REMARK    4  A    between atoms: C_11  and  C_12
REMARK                            x       y       z     vdW  Elec       q    Type
REMARK                         _______ _______ _______ _____ _____    ______ ____
ROOT
ATOM      1  C   UNL     1       3.113   6.475  17.990  0.00  0.00    +0.000 A 
ATOM      2  C   UNL     1       2.723   7.756  17.589  0.00  0.00    +0.000 A 
ATOM      3  C   UNL     1       1.987   8.584  18.450  0.00  0.00    +0.000 A 
ATOM      4  C   UNL     1       1.610   8.161  19.737  0.00  0.00    +0.000 A 
ATOM      5  C   UNL     1       1.911   6.829  20.075  0.00  0.00    +0.000 A 
ATOM      6  C   UNL     1       2.661   6.005  19.226  0.00  0.00    +0.000 A 
ENDROOT
BRANCH   4   7
ATOM      7  C   UNL     1       1.014   9.097  20.727  0.00  0.00    +0.000 A 
ATOM      8  C   UNL     1       0.849  10.465  20.467  0.00  0.00    +0.000 A 
ATOM      9  C   UNL     1       0.371  11.300  21.470  0.00  0.00    +0.000 A 
ATOM     10  N   UNL     1       0.028  10.880  22.703  0.00  0.00    +0.000 NA
ATOM     11  C   UNL     1       0.174   9.565  22.944  0.00  0.00    +0.000 A 
ATOM     12  C   UNL     1       0.656   8.658  22.012  0.00  0.00    +0.000 A 
ENDBRANCH   4   7
BRANCH   1  13
ATOM     13  C   UNL     1       4.091   5.661  17.161  0.00  0.00    +0.000 C 
BRANCH  13  18
ATOM     14  C   UNL     1       7.291   5.781  19.330  0.00  0.00    +0.000 A 
ATOM     15  C   UNL     1       7.914   6.779  18.681  0.00  0.00    +0.000 A 
ATOM     16  C   UNL     1       7.409   7.279  17.434  0.00  0.00    +0.000 A 
ATOM     17  C   UNL     1       6.215   6.872  16.987  0.00  0.00    +0.000 A 
ATOM     18  N   UNL     1       5.487   5.871  17.627  0.00  0.00    +0.000 N 
ATOM     19  C   UNL     1       6.055   5.142  18.699  0.00  0.00    +0.000 A 
ATOM     20  S   UNL     1       5.457   3.659  19.258  0.00  0.00    +0.000 S 
BRANCH  14  21
ATOM     21  O   UNL     1       7.720   5.336  20.565  0.00  0.00    +0.000 OA
ATOM     22  H   UNL     1       7.058   4.726  20.925  0.00  0.00    +0.000 HD
ENDBRANCH  14  21
ENDBRANCH  13  18
ENDBRANCH   1  13
TORSDOF 4
ENDMDL
MODEL 6
REMARK VINA RESULT:      -7.3      1.061      1.519
REMARK  Name = 
REMARK  4 active torsions:
REMARK  status: ('A' for Active; 'I' for Inactive)
REMARK    1  A    between atoms: O_1  and  C_2
REMARK    2  A    between atoms: N_6  and  C_7
REMARK    3  A    between atoms: C_7  and  C_8
REMARK    4  A    between atoms: C_11  and  C_12
REMARK                            x       y       z     vdW  Elec       q    Type
REMARK                         _______ _______ _______ _____ _____    ______ ____
ROOT
ATOM      1  C   UNL     1       3.005   7.142  18.207  0.00  0.00    +0.000 A 
ATOM      2  C   UNL     1       2.458   7.059  19.492  0.00  0.00    +0.000 A 
ATOM      3  C   UNL     1       1.642   8.084  19.992  0.00  0.00    +0.000 A 
ATOM      4  C   UNL     1       1.348   9.230  19.232  0.00  0.00    +0.000 A 
ATOM      5  C   UNL     1       2.001   9.348  17.992  0.00  0.00    +0.000 A 
ATOM      6  C   UNL     1       2.803   8.319  17.481  0.00  0.00    +0.000 A 
ENDROOT
BRANCH   4   7
ATOM      7  C   UNL     1       0.326  10.218  19.668  0.00  0.00    +0.000 A 
ATOM      8  C   UNL     1       0.351  10.823  20.932  0.00  0.00    +0.000 A 
ATOM      9  C   UNL     1      -0.686  11.668  21.310  0.00  0.00    +0.000 A 
ATOM     10  N   UNL     1      -1.736  11.972  20.523  0.00  0.00    +0.000 NA
ATOM     11  C   UNL     1      -1.750  11.402  19.305  0.00  0.00    +0.000 A 
ATOM     12  C   UNL     1      -0.768  10.536  18.846  0.00  0.00    +0.000 A 
ENDBRANCH   4   7
BRANCH   1  13
ATOM     13  C   UNL     1       3.700   5.950  17.575  0.00  0.00    +0.000 C 
BRANCH  13  18
ATOM     14  C   UNL     1       7.178   5.729  19.254  0.00  0.00    +0.000 A 
ATOM     15  C   UNL     1       7.814   6.618  18.474  0.00  0.00    +0.000 A 
ATOM     16  C   UNL     1       7.193   7.139  17.288  0.00  0.00    +0.000 A 
ATOM     17  C   UNL     1       5.906   6.874  17.038  0.00  0.00    +0.000 A 
ATOM     18  N   UNL     1       5.165   5.995  17.824  0.00  0.00    +0.000 N 
ATOM     19  C   UNL     1       5.793   5.233  18.839  0.00  0.00    +0.000 A 
ATOM     20  S   UNL     1       5.109   3.856  19.550  0.00  0.00    +0.000 S 
BRANCH  14  21
ATOM     21  O   UNL     1       7.728   5.271  20.434  0.00  0.00    +0.000 OA
ATOM     22  H   UNL     1       7.843   4.310  20.375  0.00  0.00    +0.000 HD
ENDBRANCH  14  21
ENDBRANCH  13  18
ENDBRANCH   1  13
TORSDOF 4
ENDMDL
MODEL 7
REMARK VINA RESULT:      -7.3      1.917      2.923
REMARK  Name = 
REMARK  4 active torsions:
REMARK  status: ('A' for Active; 'I' for Inactive)
REMARK    1  A    between atoms: O_1  and  C_2
REMARK    2  A    between atoms: N_6  and  C_7
REMARK    3  A    between atoms: C_7  and  C_8
REMARK    4  A    between atoms: C_11  and  C_12
REMARK                            x       y       z     vdW  Elec       q    Type
REMARK                         _______ _______ _______ _____ _____    ______ ____
ROOT
ATOM      1  C   UNL     1       2.359   7.241  18.678  0.00  0.00    +0.000 A 
ATOM      2  C   UNL     1       2.167   7.031  20.047  0.00  0.00    +0.000 A 
ATOM      3  C   UNL     1       1.497   7.982  20.832  0.00  0.00    +0.000 A 
ATOM      4  C   UNL     1       1.002   9.177  20.280  0.00  0.00    +0.000 A 
ATOM      5  C   UNL     1       1.309   9.420  18.929  0.00  0.00    +0.000 A 
ATOM      6  C   UNL     1       1.962   8.467  18.138  0.00  0.00    +0.000 A 
ENDROOT
BRANCH   4   7
ATOM      7  C   UNL     1       0.117  10.089  21.052  0.00  0.00    +0.000 A 
ATOM      8  C   UNL     1      -0.149   9.906  22.416  0.00  0.00    +0.000 A 
ATOM      9  C   UNL     1      -1.058  10.741  23.055  0.00  0.00    +0.000 A 
ATOM     10  N   UNL     1      -1.709  11.753  22.449  0.00  0.00    +0.000 NA
ATOM     11  C   UNL     1      -1.440  11.935  21.144  0.00  0.00    +0.000 A 
ATOM     12  C   UNL     1      -0.559  11.145  20.419  0.00  0.00    +0.000 A 
ENDBRANCH   4   7
BRANCH   1  13
ATOM     13  C   UNL     1       2.881   6.130  17.783  0.00  0.00    +0.000 C 
BRANCH  13  18
ATOM     14  C   UNL     1       3.842   2.695  19.276  0.00  0.00    +0.000 A 
ATOM     15  C   UNL     1       2.618   2.142  19.267  0.00  0.00    +0.000 A 
ATOM     16  C   UNL     1       1.453   2.930  18.974  0.00  0.00    +0.000 A 
ATOM     17  C   UNL     1       1.591   4.188  18.539  0.00  0.00    +0.000 A 
ATOM     18  N   UNL     1       2.832   4.819  18.480  0.00  0.00    +0.000 N 
ATOM     19  C   UNL     1       3.983   4.194  19.019  0.00  0.00    +0.000 A 
ATOM     20  S   UNL     1       5.420   5.013  19.388  0.00  0.00    +0.000 S 
BRANCH  14  21
ATOM     21  O   UNL     1       4.979   1.940  19.485  0.00  0.00    +0.000 OA
ATOM     22  H   UNL     1       4.959   1.173  18.892  0.00  0.00    +0.000 HD
ENDBRANCH  14  21
ENDBRANCH  13  18
ENDBRANCH   1  13
TORSDOF 4
ENDMDL
MODEL 8
REMARK VINA RESULT:      -7.3      3.090      4.356
REMARK  Name = 
REMARK  4 active torsions:
REMARK  status: ('A' for Active; 'I' for Inactive)
REMARK    1  A    between atoms: O_1  and  C_2
REMARK    2  A    between atoms: N_6  and  C_7
REMARK    3  A    between atoms: C_7  and  C_8
REMARK    4  A    between atoms: C_11  and  C_12
REMARK                            x       y       z     vdW  Elec       q    Type
REMARK                         _______ _______ _______ _____ _____    ______ ____
ROOT
ATOM      1  C   UNL     1       2.688   6.924  19.271  0.00  0.00    +0.000 A 
ATOM      2  C   UNL     1       2.594   7.481  17.992  0.00  0.00    +0.000 A 
ATOM      3  C   UNL     1       1.875   8.666  17.777  0.00  0.00    +0.000 A 
ATOM      4  C   UNL     1       1.218   9.331  18.827  0.00  0.00    +0.000 A 
ATOM      5  C   UNL     1       1.227   8.692  20.080  0.00  0.00    +0.000 A 
ATOM      6  C   UNL     1       1.958   7.519  20.304  0.00  0.00    +0.000 A 
ENDROOT
BRANCH   4   7
ATOM      7  C   UNL     1       0.631  10.686  18.651  0.00  0.00    +0.000 A 
ATOM      8  C   UNL     1       1.391  11.859  18.764  0.00  0.00    +0.000 A 
ATOM      9  C   UNL     1       0.762  13.095  18.678  0.00  0.00    +0.000 A 
ATOM     10  N   UNL     1      -0.560  13.257  18.472  0.00  0.00    +0.000 NA
ATOM     11  C   UNL     1      -1.284  12.130  18.350  0.00  0.00    +0.000 A 
ATOM     12  C   UNL     1      -0.746  10.854  18.434  0.00  0.00    +0.000 A 
ENDBRANCH   4   7
BRANCH   1  13
ATOM     13  C   UNL     1       3.639   5.775  19.555  0.00  0.00    +0.000 C 
BRANCH  13  18
ATOM     14  C   UNL     1       1.350   2.670  19.275  0.00  0.00    +0.000 A 
ATOM     15  C   UNL     1       1.057   2.540  20.579  0.00  0.00    +0.000 A 
ATOM     16  C   UNL     1       1.745   3.317  21.572  0.00  0.00    +0.000 A 
ATOM     17  C   UNL     1       2.568   4.302  21.196  0.00  0.00    +0.000 A 
ATOM     18  N   UNL     1       2.891   4.527  19.859  0.00  0.00    +0.000 N 
ATOM     19  C   UNL     1       2.468   3.623  18.855  0.00  0.00    +0.000 A 
ATOM     20  S   UNL     1       3.139   3.552  17.301  0.00  0.00    +0.000 S 
BRANCH  14  21
ATOM     21  O   UNL     1       0.651   1.986  18.300  0.00  0.00    +0.000 OA
ATOM     22  H   UNL     1       1.073   1.125  18.157  0.00  0.00    +0.000 HD
ENDBRANCH  14  21
ENDBRANCH  13  18
ENDBRANCH   1  13
TORSDOF 4
ENDMDL
MODEL 9
REMARK VINA RESULT:      -7.3      3.005      4.226
REMARK  Name = 
REMARK  4 active torsions:
REMARK  status: ('A' for Active; 'I' for Inactive)
REMARK    1  A    between atoms: O_1  and  C_2
REMARK    2  A    between atoms: N_6  and  C_7
REMARK    3  A    between atoms: C_7  and  C_8
REMARK    4  A    between atoms: C_11  and  C_12
REMARK                            x       y       z     vdW  Elec       q    Type
REMARK                         _______ _______ _______ _____ _____    ______ ____
ROOT
ATOM      1  C   UNL     1       2.598   7.024  19.414  0.00  0.00    +0.000 A 
ATOM      2  C   UNL     1       2.474   7.549  18.125  0.00  0.00    +0.000 A 
ATOM      3  C   UNL     1       1.742   8.724  17.896  0.00  0.00    +0.000 A 
ATOM      4  C   UNL     1       1.104   9.411  18.944  0.00  0.00    +0.000 A 
ATOM      5  C   UNL     1       1.144   8.803  20.212  0.00  0.00    +0.000 A 
ATOM      6  C   UNL     1       1.888   7.639  20.448  0.00  0.00    +0.000 A 
ENDROOT
BRANCH   4   7
ATOM      7  C   UNL     1       0.504  10.757  18.748  0.00  0.00    +0.000 A 
ATOM      8  C   UNL     1      -0.845  10.941  18.416  0.00  0.00    +0.000 A 
ATOM      9  C   UNL     1      -1.319  12.222  18.156  0.00  0.00    +0.000 A 
ATOM     10  N   UNL     1      -0.562  13.334  18.218  0.00  0.00    +0.000 NA
ATOM     11  C   UNL     1       0.729  13.156  18.551  0.00  0.00    +0.000 A 
ATOM     12  C   UNL     1       1.294  11.917  18.814  0.00  0.00    +0.000 A 
ENDBRANCH   4   7
BRANCH   1  13
ATOM     13  C   UNL     1       3.564   5.888  19.705  0.00  0.00    +0.000 C 
BRANCH  13  18
ATOM     14  C   UNL     1       1.969   2.582  18.486  0.00  0.00    +0.000 A 
ATOM     15  C   UNL     1       1.088   2.423  19.488  0.00  0.00    +0.000 A 
ATOM     16  C   UNL     1       1.138   3.259  20.655  0.00  0.00    +0.000 A 
ATOM     17  C   UNL     1       1.955   4.318  20.682  0.00  0.00    +0.000 A 
ATOM     18  N   UNL     1       2.869   4.575  19.663  0.00  0.00    +0.000 N 
ATOM     19  C   UNL     1       3.066   3.637  18.620  0.00  0.00    +0.000 A 
ATOM     20  S   UNL     1       4.413   3.632  17.593  0.00  0.00    +0.000 S 
BRANCH  14  21
ATOM     21  O   UNL     1       1.893   1.838  17.326  0.00  0.00    +0.000 OA
ATOM     22  H   UNL     1       2.126   0.918  17.527  0.00  0.00    +0.000 HD
ENDBRANCH  14  21
ENDBRANCH  13  18
ENDBRANCH   1  13
TORSDOF 4
ENDMDL
