MODEL 1
REMARK VINA RESULT:      -7.2      0.000      0.000
REMARK  Name = 
REMARK  3 active torsions:
REMARK  status: ('A' for Active; 'I' for Inactive)
REMARK    1  A    between atoms: C_1  and  N_2
REMARK    2  A    between atoms: C_6  and  C_7
REMARK    3  A    between atoms: N_9  and  C_10
REMARK                            x       y       z     vdW  Elec       q    Type
REMARK                         _______ _______ _______ _____ _____    ______ ____
ROOT
ATOM      1  C   UNL     1       5.297   4.446  17.664  0.00  0.00    +0.000 C 
ATOM      2  O   UNL     1       5.822   4.053  18.700  0.00  0.00    +0.000 OA
ATOM      3  N   UNL     1       3.949   4.733  17.541  0.00  0.00    +0.000 N 
ATOM      4  H   UNL     1       3.597   4.906  16.607  0.00  0.00    +0.000 HD
ENDROOT
BRANCH   3   5
ATOM      5  C   UNL     1       2.947   4.667  18.541  0.00  0.00    +0.000 A 
ATOM      6  C   UNL     1       2.578   5.760  19.330  0.00  0.00    +0.000 A 
ATOM      7  C   UNL     1       1.609   5.614  20.327  0.00  0.00    +0.000 A 
ATOM      8 CL   UNL     1       1.166   6.969  21.292  0.00  0.00    +0.000 Cl
ATOM      9  C   UNL     1       0.993   4.385  20.550  0.00  0.00    +0.000 A 
ATOM     10  C   UNL     1       1.330   3.292  19.753  0.00  0.00    +0.000 A 
ATOM     11  C   UNL     1       2.291   3.437  18.749  0.00  0.00    +0.000 A 
ATOM     12 CL   UNL     1       2.670   2.051  17.781  0.00  0.00    +0.000 Cl
ENDBRANCH   3   5
BRANCH   1  18
ATOM     13  C   UNL     1       7.367   6.672  17.112  0.00  0.00    +0.000 C 
ATOM     14  N   UNL     1       6.975   5.609  16.211  0.00  0.00    +0.000 N 
ATOM     15  N   UNL     1       7.555   5.550  14.994  0.00  0.00    +0.000 NA
ATOM     16  C   UNL     1       6.982   4.499  14.415  0.00  0.00    +0.000 A 
ATOM     17  C   UNL     1       6.045   3.876  15.253  0.00  0.00    +0.000 A 
ATOM     18  C   UNL     1       6.053   4.605  16.435  0.00  0.00    +0.000 A 
ENDBRANCH   1  18
TORSDOF 2
ENDMDL
MODEL 2
REMARK VINA RESULT:      -6.8      1.403      2.134
REMARK  Name = 
REMARK  3 active torsions:
REMARK  status: ('A' for Active; 'I' for Inactive)
REMARK    1  A    between atoms: C_1  and  N_2
REMARK    2  A    between atoms: C_6  and  C_7
REMARK    3  A    between atoms: N_9  and  C_10
REMARK                            x       y       z     vdW  Elec       q    Type
REMARK                         _______ _______ _______ _____ _____    ______ ____
ROOT
ATOM      1  C   UNL     1       5.495   4.525  17.837  0.00  0.00    +0.000 C 
ATOM      2  O   UNL     1       6.077   4.081  18.820  0.00  0.00    +0.000 OA
ATOM      3  N   UNL     1       4.168   4.921  17.837  0.00  0.00    +0.000 N 
ATOM      4  H   UNL     1       3.749   5.130  16.940  0.00  0.00    +0.000 HD
ENDROOT
BRANCH   3   5
ATOM      5  C   UNL     1       3.258   4.924  18.924  0.00  0.00    +0.000 A 
ATOM      6  C   UNL     1       2.973   3.789  19.689  0.00  0.00    +0.000 A 
ATOM      7  C   UNL     1       2.034   3.855  20.722  0.00  0.00    +0.000 A 
ATOM      8 CL   UNL     1       1.692   2.449  21.655  0.00  0.00    +0.000 Cl
ATOM      9  C   UNL     1       1.369   5.045  21.010  0.00  0.00    +0.000 A 
ATOM     10  C   UNL     1       1.663   6.191  20.274  0.00  0.00    +0.000 A 
ATOM     11  C   UNL     1       2.609   6.132  19.247  0.00  0.00    +0.000 A 
ATOM     12 CL   UNL     1       2.943   7.586  18.366  0.00  0.00    +0.000 Cl
ENDBRANCH   3   5
BRANCH   1  18
ATOM     13  C   UNL     1       7.419   6.790  16.993  0.00  0.00    +0.000 C 
ATOM     14  N   UNL     1       7.006   5.659  16.190  0.00  0.00    +0.000 N 
ATOM     15  N   UNL     1       7.493   5.546  14.937  0.00  0.00    +0.000 NA
ATOM     16  C   UNL     1       6.924   4.440  14.468  0.00  0.00    +0.000 A 
ATOM     17  C   UNL     1       6.080   3.835  15.413  0.00  0.00    +0.000 A 
ATOM     18  C   UNL     1       6.147   4.636  16.545  0.00  0.00    +0.000 A 
ENDBRANCH   1  18
TORSDOF 2
ENDMDL
MODEL 3
REMARK VINA RESULT:      -6.6      2.818      6.448
REMARK  Name = 
REMARK  3 active torsions:
REMARK  status: ('A' for Active; 'I' for Inactive)
REMARK    1  A    between atoms: C_1  and  N_2
REMARK    2  A    between atoms: C_6  and  C_7
REMARK    3  A    between atoms: N_9  and  C_10
REMARK                            x       y       z     vdW  Elec       q    Type
REMARK                         _______ _______ _______ _____ _____    ______ ____
ROOT
ATOM      1  C   UNL     1       3.205   4.636  18.628  0.00  0.00    +0.000 C 
ATOM      2  O   UNL     1       2.761   5.621  18.049  0.00  0.00    +0.000 OA
ATOM      3  N   UNL     1       4.361   3.973  18.253  0.00  0.00    +0.000 N 
ATOM      4  H   UNL     1       4.554   3.089  18.706  0.00  0.00    +0.000 HD
ENDROOT
BRANCH   3   5
ATOM      5  C   UNL     1       5.246   4.294  17.193  0.00  0.00    +0.000 A 
ATOM      6  C   UNL     1       5.024   3.913  15.867  0.00  0.00    +0.000 A 
ATOM      7  C   UNL     1       5.959   4.229  14.877  0.00  0.00    +0.000 A 
ATOM      8 CL   UNL     1       5.673   3.752  13.248  0.00  0.00    +0.000 Cl
ATOM      9  C   UNL     1       7.123   4.927  15.191  0.00  0.00    +0.000 A 
ATOM     10  C   UNL     1       7.346   5.338  16.504  0.00  0.00    +0.000 A 
ATOM     11  C   UNL     1       6.407   5.033  17.494  0.00  0.00    +0.000 A 
ATOM     12 CL   UNL     1       6.727   5.571  19.109  0.00  0.00    +0.000 Cl
ENDBRANCH   3   5
BRANCH   1  18
ATOM     13  C   UNL     1       1.214   2.278  18.468  0.00  0.00    +0.000 C 
ATOM     14  N   UNL     1       1.632   2.981  19.662  0.00  0.00    +0.000 N 
ATOM     15  N   UNL     1       1.122   2.593  20.849  0.00  0.00    +0.000 NA
ATOM     16  C   UNL     1       1.675   3.426  21.726  0.00  0.00    +0.000 A 
ATOM     17  C   UNL     1       2.544   4.342  21.112  0.00  0.00    +0.000 A 
ATOM     18  C   UNL     1       2.518   4.037  19.758  0.00  0.00    +0.000 A 
ENDBRANCH   1  18
TORSDOF 2
ENDMDL
MODEL 4
REMARK VINA RESULT:      -6.6      2.886      6.244
REMARK  Name = 
REMARK  3 active torsions:
REMARK  status: ('A' for Active; 'I' for Inactive)
REMARK    1  A    between atoms: C_1  and  N_2
REMARK    2  A    between atoms: C_6  and  C_7
REMARK    3  A    between atoms: N_9  and  C_10
REMARK                            x       y       z     vdW  Elec       q    Type
REMARK                         _______ _______ _______ _____ _____    ______ ____
ROOT
ATOM      1  C   UNL     1       2.570   3.647  18.474  0.00  0.00    +0.000 C 
ATOM      2  O   UNL     1       1.871   3.319  17.522  0.00  0.00    +0.000 OA
ATOM      3  N   UNL     1       3.746   4.367  18.359  0.00  0.00    +0.000 N 
ATOM      4  H   UNL     1       4.318   4.455  19.189  0.00  0.00    +0.000 HD
ENDROOT
BRANCH   3   5
ATOM      5  C   UNL     1       4.346   4.877  17.180  0.00  0.00    +0.000 A 
ATOM      6  C   UNL     1       4.973   4.069  16.228  0.00  0.00    +0.000 A 
ATOM      7  C   UNL     1       5.580   4.642  15.106  0.00  0.00    +0.000 A 
ATOM      8 CL   UNL     1       6.350   3.634  13.943  0.00  0.00    +0.000 Cl
ATOM      9  C   UNL     1       5.569   6.022  14.916  0.00  0.00    +0.000 A 
ATOM     10  C   UNL     1       4.923   6.839  15.842  0.00  0.00    +0.000 A 
ATOM     11  C   UNL     1       4.307   6.268  16.959  0.00  0.00    +0.000 A 
ATOM     12 CL   UNL     1       3.512   7.326  18.077  0.00  0.00    +0.000 Cl
ENDBRANCH   3   5
BRANCH   1  18
ATOM     13  C   UNL     1       4.448   2.145  20.414  0.00  0.00    +0.000 C 
ATOM     14  N   UNL     1       3.098   2.592  20.685  0.00  0.00    +0.000 N 
ATOM     15  N   UNL     1       2.572   2.347  21.903  0.00  0.00    +0.000 NA
ATOM     16  C   UNL     1       1.345   2.853  21.831  0.00  0.00    +0.000 A 
ATOM     17  C   UNL     1       1.080   3.430  20.579  0.00  0.00    +0.000 A 
ATOM     18  C   UNL     1       2.241   3.263  19.835  0.00  0.00    +0.000 A 
ENDBRANCH   1  18
TORSDOF 2
ENDMDL
MODEL 5
REMARK VINA RESULT:      -6.6      1.836      2.351
REMARK  Name = 
REMARK  3 active torsions:
REMARK  status: ('A' for Active; 'I' for Inactive)
REMARK    1  A    between atoms: C_1  and  N_2
REMARK    2  A    between atoms: C_6  and  C_7
REMARK    3  A    between atoms: N_9  and  C_10
REMARK                            x       y       z     vdW  Elec       q    Type
REMARK                         _______ _______ _______ _____ _____    ______ ____
ROOT
ATOM      1  C   UNL     1       4.653   4.103  17.052  0.00  0.00    +0.000 C 
ATOM      2  O   UNL     1       4.118   3.007  17.171  0.00  0.00    +0.000 OA
ATOM      3  N   UNL     1       4.352   5.201  17.840  0.00  0.00    +0.000 N 
ATOM      4  H   UNL     1       4.743   6.091  17.560  0.00  0.00    +0.000 HD
ENDROOT
BRANCH   3   5
ATOM      5  C   UNL     1       3.432   5.277  18.915  0.00  0.00    +0.000 A 
ATOM      6  C   UNL     1       3.198   4.221  19.801  0.00  0.00    +0.000 A 
ATOM      7  C   UNL     1       2.246   4.351  20.816  0.00  0.00    +0.000 A 
ATOM      8 CL   UNL     1       1.968   3.042  21.899  0.00  0.00    +0.000 Cl
ATOM      9  C   UNL     1       1.517   5.529  20.966  0.00  0.00    +0.000 A 
ATOM     10  C   UNL     1       1.759   6.600  20.108  0.00  0.00    +0.000 A 
ATOM     11  C   UNL     1       2.717   6.478  19.098  0.00  0.00    +0.000 A 
ATOM     12 CL   UNL     1       2.984   7.840  18.062  0.00  0.00    +0.000 Cl
ENDBRANCH   3   5
BRANCH   1  18
ATOM     13  C   UNL     1       7.658   4.625  17.543  0.00  0.00    +0.000 C 
ATOM     14  N   UNL     1       6.980   4.596  16.265  0.00  0.00    +0.000 N 
ATOM     15  N   UNL     1       7.705   4.812  15.147  0.00  0.00    +0.000 NA
ATOM     16  C   UNL     1       6.812   4.740  14.165  0.00  0.00    +0.000 A 
ATOM     17  C   UNL     1       5.519   4.469  14.641  0.00  0.00    +0.000 A 
ATOM     18  C   UNL     1       5.640   4.366  16.021  0.00  0.00    +0.000 A 
ENDBRANCH   1  18
TORSDOF 2
ENDMDL
MODEL 6
REMARK VINA RESULT:      -6.5      3.036      6.449
REMARK  Name = 
REMARK  3 active torsions:
REMARK  status: ('A' for Active; 'I' for Inactive)
REMARK    1  A    between atoms: C_1  and  N_2
REMARK    2  A    between atoms: C_6  and  C_7
REMARK    3  A    between atoms: N_9  and  C_10
REMARK                            x       y       z     vdW  Elec       q    Type
REMARK                         _______ _______ _______ _____ _____    ______ ____
ROOT
ATOM      1  C   UNL     1       3.688   2.728  18.679  0.00  0.00    +0.000 C 
ATOM      2  O   UNL     1       3.869   1.712  18.017  0.00  0.00    +0.000 OA
ATOM      3  N   UNL     1       4.295   3.943  18.413  0.00  0.00    +0.000 N 
ATOM      4  H   UNL     1       4.191   4.673  19.107  0.00  0.00    +0.000 HD
ENDROOT
BRANCH   3   5
ATOM      5  C   UNL     1       5.184   4.263  17.357  0.00  0.00    +0.000 A 
ATOM      6  C   UNL     1       4.944   3.922  16.023  0.00  0.00    +0.000 A 
ATOM      7  C   UNL     1       5.884   4.233  15.036  0.00  0.00    +0.000 A 
ATOM      8 CL   UNL     1       5.574   3.807  13.397  0.00  0.00    +0.000 Cl
ATOM      9  C   UNL     1       7.071   4.886  15.361  0.00  0.00    +0.000 A 
ATOM     10  C   UNL     1       7.313   5.256  16.682  0.00  0.00    +0.000 A 
ATOM     11  C   UNL     1       6.370   4.956  17.670  0.00  0.00    +0.000 A 
ATOM     12 CL   UNL     1       6.715   5.444  19.296  0.00  0.00    +0.000 Cl
ENDBRANCH   3   5
BRANCH   1  18
ATOM     13  C   UNL     1       0.598   2.749  18.648  0.00  0.00    +0.000 C 
ATOM     14  N   UNL     1       1.454   2.743  19.815  0.00  0.00    +0.000 N 
ATOM     15  N   UNL     1       0.879   2.744  21.035  0.00  0.00    +0.000 NA
ATOM     16  C   UNL     1       1.908   2.755  21.877  0.00  0.00    +0.000 A 
ATOM     17  C   UNL     1       3.141   2.753  21.208  0.00  0.00    +0.000 A 
ATOM     18  C   UNL     1       2.835   2.735  19.854  0.00  0.00    +0.000 A 
ENDBRANCH   1  18
TORSDOF 2
ENDMDL
MODEL 7
REMARK VINA RESULT:      -6.5      1.058      1.058
REMARK  Name = 
REMARK  3 active torsions:
REMARK  status: ('A' for Active; 'I' for Inactive)
REMARK    1  A    between atoms: C_1  and  N_2
REMARK    2  A    between atoms: C_6  and  C_7
REMARK    3  A    between atoms: N_9  and  C_10
REMARK                            x       y       z     vdW  Elec       q    Type
REMARK                         _______ _______ _______ _____ _____    ______ ____
ROOT
ATOM      1  C   UNL     1       4.474   5.600  16.867  0.00  0.00    +0.000 C 
ATOM      2  O   UNL     1       4.028   6.734  17.004  0.00  0.00    +0.000 OA
ATOM      3  N   UNL     1       4.056   4.509  17.610  0.00  0.00    +0.000 N 
ATOM      4  H   UNL     1       4.592   3.656  17.519  0.00  0.00    +0.000 HD
ENDROOT
BRANCH   3   5
ATOM      5  C   UNL     1       3.056   4.468  18.613  0.00  0.00    +0.000 A 
ATOM      6  C   UNL     1       2.643   5.595  19.331  0.00  0.00    +0.000 A 
ATOM      7  C   UNL     1       1.679   5.475  20.336  0.00  0.00    +0.000 A 
ATOM      8 CL   UNL     1       1.180   6.871  21.212  0.00  0.00    +0.000 Cl
ATOM      9  C   UNL     1       1.113   4.239  20.640  0.00  0.00    +0.000 A 
ATOM     10  C   UNL     1       1.494   3.111  19.914  0.00  0.00    +0.000 A 
ATOM     11  C   UNL     1       2.450   3.229  18.902  0.00  0.00    +0.000 A 
ATOM     12 CL   UNL     1       2.885   1.799  18.025  0.00  0.00    +0.000 Cl
ENDBRANCH   3   5
BRANCH   1  18
ATOM     13  C   UNL     1       7.442   6.391  17.200  0.00  0.00    +0.000 C 
ATOM     14  N   UNL     1       6.856   5.666  16.093  0.00  0.00    +0.000 N 
ATOM     15  N   UNL     1       7.660   5.276  15.083  0.00  0.00    +0.000 NA
ATOM     16  C   UNL     1       6.839   4.665  14.234  0.00  0.00    +0.000 A 
ATOM     17  C   UNL     1       5.513   4.652  14.696  0.00  0.00    +0.000 A 
ATOM     18  C   UNL     1       5.534   5.303  15.922  0.00  0.00    +0.000 A 
ENDBRANCH   1  18
TORSDOF 2
ENDMDL
MODEL 8
REMARK VINA RESULT:      -6.4      2.899      6.340
REMARK  Name = 
REMARK  3 active torsions:
REMARK  status: ('A' for Active; 'I' for Inactive)
REMARK    1  A    between atoms: C_1  and  N_2
REMARK    2  A    between atoms: C_6  and  C_7
REMARK    3  A    between atoms: N_9  and  C_10
REMARK                            x       y       z     vdW  Elec       q    Type
REMARK                         _______ _______ _______ _____ _____    ______ ____
ROOT
ATOM      1  C   UNL     1       3.373   3.162  18.408  0.00  0.00    +0.000 C 
ATOM      2  O   UNL     1       3.014   2.456  17.472  0.00  0.00    +0.000 OA
ATOM      3  N   UNL     1       4.426   4.058  18.341  0.00  0.00    +0.000 N 
ATOM      4  H   UNL     1       4.730   4.478  19.210  0.00  0.00    +0.000 HD
ENDROOT
BRANCH   3   5
ATOM      5  C   UNL     1       5.250   4.356  17.227  0.00  0.00    +0.000 A 
ATOM      6  C   UNL     1       4.929   3.989  15.917  0.00  0.00    +0.000 A 
ATOM      7  C   UNL     1       5.808   4.280  14.869  0.00  0.00    +0.000 A 
ATOM      8 CL   UNL     1       5.400   3.822  13.261  0.00  0.00    +0.000 Cl
ATOM      9  C   UNL     1       7.011   4.939  15.108  0.00  0.00    +0.000 A 
ATOM     10  C   UNL     1       7.332   5.336  16.405  0.00  0.00    +0.000 A 
ATOM     11  C   UNL     1       6.452   5.056  17.454  0.00  0.00    +0.000 A 
ATOM     12 CL   UNL     1       6.893   5.575  19.046  0.00  0.00    +0.000 Cl
ENDBRANCH   3   5
BRANCH   1  18
ATOM     13  C   UNL     1       4.587   1.823  20.914  0.00  0.00    +0.000 C 
ATOM     14  N   UNL     1       3.303   2.483  20.819  0.00  0.00    +0.000 N 
ATOM     15  N   UNL     1       2.527   2.542  21.921  0.00  0.00    +0.000 NA
ATOM     16  C   UNL     1       1.434   3.179  21.513  0.00  0.00    +0.000 A 
ATOM     17  C   UNL     1       1.505   3.539  20.158  0.00  0.00    +0.000 A 
ATOM     18  C   UNL     1       2.739   3.086  19.712  0.00  0.00    +0.000 A 
ENDBRANCH   1  18
TORSDOF 2
ENDMDL
MODEL 9
REMARK VINA RESULT:      -6.3      2.765      6.345
REMARK  Name = 
REMARK  3 active torsions:
REMARK  status: ('A' for Active; 'I' for Inactive)
REMARK    1  A    between atoms: C_1  and  N_2
REMARK    2  A    between atoms: C_6  and  C_7
REMARK    3  A    between atoms: N_9  and  C_10
REMARK                            x       y       z     vdW  Elec       q    Type
REMARK                         _______ _______ _______ _____ _____    ______ ____
ROOT
ATOM      1  C   UNL     1       3.088   4.222  18.267  0.00  0.00    +0.000 C 
ATOM      2  O   UNL     1       2.462   4.934  17.490  0.00  0.00    +0.000 OA
ATOM      3  N   UNL     1       4.409   3.851  18.084  0.00  0.00    +0.000 N 
ATOM      4  H   UNL     1       4.780   3.144  18.706  0.00  0.00    +0.000 HD
ENDROOT
BRANCH   3   5
ATOM      5  C   UNL     1       5.281   4.221  17.030  0.00  0.00    +0.000 A 
ATOM      6  C   UNL     1       5.106   3.803  15.708  0.00  0.00    +0.000 A 
ATOM      7  C   UNL     1       6.028   4.173  14.724  0.00  0.00    +0.000 A 
ATOM      8 CL   UNL     1       5.800   3.650  13.100  0.00  0.00    +0.000 Cl
ATOM      9  C   UNL     1       7.132   4.962  15.040  0.00  0.00    +0.000 A 
ATOM     10  C   UNL     1       7.305   5.409  16.348  0.00  0.00    +0.000 A 
ATOM     11  C   UNL     1       6.380   5.050  17.332  0.00  0.00    +0.000 A 
ATOM     12 CL   UNL     1       6.636   5.637  18.942  0.00  0.00    +0.000 Cl
ENDBRANCH   3   5
BRANCH   1  18
ATOM     13  C   UNL     1       1.938   5.841  20.634  0.00  0.00    +0.000 C 
ATOM     14  N   UNL     1       1.963   4.401  20.499  0.00  0.00    +0.000 N 
ATOM     15  N   UNL     1       1.435   3.652  21.491  0.00  0.00    +0.000 NA
ATOM     16  C   UNL     1       1.624   2.401  21.085  0.00  0.00    +0.000 A 
ATOM     17  C   UNL     1       2.261   2.338  19.836  0.00  0.00    +0.000 A 
ATOM     18  C   UNL     1       2.472   3.656  19.453  0.00  0.00    +0.000 A 
ENDBRANCH   1  18
TORSDOF 2
ENDMDL
