MODEL 1
REMARK VINA RESULT:      -4.5      0.000      0.000
REMARK  Name = 
REMARK  2 active torsions:
REMARK  status: ('A' for Active; 'I' for Inactive)
REMARK    1  A    between atoms: N_4  and  C_5
REMARK    2  A    between atoms: C_5  and  C_6
REMARK                            x       y       z     vdW  Elec       q    Type
REMARK                         _______ _______ _______ _____ _____    ______ ____
ROOT
ATOM      1  N   UNL     1       5.503   3.726  19.004  0.00  0.00    +0.000 N 
ATOM      2  C   UNL     1       4.573   2.852  19.460  0.00  0.00    +0.000 C 
ATOM      3  O   UNL     1       4.850   2.004  20.295  0.00  0.00    +0.000 OA
ATOM      4  N   UNL     1       3.341   3.052  18.918  0.00  0.00    +0.000 N 
ATOM      5  H   UNL     1       6.450   3.581  19.324  0.00  0.00    +0.000 HD
ATOM      6  H   UNL     1       5.353   4.295  18.188  0.00  0.00    +0.000 HD
ATOM      7  H   UNL     1       3.284   3.583  18.065  0.00  0.00    +0.000 HD
ENDROOT
BRANCH   4   8
ATOM      8  C   UNL     1       2.262   2.148  19.230  0.00  0.00    +0.000 C 
BRANCH   8   9
ATOM      9  C   UNL     1       1.250   2.840  20.085  0.00  0.00    +0.000 C 
ATOM     10  C   UNL     1       1.336   2.784  21.594  0.00  0.00    +0.000 C 
ATOM     11  C   UNL     1       1.641   4.066  20.873  0.00  0.00    +0.000 C 
ENDBRANCH   8   9
ENDBRANCH   4   8
TORSDOF 2
ENDMDL
MODEL 2
REMARK VINA RESULT:      -4.5      5.933      7.012
REMARK  Name = 
REMARK  2 active torsions:
REMARK  status: ('A' for Active; 'I' for Inactive)
REMARK    1  A    between atoms: N_4  and  C_5
REMARK    2  A    between atoms: C_5  and  C_6
REMARK                            x       y       z     vdW  Elec       q    Type
REMARK                         _______ _______ _______ _____ _____    ______ ____
ROOT
ATOM      1  N   UNL     1       7.528   4.259  17.732  0.00  0.00    +0.000 N 
ATOM      2  C   UNL     1       7.119   4.704  16.519  0.00  0.00    +0.000 C 
ATOM      3  O   UNL     1       7.544   5.747  16.045  0.00  0.00    +0.000 OA
ATOM      4  N   UNL     1       6.239   3.863  15.911  0.00  0.00    +0.000 N 
ATOM      5  H   UNL     1       8.132   4.877  18.257  0.00  0.00    +0.000 HD
ATOM      6  H   UNL     1       7.055   3.519  18.223  0.00  0.00    +0.000 HD
ATOM      7  H   UNL     1       5.760   3.189  16.485  0.00  0.00    +0.000 HD
ENDROOT
BRANCH   4   8
ATOM      8  C   UNL     1       5.639   4.236  14.655  0.00  0.00    +0.000 C 
BRANCH   8   9
ATOM      9  C   UNL     1       6.253   3.448  13.542  0.00  0.00    +0.000 C 
ATOM     10  C   UNL     1       5.580   3.352  12.192  0.00  0.00    +0.000 C 
ATOM     11  C   UNL     1       6.836   4.160  12.347  0.00  0.00    +0.000 C 
ENDBRANCH   8   9
ENDBRANCH   4   8
TORSDOF 2
ENDMDL
MODEL 3
REMARK VINA RESULT:      -4.4      1.582      1.774
REMARK  Name = 
REMARK  2 active torsions:
REMARK  status: ('A' for Active; 'I' for Inactive)
REMARK    1  A    between atoms: N_4  and  C_5
REMARK    2  A    between atoms: C_5  and  C_6
REMARK                            x       y       z     vdW  Elec       q    Type
REMARK                         _______ _______ _______ _____ _____    ______ ____
ROOT
ATOM      1  N   UNL     1       6.278   4.093  18.507  0.00  0.00    +0.000 N 
ATOM      2  C   UNL     1       4.977   3.714  18.515  0.00  0.00    +0.000 C 
ATOM      3  O   UNL     1       4.183   4.140  17.690  0.00  0.00    +0.000 OA
ATOM      4  N   UNL     1       4.690   2.814  19.494  0.00  0.00    +0.000 N 
ATOM      5  H   UNL     1       6.533   4.810  17.841  0.00  0.00    +0.000 HD
ATOM      6  H   UNL     1       6.897   3.914  19.279  0.00  0.00    +0.000 HD
ATOM      7  H   UNL     1       5.332   2.739  20.266  0.00  0.00    +0.000 HD
ENDROOT
BRANCH   4   8
ATOM      8  C   UNL     1       3.330   2.380  19.696  0.00  0.00    +0.000 C 
BRANCH   8   9
ATOM      9  C   UNL     1       2.673   3.229  20.737  0.00  0.00    +0.000 C 
ATOM     10  C   UNL     1       1.228   3.650  20.599  0.00  0.00    +0.000 C 
ATOM     11  C   UNL     1       1.617   2.636  21.637  0.00  0.00    +0.000 C 
ENDBRANCH   8   9
ENDBRANCH   4   8
TORSDOF 2
ENDMDL
MODEL 4
REMARK VINA RESULT:      -4.3      5.491      6.898
REMARK  Name = 
REMARK  2 active torsions:
REMARK  status: ('A' for Active; 'I' for Inactive)
REMARK    1  A    between atoms: N_4  and  C_5
REMARK    2  A    between atoms: C_5  and  C_6
REMARK                            x       y       z     vdW  Elec       q    Type
REMARK                         _______ _______ _______ _____ _____    ______ ____
ROOT
ATOM      1  N   UNL     1       7.789   4.259  17.779  0.00  0.00    +0.000 N 
ATOM      2  C   UNL     1       6.871   4.565  16.830  0.00  0.00    +0.000 C 
ATOM      3  O   UNL     1       5.683   4.663  17.097  0.00  0.00    +0.000 OA
ATOM      4  N   UNL     1       7.422   4.772  15.603  0.00  0.00    +0.000 N 
ATOM      5  H   UNL     1       7.427   4.031  18.695  0.00  0.00    +0.000 HD
ATOM      6  H   UNL     1       8.729   3.983  17.552  0.00  0.00    +0.000 HD
ATOM      7  H   UNL     1       8.347   4.410  15.436  0.00  0.00    +0.000 HD
ENDROOT
BRANCH   4   8
ATOM      8  C   UNL     1       6.573   5.016  14.464  0.00  0.00    +0.000 C 
BRANCH   8   9
ATOM      9  C   UNL     1       6.302   3.733  13.745  0.00  0.00    +0.000 C 
ATOM     10  C   UNL     1       5.209   3.640  12.706  0.00  0.00    +0.000 C 
ATOM     11  C   UNL     1       6.650   3.602  12.283  0.00  0.00    +0.000 C 
ENDBRANCH   8   9
ENDBRANCH   4   8
TORSDOF 2
ENDMDL
MODEL 5
REMARK VINA RESULT:      -4.3      5.767      6.278
REMARK  Name = 
REMARK  2 active torsions:
REMARK  status: ('A' for Active; 'I' for Inactive)
REMARK    1  A    between atoms: N_4  and  C_5
REMARK    2  A    between atoms: C_5  and  C_6
REMARK                            x       y       z     vdW  Elec       q    Type
REMARK                         _______ _______ _______ _____ _____    ______ ____
ROOT
ATOM      1  N   UNL     1       5.788   4.151  14.156  0.00  0.00    +0.000 N 
ATOM      2  C   UNL     1       6.747   4.601  15.001  0.00  0.00    +0.000 C 
ATOM      3  O   UNL     1       7.615   5.376  14.627  0.00  0.00    +0.000 OA
ATOM      4  N   UNL     1       6.606   4.128  16.269  0.00  0.00    +0.000 N 
ATOM      5  H   UNL     1       5.882   4.419  13.186  0.00  0.00    +0.000 HD
ATOM      6  H   UNL     1       5.190   3.374  14.384  0.00  0.00    +0.000 HD
ATOM      7  H   UNL     1       6.037   3.308  16.404  0.00  0.00    +0.000 HD
ENDROOT
BRANCH   4   8
ATOM      8  C   UNL     1       7.597   4.441  17.268  0.00  0.00    +0.000 C 
BRANCH   8   9
ATOM      9  C   UNL     1       7.088   5.520  18.170  0.00  0.00    +0.000 C 
ATOM     10  C   UNL     1       7.923   6.026  19.325  0.00  0.00    +0.000 C 
ATOM     11  C   UNL     1       7.705   6.896  18.120  0.00  0.00    +0.000 C 
ENDBRANCH   8   9
ENDBRANCH   4   8
TORSDOF 2
ENDMDL
MODEL 6
REMARK VINA RESULT:      -4.3      6.429      7.340
REMARK  Name = 
REMARK  2 active torsions:
REMARK  status: ('A' for Active; 'I' for Inactive)
REMARK    1  A    between atoms: N_4  and  C_5
REMARK    2  A    between atoms: C_5  and  C_6
REMARK                            x       y       z     vdW  Elec       q    Type
REMARK                         _______ _______ _______ _____ _____    ______ ____
ROOT
ATOM      1  N   UNL     1       7.392   6.576  16.450  0.00  0.00    +0.000 N 
ATOM      2  C   UNL     1       7.264   5.292  16.037  0.00  0.00    +0.000 C 
ATOM      3  O   UNL     1       7.848   4.378  16.601  0.00  0.00    +0.000 OA
ATOM      4  N   UNL     1       6.416   5.153  14.982  0.00  0.00    +0.000 N 
ATOM      5  H   UNL     1       8.060   6.745  17.189  0.00  0.00    +0.000 HD
ATOM      6  H   UNL     1       7.085   7.356  15.893  0.00  0.00    +0.000 HD
ATOM      7  H   UNL     1       6.206   5.973  14.437  0.00  0.00    +0.000 HD
ENDROOT
BRANCH   4   8
ATOM      8  C   UNL     1       6.241   3.862  14.364  0.00  0.00    +0.000 C 
BRANCH   8   9
ATOM      9  C   UNL     1       6.249   4.005  12.876  0.00  0.00    +0.000 C 
ATOM     10  C   UNL     1       6.506   2.813  11.981  0.00  0.00    +0.000 C 
ATOM     11  C   UNL     1       5.129   3.411  12.056  0.00  0.00    +0.000 C 
ENDBRANCH   8   9
ENDBRANCH   4   8
TORSDOF 2
ENDMDL
MODEL 7
REMARK VINA RESULT:      -4.3      3.093      4.804
REMARK  Name = 
REMARK  2 active torsions:
REMARK  status: ('A' for Active; 'I' for Inactive)
REMARK    1  A    between atoms: N_4  and  C_5
REMARK    2  A    between atoms: C_5  and  C_6
REMARK                            x       y       z     vdW  Elec       q    Type
REMARK                         _______ _______ _______ _____ _____    ______ ____
ROOT
ATOM      1  N   UNL     1       4.864   2.075  20.010  0.00  0.00    +0.000 N 
ATOM      2  C   UNL     1       4.594   3.231  19.358  0.00  0.00    +0.000 C 
ATOM      3  O   UNL     1       3.517   3.796  19.479  0.00  0.00    +0.000 OA
ATOM      4  N   UNL     1       5.639   3.680  18.612  0.00  0.00    +0.000 N 
ATOM      5  H   UNL     1       4.101   1.662  20.528  0.00  0.00    +0.000 HD
ATOM      6  H   UNL     1       5.655   1.497  19.779  0.00  0.00    +0.000 HD
ATOM      7  H   UNL     1       6.362   3.021  18.372  0.00  0.00    +0.000 HD
ENDROOT
BRANCH   4   8
ATOM      8  C   UNL     1       5.483   4.850  17.785  0.00  0.00    +0.000 C 
BRANCH   8   9
ATOM      9  C   UNL     1       5.224   4.442  16.369  0.00  0.00    +0.000 C 
ATOM     10  C   UNL     1       5.554   5.367  15.220  0.00  0.00    +0.000 C 
ATOM     11  C   UNL     1       6.382   4.134  15.451  0.00  0.00    +0.000 C 
ENDBRANCH   8   9
ENDBRANCH   4   8
TORSDOF 2
ENDMDL
MODEL 8
REMARK VINA RESULT:      -4.3      4.799      5.847
REMARK  Name = 
REMARK  2 active torsions:
REMARK  status: ('A' for Active; 'I' for Inactive)
REMARK    1  A    between atoms: N_4  and  C_5
REMARK    2  A    between atoms: C_5  and  C_6
REMARK                            x       y       z     vdW  Elec       q    Type
REMARK                         _______ _______ _______ _____ _____    ______ ____
ROOT
ATOM      1  N   UNL     1       8.241   5.315  19.755  0.00  0.00    +0.000 N 
ATOM      2  C   UNL     1       7.426   5.545  18.697  0.00  0.00    +0.000 C 
ATOM      3  O   UNL     1       7.352   6.648  18.176  0.00  0.00    +0.000 OA
ATOM      4  N   UNL     1       6.757   4.433  18.287  0.00  0.00    +0.000 N 
ATOM      5  H   UNL     1       8.713   6.121  20.142  0.00  0.00    +0.000 HD
ATOM      6  H   UNL     1       8.175   4.482  20.316  0.00  0.00    +0.000 HD
ATOM      7  H   UNL     1       6.684   3.664  18.932  0.00  0.00    +0.000 HD
ENDROOT
BRANCH   4   8
ATOM      8  C   UNL     1       5.781   4.530  17.230  0.00  0.00    +0.000 C 
BRANCH   8   9
ATOM      9  C   UNL     1       6.347   3.973  15.963  0.00  0.00    +0.000 C 
ATOM     10  C   UNL     1       5.702   4.268  14.627  0.00  0.00    +0.000 C 
ATOM     11  C   UNL     1       7.026   4.889  14.974  0.00  0.00    +0.000 C 
ENDBRANCH   8   9
ENDBRANCH   4   8
TORSDOF 2
ENDMDL
MODEL 9
REMARK VINA RESULT:      -4.3      2.196      2.560
REMARK  Name = 
REMARK  2 active torsions:
REMARK  status: ('A' for Active; 'I' for Inactive)
REMARK    1  A    between atoms: N_4  and  C_5
REMARK    2  A    between atoms: C_5  and  C_6
REMARK                            x       y       z     vdW  Elec       q    Type
REMARK                         _______ _______ _______ _____ _____    ______ ____
ROOT
ATOM      1  N   UNL     1       6.630   4.775  18.764  0.00  0.00    +0.000 N 
ATOM      2  C   UNL     1       5.379   4.454  19.176  0.00  0.00    +0.000 C 
ATOM      3  O   UNL     1       4.574   5.314  19.501  0.00  0.00    +0.000 OA
ATOM      4  N   UNL     1       5.136   3.115  19.150  0.00  0.00    +0.000 N 
ATOM      5  H   UNL     1       6.886   5.751  18.825  0.00  0.00    +0.000 HD
ATOM      6  H   UNL     1       7.362   4.090  18.681  0.00  0.00    +0.000 HD
ATOM      7  H   UNL     1       5.928   2.494  19.128  0.00  0.00    +0.000 HD
ENDROOT
BRANCH   4   8
ATOM      8  C   UNL     1       3.883   2.602  19.645  0.00  0.00    +0.000 C 
BRANCH   8   9
ATOM      9  C   UNL     1       3.043   2.123  18.504  0.00  0.00    +0.000 C 
ATOM     10  C   UNL     1       1.550   2.361  18.483  0.00  0.00    +0.000 C 
ATOM     11  C   UNL     1       2.442   3.118  17.541  0.00  0.00    +0.000 C 
ENDBRANCH   8   9
ENDBRANCH   4   8
TORSDOF 2
ENDMDL
