MODEL 1
REMARK VINA RESULT:      -7.2      0.000      0.000
REMARK  Name = 
REMARK  1 active torsions:
REMARK  status: ('A' for Active; 'I' for Inactive)
REMARK    1  A    between atoms: N_7  and  C_8
REMARK                            x       y       z     vdW  Elec       q    Type
REMARK                         _______ _______ _______ _____ _____    ______ ____
ROOT
ATOM      1  N   UNL     1       8.106   5.395  20.104  0.00  0.00    +0.000 N 
ATOM      2  C   UNL     1       7.577   6.092  19.038  0.00  0.00    +0.000 A 
ATOM      3  N   UNL     1       8.273   7.096  18.536  0.00  0.00    +0.000 NA
ATOM      4  C   UNL     1       7.691   7.688  17.498  0.00  0.00    +0.000 A 
ATOM      5  N   UNL     1       6.514   7.370  16.964  0.00  0.00    +0.000 NA
ATOM      6  C   UNL     1       5.882   6.375  17.576  0.00  0.00    +0.000 A 
ATOM      7  N   UNL     1       4.641   5.997  17.058  0.00  0.00    +0.000 N 
ATOM      8  N   UNL     1       6.385   5.717  18.618  0.00  0.00    +0.000 NA
ATOM      9  H   UNL     1       8.751   5.968  20.629  0.00  0.00    +0.000 HD
ATOM     10  H   UNL     1       7.371   4.925  20.613  0.00  0.00    +0.000 HD
ATOM     11  H   UNL     1       4.498   6.369  16.132  0.00  0.00    +0.000 HD
ENDROOT
BRANCH   7  12
ATOM     12  C   UNL     1       3.739   5.040  17.543  0.00  0.00    +0.000 A 
ATOM     13  C   UNL     1       3.748   3.714  17.081  0.00  0.00    +0.000 A 
ATOM     14  C   UNL     1       2.759   2.803  17.457  0.00  0.00    +0.000 A 
ATOM     15  C   UNL     1       1.745   3.211  18.313  0.00  0.00    +0.000 A 
ATOM     16 CL   UNL     1       0.500   2.107  18.743  0.00  0.00    +0.000 Cl
ATOM     17  C   UNL     1       1.729   4.512  18.811  0.00  0.00    +0.000 A 
ATOM     18  C   UNL     1       2.724   5.421  18.429  0.00  0.00    +0.000 A 
ENDBRANCH   7  12
TORSDOF 1
ENDMDL
MODEL 2
REMARK VINA RESULT:      -7.1      2.151      2.747
REMARK  Name = 
REMARK  1 active torsions:
REMARK  status: ('A' for Active; 'I' for Inactive)
REMARK    1  A    between atoms: N_7  and  C_8
REMARK                            x       y       z     vdW  Elec       q    Type
REMARK                         _______ _______ _______ _____ _____    ______ ____
ROOT
ATOM      1  N   UNL     1       7.955   4.413  18.122  0.00  0.00    +0.000 N 
ATOM      2  C   UNL     1       7.110   4.483  17.035  0.00  0.00    +0.000 A 
ATOM      3  N   UNL     1       7.614   4.843  15.868  0.00  0.00    +0.000 NA
ATOM      4  C   UNL     1       6.726   4.857  14.879  0.00  0.00    +0.000 A 
ATOM      5  N   UNL     1       5.431   4.565  14.975  0.00  0.00    +0.000 NA
ATOM      6  C   UNL     1       5.024   4.261  16.202  0.00  0.00    +0.000 A 
ATOM      7  N   UNL     1       3.673   3.944  16.363  0.00  0.00    +0.000 N 
ATOM      8  N   UNL     1       5.838   4.214  17.254  0.00  0.00    +0.000 NA
ATOM      9  H   UNL     1       8.753   5.021  18.002  0.00  0.00    +0.000 HD
ATOM     10  H   UNL     1       7.428   4.491  18.980  0.00  0.00    +0.000 HD
ATOM     11  H   UNL     1       3.232   3.749  15.478  0.00  0.00    +0.000 HD
ENDROOT
BRANCH   7  12
ATOM     12  C   UNL     1       2.971   3.658  17.542  0.00  0.00    +0.000 A 
ATOM     13  C   UNL     1       2.457   4.676  18.361  0.00  0.00    +0.000 A 
ATOM     14  C   UNL     1       1.887   4.394  19.604  0.00  0.00    +0.000 A 
ATOM     15  C   UNL     1       1.820   3.078  20.042  0.00  0.00    +0.000 A 
ATOM     16 CL   UNL     1       1.162   2.730  21.592  0.00  0.00    +0.000 Cl
ATOM     17  C   UNL     1       2.295   2.046  19.236  0.00  0.00    +0.000 A 
ATOM     18  C   UNL     1       2.866   2.336  17.990  0.00  0.00    +0.000 A 
ENDBRANCH   7  12
TORSDOF 1
ENDMDL
MODEL 3
REMARK VINA RESULT:      -7.0      0.255      1.263
REMARK  Name = 
REMARK  1 active torsions:
REMARK  status: ('A' for Active; 'I' for Inactive)
REMARK    1  A    between atoms: N_7  and  C_8
REMARK                            x       y       z     vdW  Elec       q    Type
REMARK                         _______ _______ _______ _____ _____    ______ ____
ROOT
ATOM      1  N   UNL     1       7.991   5.332  20.105  0.00  0.00    +0.000 N 
ATOM      2  C   UNL     1       7.539   6.080  19.038  0.00  0.00    +0.000 A 
ATOM      3  N   UNL     1       8.286   7.084  18.614  0.00  0.00    +0.000 NA
ATOM      4  C   UNL     1       7.777   7.728  17.568  0.00  0.00    +0.000 A 
ATOM      5  N   UNL     1       6.624   7.460  16.959  0.00  0.00    +0.000 NA
ATOM      6  C   UNL     1       5.935   6.461  17.498  0.00  0.00    +0.000 A 
ATOM      7  N   UNL     1       4.716   6.134  16.899  0.00  0.00    +0.000 N 
ATOM      8  N   UNL     1       6.364   5.753  18.540  0.00  0.00    +0.000 NA
ATOM      9  H   UNL     1       8.620   5.868  20.685  0.00  0.00    +0.000 HD
ATOM     10  H   UNL     1       7.219   4.863  20.555  0.00  0.00    +0.000 HD
ATOM     11  H   UNL     1       4.634   6.543  15.981  0.00  0.00    +0.000 HD
ENDROOT
BRANCH   7  12
ATOM     12  C   UNL     1       3.767   5.183  17.298  0.00  0.00    +0.000 A 
ATOM     13  C   UNL     1       2.674   5.526  18.109  0.00  0.00    +0.000 A 
ATOM     14  C   UNL     1       1.814   4.554  18.624  0.00  0.00    +0.000 A 
ATOM     15  C   UNL     1       2.037   3.217  18.324  0.00  0.00    +0.000 A 
ATOM     16 CL   UNL     1       1.009   2.012  18.993  0.00  0.00    +0.000 Cl
ATOM     17  C   UNL     1       3.096   2.851  17.497  0.00  0.00    +0.000 A 
ATOM     18  C   UNL     1       3.955   3.832  16.984  0.00  0.00    +0.000 A 
ENDBRANCH   7  12
TORSDOF 1
ENDMDL
MODEL 4
REMARK VINA RESULT:      -6.9      2.211      2.664
REMARK  Name = 
REMARK  1 active torsions:
REMARK  status: ('A' for Active; 'I' for Inactive)
REMARK    1  A    between atoms: N_7  and  C_8
REMARK                            x       y       z     vdW  Elec       q    Type
REMARK                         _______ _______ _______ _____ _____    ______ ____
ROOT
ATOM      1  N   UNL     1       7.499   6.723  17.823  0.00  0.00    +0.000 N 
ATOM      2  C   UNL     1       7.012   5.802  16.919  0.00  0.00    +0.000 A 
ATOM      3  N   UNL     1       7.539   5.771  15.708  0.00  0.00    +0.000 NA
ATOM      4  C   UNL     1       7.020   4.835  14.920  0.00  0.00    +0.000 A 
ATOM      5  N   UNL     1       6.050   3.981  15.238  0.00  0.00    +0.000 NA
ATOM      6  C   UNL     1       5.564   4.132  16.465  0.00  0.00    +0.000 A 
ATOM      7  N   UNL     1       4.543   3.262  16.855  0.00  0.00    +0.000 N 
ATOM      8  N   UNL     1       6.021   5.035  17.329  0.00  0.00    +0.000 NA
ATOM      9  H   UNL     1       7.902   7.519  17.350  0.00  0.00    +0.000 HD
ATOM     10  H   UNL     1       6.814   6.900  18.544  0.00  0.00    +0.000 HD
ATOM     11  H   UNL     1       4.477   2.469  16.236  0.00  0.00    +0.000 HD
ENDROOT
BRANCH   7  12
ATOM     12  C   UNL     1       3.812   3.244  18.051  0.00  0.00    +0.000 A 
ATOM     13  C   UNL     1       4.347   2.720  19.238  0.00  0.00    +0.000 A 
ATOM     14  C   UNL     1       3.568   2.570  20.387  0.00  0.00    +0.000 A 
ATOM     15  C   UNL     1       2.234   2.952  20.361  0.00  0.00    +0.000 A 
ATOM     16 CL   UNL     1       1.258   2.728  21.759  0.00  0.00    +0.000 Cl
ATOM     17  C   UNL     1       1.684   3.503  19.206  0.00  0.00    +0.000 A 
ATOM     18  C   UNL     1       2.472   3.650  18.056  0.00  0.00    +0.000 A 
ENDBRANCH   7  12
TORSDOF 1
ENDMDL
MODEL 5
REMARK VINA RESULT:      -6.9      2.266      2.585
REMARK  Name = 
REMARK  1 active torsions:
REMARK  status: ('A' for Active; 'I' for Inactive)
REMARK    1  A    between atoms: N_7  and  C_8
REMARK                            x       y       z     vdW  Elec       q    Type
REMARK                         _______ _______ _______ _____ _____    ______ ____
ROOT
ATOM      1  N   UNL     1       8.252   4.292  17.749  0.00  0.00    +0.000 N 
ATOM      2  C   UNL     1       7.249   4.446  16.815  0.00  0.00    +0.000 A 
ATOM      3  N   UNL     1       7.577   4.860  15.604  0.00  0.00    +0.000 NA
ATOM      4  C   UNL     1       6.545   4.954  14.770  0.00  0.00    +0.000 A 
ATOM      5  N   UNL     1       5.272   4.690  15.054  0.00  0.00    +0.000 NA
ATOM      6  C   UNL     1       5.052   4.325  16.312  0.00  0.00    +0.000 A 
ATOM      7  N   UNL     1       3.733   4.034  16.668  0.00  0.00    +0.000 N 
ATOM      8  N   UNL     1       6.019   4.197  17.218  0.00  0.00    +0.000 NA
ATOM      9  H   UNL     1       9.041   4.886  17.537  0.00  0.00    +0.000 HD
ATOM     10  H   UNL     1       7.868   4.333  18.682  0.00  0.00    +0.000 HD
ATOM     11  H   UNL     1       3.152   3.902  15.855  0.00  0.00    +0.000 HD
ENDROOT
BRANCH   7  12
ATOM     12  C   UNL     1       3.215   3.699  17.926  0.00  0.00    +0.000 A 
ATOM     13  C   UNL     1       2.977   2.365  18.296  0.00  0.00    +0.000 A 
ATOM     14  C   UNL     1       2.327   2.044  19.489  0.00  0.00    +0.000 A 
ATOM     15  C   UNL     1       1.910   3.062  20.335  0.00  0.00    +0.000 A 
ATOM     16 CL   UNL     1       1.069   2.673  21.784  0.00  0.00    +0.000 Cl
ATOM     17  C   UNL     1       2.160   4.393  20.008  0.00  0.00    +0.000 A 
ATOM     18  C   UNL     1       2.812   4.708  18.809  0.00  0.00    +0.000 A 
ENDBRANCH   7  12
TORSDOF 1
ENDMDL
MODEL 6
REMARK VINA RESULT:      -6.7      1.480      1.994
REMARK  Name = 
REMARK  1 active torsions:
REMARK  status: ('A' for Active; 'I' for Inactive)
REMARK    1  A    between atoms: N_7  and  C_8
REMARK                            x       y       z     vdW  Elec       q    Type
REMARK                         _______ _______ _______ _____ _____    ______ ____
ROOT
ATOM      1  N   UNL     1       8.252   5.377  20.249  0.00  0.00    +0.000 N 
ATOM      2  C   UNL     1       7.515   5.879  19.197  0.00  0.00    +0.000 A 
ATOM      3  N   UNL     1       8.111   6.694  18.345  0.00  0.00    +0.000 NA
ATOM      4  C   UNL     1       7.326   7.104  17.354  0.00  0.00    +0.000 A 
ATOM      5  N   UNL     1       6.046   6.784  17.175  0.00  0.00    +0.000 NA
ATOM      6  C   UNL     1       5.538   5.997  18.116  0.00  0.00    +0.000 A 
ATOM      7  N   UNL     1       4.198   5.627  17.979  0.00  0.00    +0.000 N 
ATOM      8  N   UNL     1       6.246   5.530  19.142  0.00  0.00    +0.000 NA
ATOM      9  H   UNL     1       9.022   5.989  20.479  0.00  0.00    +0.000 HD
ATOM     10  H   UNL     1       7.639   5.088  20.998  0.00  0.00    +0.000 HD
ATOM     11  H   UNL     1       3.858   5.809  17.048  0.00  0.00    +0.000 HD
ENDROOT
BRANCH   7  12
ATOM     12  C   UNL     1       3.400   4.873  18.850  0.00  0.00    +0.000 A 
ATOM     13  C   UNL     1       2.688   5.469  19.903  0.00  0.00    +0.000 A 
ATOM     14  C   UNL     1       2.013   4.701  20.855  0.00  0.00    +0.000 A 
ATOM     15  C   UNL     1       2.040   3.317  20.758  0.00  0.00    +0.000 A 
ATOM     16 CL   UNL     1       1.250   2.365  21.953  0.00  0.00    +0.000 Cl
ATOM     17  C   UNL     1       2.714   2.699  19.707  0.00  0.00    +0.000 A 
ATOM     18  C   UNL     1       3.389   3.476  18.756  0.00  0.00    +0.000 A 
ENDBRANCH   7  12
TORSDOF 1
ENDMDL
MODEL 7
REMARK VINA RESULT:      -6.7      3.671      5.852
REMARK  Name = 
REMARK  1 active torsions:
REMARK  status: ('A' for Active; 'I' for Inactive)
REMARK    1  A    between atoms: N_7  and  C_8
REMARK                            x       y       z     vdW  Elec       q    Type
REMARK                         _______ _______ _______ _____ _____    ______ ____
ROOT
ATOM      1  N   UNL     1       2.264   5.164  21.043  0.00  0.00    +0.000 N 
ATOM      2  C   UNL     1       2.764   4.183  20.212  0.00  0.00    +0.000 A 
ATOM      3  N   UNL     1       2.177   2.999  20.214  0.00  0.00    +0.000 NA
ATOM      4  C   UNL     1       2.717   2.131  19.363  0.00  0.00    +0.000 A 
ATOM      5  N   UNL     1       3.758   2.349  18.564  0.00  0.00    +0.000 NA
ATOM      6  C   UNL     1       4.296   3.558  18.678  0.00  0.00    +0.000 A 
ATOM      7  N   UNL     1       5.393   3.845  17.861  0.00  0.00    +0.000 N 
ATOM      8  N   UNL     1       3.824   4.497  19.495  0.00  0.00    +0.000 NA
ATOM      9  H   UNL     1       1.783   4.760  21.834  0.00  0.00    +0.000 HD
ATOM     10  H   UNL     1       2.972   5.860  21.227  0.00  0.00    +0.000 HD
ATOM     11  H   UNL     1       5.480   3.176  17.112  0.00  0.00    +0.000 HD
ENDROOT
BRANCH   7  12
ATOM     12  C   UNL     1       6.186   5.000  17.827  0.00  0.00    +0.000 A 
ATOM     13  C   UNL     1       7.262   5.184  18.709  0.00  0.00    +0.000 A 
ATOM     14  C   UNL     1       7.957   6.393  18.770  0.00  0.00    +0.000 A 
ATOM     15  C   UNL     1       7.582   7.439  17.938  0.00  0.00    +0.000 A 
ATOM     16 CL   UNL     1       8.404   8.945  18.041  0.00  0.00    +0.000 Cl
ATOM     17  C   UNL     1       6.537   7.274  17.031  0.00  0.00    +0.000 A 
ATOM     18  C   UNL     1       5.844   6.058  16.976  0.00  0.00    +0.000 A 
ENDBRANCH   7  12
TORSDOF 1
ENDMDL
MODEL 8
REMARK VINA RESULT:      -6.7      3.725      5.701
REMARK  Name = 
REMARK  1 active torsions:
REMARK  status: ('A' for Active; 'I' for Inactive)
REMARK    1  A    between atoms: N_7  and  C_8
REMARK                            x       y       z     vdW  Elec       q    Type
REMARK                         _______ _______ _______ _____ _____    ______ ____
ROOT
ATOM      1  N   UNL     1       1.822   1.485  18.621  0.00  0.00    +0.000 N 
ATOM      2  C   UNL     1       2.073   2.589  19.408  0.00  0.00    +0.000 A 
ATOM      3  N   UNL     1       1.354   2.758  20.503  0.00  0.00    +0.000 NA
ATOM      4  C   UNL     1       1.687   3.836  21.205  0.00  0.00    +0.000 A 
ATOM      5  N   UNL     1       2.633   4.720  20.896  0.00  0.00    +0.000 NA
ATOM      6  C   UNL     1       3.262   4.476  19.752  0.00  0.00    +0.000 A 
ATOM      7  N   UNL     1       4.267   5.371  19.377  0.00  0.00    +0.000 N 
ATOM      8  N   UNL     1       3.004   3.421  18.983  0.00  0.00    +0.000 NA
ATOM      9  H   UNL     1       0.873   1.160  18.742  0.00  0.00    +0.000 HD
ATOM     10  H   UNL     1       2.148   1.646  17.679  0.00  0.00    +0.000 HD
ATOM     11  H   UNL     1       4.551   5.953  20.149  0.00  0.00    +0.000 HD
ENDROOT
BRANCH   7  12
ATOM     12  C   UNL     1       5.032   5.393  18.202  0.00  0.00    +0.000 A 
ATOM     13  C   UNL     1       4.571   6.015  17.031  0.00  0.00    +0.000 A 
ATOM     14  C   UNL     1       5.267   5.910  15.826  0.00  0.00    +0.000 A 
ATOM     15  C   UNL     1       6.447   5.179  15.781  0.00  0.00    +0.000 A 
ATOM     16 CL   UNL     1       7.284   5.007  14.289  0.00  0.00    +0.000 Cl
ATOM     17  C   UNL     1       6.943   4.576  16.934  0.00  0.00    +0.000 A 
ATOM     18  C   UNL     1       6.239   4.686  18.140  0.00  0.00    +0.000 A 
ENDBRANCH   7  12
TORSDOF 1
ENDMDL
MODEL 9
REMARK VINA RESULT:      -6.5      2.167      2.912
REMARK  Name = 
REMARK  1 active torsions:
REMARK  status: ('A' for Active; 'I' for Inactive)
REMARK    1  A    between atoms: N_7  and  C_8
REMARK                            x       y       z     vdW  Elec       q    Type
REMARK                         _______ _______ _______ _____ _____    ______ ____
ROOT
ATOM      1  N   UNL     1       6.610   7.055  17.446  0.00  0.00    +0.000 N 
ATOM      2  C   UNL     1       6.486   5.932  16.656  0.00  0.00    +0.000 A 
ATOM      3  N   UNL     1       7.187   5.870  15.538  0.00  0.00    +0.000 NA
ATOM      4  C   UNL     1       7.018   4.740  14.859  0.00  0.00    +0.000 A 
ATOM      5  N   UNL     1       6.226   3.725  15.197  0.00  0.00    +0.000 NA
ATOM      6  C   UNL     1       5.535   3.914  16.316  0.00  0.00    +0.000 A 
ATOM      7  N   UNL     1       4.686   2.881  16.721  0.00  0.00    +0.000 N 
ATOM      8  N   UNL     1       5.641   5.008  17.066  0.00  0.00    +0.000 NA
ATOM      9  H   UNL     1       6.894   7.855  16.899  0.00  0.00    +0.000 HD
ATOM     10  H   UNL     1       5.800   7.154  18.041  0.00  0.00    +0.000 HD
ATOM     11  H   UNL     1       4.895   2.021  16.238  0.00  0.00    +0.000 HD
ENDROOT
BRANCH   7  12
ATOM     12  C   UNL     1       3.802   2.844  17.807  0.00  0.00    +0.000 A 
ATOM     13  C   UNL     1       2.480   3.302  17.700  0.00  0.00    +0.000 A 
ATOM     14  C   UNL     1       1.648   3.400  18.817  0.00  0.00    +0.000 A 
ATOM     15  C   UNL     1       2.133   3.030  20.064  0.00  0.00    +0.000 A 
ATOM     16 CL   UNL     1       1.129   3.191  21.450  0.00  0.00    +0.000 Cl
ATOM     17  C   UNL     1       3.432   2.543  20.195  0.00  0.00    +0.000 A 
ATOM     18  C   UNL     1       4.261   2.448  19.070  0.00  0.00    +0.000 A 
ENDBRANCH   7  12
TORSDOF 1
ENDMDL
