MODEL 1
REMARK VINA RESULT:      -8.1      0.000      0.000
REMARK  Name = 
REMARK  12 active torsions:
REMARK  status: ('A' for Active; 'I' for Inactive)
REMARK    1  A    between atoms: C_1  and  C_2
REMARK    2  A    between atoms: C_2  and  C_3
REMARK    3  A    between atoms: C_2  and  C_4
REMARK    4  A    between atoms: C_8  and  N_9
REMARK    5  A    between atoms: N_9  and  C_10
REMARK    6  A    between atoms: C_13  and  C_14
REMARK    7  A    between atoms: C_14  and  C_15
REMARK    8  A    between atoms: C_14  and  C_16
REMARK    9  A    between atoms: C_14  and  C_17
REMARK   10  A    between atoms: C_17  and  O_18
REMARK   11  A    between atoms: N_24  and  C_25
REMARK   12  A    between atoms: C_30  and  C_31
REMARK                            x       y       z     vdW  Elec       q    Type
REMARK                         _______ _______ _______ _____ _____    ______ ____
ROOT
ATOM      1  C   UNL     1      -2.290  11.147  17.483  0.00  0.00    +0.000 A 
ATOM      2  N   UNL     1      -3.117  11.707  18.381  0.00  0.00    +0.000 NA
ATOM      3  C   UNL     1      -2.623  11.924  19.615  0.00  0.00    +0.000 A 
ATOM      4  C   UNL     1      -1.309  11.630  19.951  0.00  0.00    +0.000 A 
ATOM      5  C   UNL     1      -0.535  11.019  18.967  0.00  0.00    +0.000 A 
ATOM      6  N   UNL     1      -1.030  10.763  17.745  0.00  0.00    +0.000 NA
ATOM      7  C   UNL     1      -0.793  11.985  21.315  0.00  0.00    +0.000 C 
ATOM      8  C   UNL     1      -0.741  13.499  21.522  0.00  0.00    +0.000 C 
ATOM      9  N   UNL     1      -2.024  14.112  21.867  0.00  0.00    +0.000 N 
ATOM     10  C   UNL     1      -3.153  14.006  20.919  0.00  0.00    +0.000 C 
ATOM     11  C   UNL     1      -3.559  12.562  20.615  0.00  0.00    +0.000 C 
ENDROOT
BRANCH   9  12
ATOM     12  C   UNL     1      -2.246  14.754  23.075  0.00  0.00    +0.000 A 
ATOM     13  N   UNL     1      -1.615  15.949  23.206  0.00  0.00    +0.000 NA
ATOM     14  C   UNL     1      -1.795  16.711  24.303  0.00  0.00    +0.000 A 
ATOM     15  C   UNL     1      -2.633  16.359  25.342  0.00  0.00    +0.000 A 
ATOM     16  C   UNL     1      -3.266  15.137  25.237  0.00  0.00    +0.000 A 
ATOM     17  C   UNL     1      -3.056  14.293  24.120  0.00  0.00    +0.000 A 
BRANCH  17  18
ATOM     18  C   UNL     1      -3.723  12.948  24.219  0.00  0.00    +0.000 C 
ATOM     19  F   UNL     1      -4.862  12.759  23.500  0.00  0.00    +0.000 F 
ATOM     20  F   UNL     1      -2.898  11.935  23.814  0.00  0.00    +0.000 F 
ATOM     21  F   UNL     1      -4.045  12.644  25.511  0.00  0.00    +0.000 F 
ENDBRANCH  17  18
ENDBRANCH   9  12
BRANCH   1  23
ATOM     22  C   UNL     1      -2.528   9.604  15.528  0.00  0.00    +0.000 C 
ATOM     23  C   UNL     1      -2.797  11.010  16.065  0.00  0.00    +0.000 C 
ATOM     24  C   UNL     1      -4.280  11.359  15.974  0.00  0.00    +0.000 C 
ENDBRANCH   1  23
BRANCH   5  25
ATOM     25  N   UNL     1       0.801  10.678  19.240  0.00  0.00    +0.000 N 
ATOM     26  H   UNL     1       1.442  11.445  19.115  0.00  0.00    +0.000 HD
BRANCH  25  27
ATOM     27  C   UNL     1       1.408   9.407  19.187  0.00  0.00    +0.000 A 
ATOM     28  C   UNL     1       1.403   8.572  20.306  0.00  0.00    +0.000 A 
ATOM     29  C   UNL     1       1.852   7.244  20.222  0.00  0.00    +0.000 A 
ATOM     30  C   UNL     1       2.300   6.700  19.004  0.00  0.00    +0.000 A 
ATOM     31  C   UNL     1       2.394   7.580  17.915  0.00  0.00    +0.000 A 
ATOM     32  C   UNL     1       1.971   8.913  18.010  0.00  0.00    +0.000 A 
BRANCH  30  33
ATOM     33  C   UNL     1       2.607   5.192  18.884  0.00  0.00    +0.000 C 
ATOM     34  C   UNL     1       2.327   4.521  20.253  0.00  0.00    +0.000 C 
ATOM     35  C   UNL     1       1.711   4.468  17.850  0.00  0.00    +0.000 C 
BRANCH  33  36
ATOM     36  C   UNL     1       4.090   4.976  18.480  0.00  0.00    +0.000 C 
BRANCH  36  37
ATOM     37  O   UNL     1       5.004   5.443  19.475  0.00  0.00    +0.000 OA
ATOM     38  H   UNL     1       5.398   6.270  19.153  0.00  0.00    +0.000 HD
ENDBRANCH  36  37
ENDBRANCH  33  36
ENDBRANCH  30  33
ENDBRANCH  25  27
ENDBRANCH   5  25
TORSDOF 8
ENDMDL
MODEL 2
REMARK VINA RESULT:      -8.0      0.750      1.388
REMARK  Name = 
REMARK  12 active torsions:
REMARK  status: ('A' for Active; 'I' for Inactive)
REMARK    1  A    between atoms: C_1  and  C_2
REMARK    2  A    between atoms: C_2  and  C_3
REMARK    3  A    between atoms: C_2  and  C_4
REMARK    4  A    between atoms: C_8  and  N_9
REMARK    5  A    between atoms: N_9  and  C_10
REMARK    6  A    between atoms: C_13  and  C_14
REMARK    7  A    between atoms: C_14  and  C_15
REMARK    8  A    between atoms: C_14  and  C_16
REMARK    9  A    between atoms: C_14  and  C_17
REMARK   10  A    between atoms: C_17  and  O_18
REMARK   11  A    between atoms: N_24  and  C_25
REMARK   12  A    between atoms: C_30  and  C_31
REMARK                            x       y       z     vdW  Elec       q    Type
REMARK                         _______ _______ _______ _____ _____    ______ ____
ROOT
ATOM      1  C   UNL     1      -2.181  11.119  17.810  0.00  0.00    +0.000 A 
ATOM      2  N   UNL     1      -2.953  11.757  18.705  0.00  0.00    +0.000 NA
ATOM      3  C   UNL     1      -2.447  11.921  19.943  0.00  0.00    +0.000 A 
ATOM      4  C   UNL     1      -1.171  11.494  20.285  0.00  0.00    +0.000 A 
ATOM      5  C   UNL     1      -0.457  10.811  19.304  0.00  0.00    +0.000 A 
ATOM      6  N   UNL     1      -0.968  10.609  18.078  0.00  0.00    +0.000 NA
ATOM      7  C   UNL     1      -0.630  11.792  21.653  0.00  0.00    +0.000 C 
ATOM      8  C   UNL     1      -0.427  13.293  21.865  0.00  0.00    +0.000 C 
ATOM      9  N   UNL     1      -1.643  14.031  22.205  0.00  0.00    +0.000 N 
ATOM     10  C   UNL     1      -2.771  14.042  21.250  0.00  0.00    +0.000 C 
ATOM     11  C   UNL     1      -3.320  12.647  20.939  0.00  0.00    +0.000 C 
ENDROOT
BRANCH   9  12
ATOM     12  C   UNL     1      -1.807  14.689  23.413  0.00  0.00    +0.000 A 
ATOM     13  N   UNL     1      -0.983  15.754  23.594  0.00  0.00    +0.000 NA
ATOM     14  C   UNL     1      -1.080  16.523  24.697  0.00  0.00    +0.000 A 
ATOM     15  C   UNL     1      -2.014  16.313  25.691  0.00  0.00    +0.000 A 
ATOM     16  C   UNL     1      -2.845  15.222  25.535  0.00  0.00    +0.000 A 
ATOM     17  C   UNL     1      -2.732  14.366  24.413  0.00  0.00    +0.000 A 
BRANCH  17  18
ATOM     18  C   UNL     1      -3.627  13.157  24.457  0.00  0.00    +0.000 C 
ATOM     19  F   UNL     1      -3.137  11.997  23.944  0.00  0.00    +0.000 F 
ATOM     20  F   UNL     1      -3.990  12.833  25.734  0.00  0.00    +0.000 F 
ATOM     21  F   UNL     1      -4.805  13.383  23.803  0.00  0.00    +0.000 F 
ENDBRANCH  17  18
ENDBRANCH   9  12
BRANCH   1  23
ATOM     22  C   UNL     1      -2.477   9.635  15.818  0.00  0.00    +0.000 C 
ATOM     23  C   UNL     1      -2.691  11.037  16.389  0.00  0.00    +0.000 C 
ATOM     24  C   UNL     1      -4.159  11.447  16.306  0.00  0.00    +0.000 C 
ENDBRANCH   1  23
BRANCH   5  25
ATOM     25  N   UNL     1       0.836  10.336  19.583  0.00  0.00    +0.000 N 
ATOM     26  H   UNL     1       1.498  11.071  19.778  0.00  0.00    +0.000 HD
BRANCH  25  27
ATOM     27  C   UNL     1       1.428   9.121  19.182  0.00  0.00    +0.000 A 
ATOM     28  C   UNL     1       1.954   8.980  17.896  0.00  0.00    +0.000 A 
ATOM     29  C   UNL     1       2.694   7.841  17.536  0.00  0.00    +0.000 A 
ATOM     30  C   UNL     1       2.951   6.814  18.463  0.00  0.00    +0.000 A 
ATOM     31  C   UNL     1       2.330   6.924  19.717  0.00  0.00    +0.000 A 
ATOM     32  C   UNL     1       1.568   8.049  20.063  0.00  0.00    +0.000 A 
BRANCH  30  33
ATOM     33  C   UNL     1       3.921   5.667  18.112  0.00  0.00    +0.000 C 
ATOM     34  C   UNL     1       3.097   4.469  17.574  0.00  0.00    +0.000 C 
ATOM     35  C   UNL     1       4.929   6.040  16.997  0.00  0.00    +0.000 C 
BRANCH  33  36
ATOM     36  C   UNL     1       4.723   5.237  19.371  0.00  0.00    +0.000 C 
BRANCH  36  37
ATOM     37  O   UNL     1       6.119   5.520  19.255  0.00  0.00    +0.000 OA
ATOM     38  H   UNL     1       6.553   4.730  18.892  0.00  0.00    +0.000 HD
ENDBRANCH  36  37
ENDBRANCH  33  36
ENDBRANCH  30  33
ENDBRANCH  25  27
ENDBRANCH   5  25
TORSDOF 8
ENDMDL
MODEL 3
REMARK VINA RESULT:      -8.0      4.188      5.242
REMARK  Name = 
REMARK  12 active torsions:
REMARK  status: ('A' for Active; 'I' for Inactive)
REMARK    1  A    between atoms: C_1  and  C_2
REMARK    2  A    between atoms: C_2  and  C_3
REMARK    3  A    between atoms: C_2  and  C_4
REMARK    4  A    between atoms: C_8  and  N_9
REMARK    5  A    between atoms: N_9  and  C_10
REMARK    6  A    between atoms: C_13  and  C_14
REMARK    7  A    between atoms: C_14  and  C_15
REMARK    8  A    between atoms: C_14  and  C_16
REMARK    9  A    between atoms: C_14  and  C_17
REMARK   10  A    between atoms: C_17  and  O_18
REMARK   11  A    between atoms: N_24  and  C_25
REMARK   12  A    between atoms: C_30  and  C_31
REMARK                            x       y       z     vdW  Elec       q    Type
REMARK                         _______ _______ _______ _____ _____    ______ ____
ROOT
ATOM      1  C   UNL     1      -1.930  10.814  18.463  0.00  0.00    +0.000 A 
ATOM      2  N   UNL     1      -1.814  12.143  18.620  0.00  0.00    +0.000 NA
ATOM      3  C   UNL     1      -0.777  12.583  19.358  0.00  0.00    +0.000 A 
ATOM      4  C   UNL     1       0.163  11.722  19.905  0.00  0.00    +0.000 A 
ATOM      5  C   UNL     1      -0.057  10.359  19.721  0.00  0.00    +0.000 A 
ATOM      6  N   UNL     1      -1.109   9.908  19.019  0.00  0.00    +0.000 NA
ATOM      7  C   UNL     1       1.348  12.282  20.637  0.00  0.00    +0.000 C 
ATOM      8  C   UNL     1       2.275  13.058  19.700  0.00  0.00    +0.000 C 
ATOM      9  N   UNL     1       1.838  14.421  19.400  0.00  0.00    +0.000 N 
ATOM     10  C   UNL     1       0.537  14.630  18.729  0.00  0.00    +0.000 C 
ATOM     11  C   UNL     1      -0.651  14.080  19.520  0.00  0.00    +0.000 C 
ENDROOT
BRANCH   9  12
ATOM     12  C   UNL     1       2.572  15.539  19.759  0.00  0.00    +0.000 A 
ATOM     13  N   UNL     1       2.041  16.261  20.779  0.00  0.00    +0.000 NA
ATOM     14  C   UNL     1       2.684  17.337  21.274  0.00  0.00    +0.000 A 
ATOM     15  C   UNL     1       3.913  17.766  20.814  0.00  0.00    +0.000 A 
ATOM     16  C   UNL     1       4.458  17.058  19.762  0.00  0.00    +0.000 A 
ATOM     17  C   UNL     1       3.782  15.954  19.189  0.00  0.00    +0.000 A 
BRANCH  17  18
ATOM     18  C   UNL     1       4.453  15.371  17.975  0.00  0.00    +0.000 C 
ATOM     19  F   UNL     1       5.687  15.844  17.655  0.00  0.00    +0.000 F 
ATOM     20  F   UNL     1       4.629  14.020  18.084  0.00  0.00    +0.000 F 
ATOM     21  F   UNL     1       3.690  15.537  16.854  0.00  0.00    +0.000 F 
ENDBRANCH  17  18
ENDBRANCH   9  12
BRANCH   1  23
ATOM     22  C   UNL     1      -4.115  11.371  17.379  0.00  0.00    +0.000 C 
ATOM     23  C   UNL     1      -3.019  10.317  17.539  0.00  0.00    +0.000 C 
ATOM     24  C   UNL     1      -2.446   9.909  16.184  0.00  0.00    +0.000 C 
ENDBRANCH   1  23
BRANCH   5  25
ATOM     25  N   UNL     1       0.845   9.426  20.260  0.00  0.00    +0.000 N 
ATOM     26  H   UNL     1       1.264   9.729  21.126  0.00  0.00    +0.000 HD
BRANCH  25  27
ATOM     27  C   UNL     1       1.577   8.427  19.587  0.00  0.00    +0.000 A 
ATOM     28  C   UNL     1       2.093   8.664  18.311  0.00  0.00    +0.000 A 
ATOM     29  C   UNL     1       2.963   7.747  17.699  0.00  0.00    +0.000 A 
ATOM     30  C   UNL     1       3.364   6.570  18.356  0.00  0.00    +0.000 A 
ATOM     31  C   UNL     1       2.758   6.297  19.592  0.00  0.00    +0.000 A 
ATOM     32  C   UNL     1       1.868   7.202  20.189  0.00  0.00    +0.000 A 
BRANCH  30  33
ATOM     33  C   UNL     1       4.465   5.671  17.753  0.00  0.00    +0.000 C 
ATOM     34  C   UNL     1       3.800   4.390  17.186  0.00  0.00    +0.000 C 
ATOM     35  C   UNL     1       5.214   6.335  16.572  0.00  0.00    +0.000 C 
BRANCH  33  36
ATOM     36  C   UNL     1       5.505   5.293  18.841  0.00  0.00    +0.000 C 
BRANCH  36  37
ATOM     37  O   UNL     1       5.786   3.891  18.869  0.00  0.00    +0.000 OA
ATOM     38  H   UNL     1       4.939   3.418  18.867  0.00  0.00    +0.000 HD
ENDBRANCH  36  37
ENDBRANCH  33  36
ENDBRANCH  30  33
ENDBRANCH  25  27
ENDBRANCH   5  25
TORSDOF 8
ENDMDL
MODEL 4
REMARK VINA RESULT:      -8.0      0.618      1.044
REMARK  Name = 
REMARK  12 active torsions:
REMARK  status: ('A' for Active; 'I' for Inactive)
REMARK    1  A    between atoms: C_1  and  C_2
REMARK    2  A    between atoms: C_2  and  C_3
REMARK    3  A    between atoms: C_2  and  C_4
REMARK    4  A    between atoms: C_8  and  N_9
REMARK    5  A    between atoms: N_9  and  C_10
REMARK    6  A    between atoms: C_13  and  C_14
REMARK    7  A    between atoms: C_14  and  C_15
REMARK    8  A    between atoms: C_14  and  C_16
REMARK    9  A    between atoms: C_14  and  C_17
REMARK   10  A    between atoms: C_17  and  O_18
REMARK   11  A    between atoms: N_24  and  C_25
REMARK   12  A    between atoms: C_30  and  C_31
REMARK                            x       y       z     vdW  Elec       q    Type
REMARK                         _______ _______ _______ _____ _____    ______ ____
ROOT
ATOM      1  C   UNL     1      -2.271  11.130  17.507  0.00  0.00    +0.000 A 
ATOM      2  N   UNL     1      -3.119  11.684  18.389  0.00  0.00    +0.000 NA
ATOM      3  C   UNL     1      -2.641  11.930  19.624  0.00  0.00    +0.000 A 
ATOM      4  C   UNL     1      -1.324  11.669  19.977  0.00  0.00    +0.000 A 
ATOM      5  C   UNL     1      -0.528  11.062  19.009  0.00  0.00    +0.000 A 
ATOM      6  N   UNL     1      -1.005  10.777  17.786  0.00  0.00    +0.000 NA
ATOM      7  C   UNL     1      -0.829  12.054  21.341  0.00  0.00    +0.000 C 
ATOM      8  C   UNL     1      -0.813  13.572  21.527  0.00  0.00    +0.000 C 
ATOM      9  N   UNL     1      -2.111  14.161  21.851  0.00  0.00    +0.000 N 
ATOM     10  C   UNL     1      -3.229  14.018  20.893  0.00  0.00    +0.000 C 
ATOM     11  C   UNL     1      -3.601  12.561  20.606  0.00  0.00    +0.000 C 
ENDROOT
BRANCH   9  12
ATOM     12  C   UNL     1      -2.360  14.815  23.047  0.00  0.00    +0.000 A 
ATOM     13  N   UNL     1      -1.784  16.040  23.153  0.00  0.00    +0.000 NA
ATOM     14  C   UNL     1      -1.996  16.814  24.236  0.00  0.00    +0.000 A 
ATOM     15  C   UNL     1      -2.813  16.443  25.286  0.00  0.00    +0.000 A 
ATOM     16  C   UNL     1      -3.389  15.192  25.206  0.00  0.00    +0.000 A 
ATOM     17  C   UNL     1      -3.144  14.337  24.104  0.00  0.00    +0.000 A 
BRANCH  17  18
ATOM     18  C   UNL     1      -3.747  12.965  24.231  0.00  0.00    +0.000 C 
ATOM     19  F   UNL     1      -4.127  12.560  25.472  0.00  0.00    +0.000 F 
ATOM     20  F   UNL     1      -4.875  12.827  23.472  0.00  0.00    +0.000 F 
ATOM     21  F   UNL     1      -2.895  12.000  23.772  0.00  0.00    +0.000 F 
ENDBRANCH  17  18
ENDBRANCH   9  12
BRANCH   1  23
ATOM     22  C   UNL     1      -2.528   9.531  15.600  0.00  0.00    +0.000 C 
ATOM     23  C   UNL     1      -2.761  10.962  16.086  0.00  0.00    +0.000 C 
ATOM     24  C   UNL     1      -4.230  11.353  15.961  0.00  0.00    +0.000 C 
ENDBRANCH   1  23
BRANCH   5  25
ATOM     25  N   UNL     1       0.813  10.754  19.299  0.00  0.00    +0.000 N 
ATOM     26  H   UNL     1       1.418  11.560  19.292  0.00  0.00    +0.000 HD
BRANCH  25  27
ATOM     27  C   UNL     1       1.486   9.528  19.126  0.00  0.00    +0.000 A 
ATOM     28  C   UNL     1       1.490   8.572  20.145  0.00  0.00    +0.000 A 
ATOM     29  C   UNL     1       2.010   7.285  19.929  0.00  0.00    +0.000 A 
ATOM     30  C   UNL     1       2.523   6.905  18.676  0.00  0.00    +0.000 A 
ATOM     31  C   UNL     1       2.605   7.906  17.696  0.00  0.00    +0.000 A 
ATOM     32  C   UNL     1       2.111   9.199  17.923  0.00  0.00    +0.000 A 
BRANCH  30  33
ATOM     33  C   UNL     1       2.912   5.437  18.400  0.00  0.00    +0.000 C 
ATOM     34  C   UNL     1       1.666   4.690  17.860  0.00  0.00    +0.000 C 
ATOM     35  C   UNL     1       4.012   5.291  17.320  0.00  0.00    +0.000 C 
BRANCH  33  36
ATOM     36  C   UNL     1       3.414   4.760  19.703  0.00  0.00    +0.000 C 
BRANCH  36  37
ATOM     37  O   UNL     1       2.598   3.653  20.097  0.00  0.00    +0.000 OA
ATOM     38  H   UNL     1       2.722   3.517  21.050  0.00  0.00    +0.000 HD
ENDBRANCH  36  37
ENDBRANCH  33  36
ENDBRANCH  30  33
ENDBRANCH  25  27
ENDBRANCH   5  25
TORSDOF 8
ENDMDL
MODEL 5
REMARK VINA RESULT:      -7.9      0.832      1.552
REMARK  Name = 
REMARK  12 active torsions:
REMARK  status: ('A' for Active; 'I' for Inactive)
REMARK    1  A    between atoms: C_1  and  C_2
REMARK    2  A    between atoms: C_2  and  C_3
REMARK    3  A    between atoms: C_2  and  C_4
REMARK    4  A    between atoms: C_8  and  N_9
REMARK    5  A    between atoms: N_9  and  C_10
REMARK    6  A    between atoms: C_13  and  C_14
REMARK    7  A    between atoms: C_14  and  C_15
REMARK    8  A    between atoms: C_14  and  C_16
REMARK    9  A    between atoms: C_14  and  C_17
REMARK   10  A    between atoms: C_17  and  O_18
REMARK   11  A    between atoms: N_24  and  C_25
REMARK   12  A    between atoms: C_30  and  C_31
REMARK                            x       y       z     vdW  Elec       q    Type
REMARK                         _______ _______ _______ _____ _____    ______ ____
ROOT
ATOM      1  C   UNL     1      -2.249  11.120  17.644  0.00  0.00    +0.000 A 
ATOM      2  N   UNL     1      -3.047  11.744  18.526  0.00  0.00    +0.000 NA
ATOM      3  C   UNL     1      -2.561  11.928  19.769  0.00  0.00    +0.000 A 
ATOM      4  C   UNL     1      -1.280  11.535  20.129  0.00  0.00    +0.000 A 
ATOM      5  C   UNL     1      -0.536  10.865  19.161  0.00  0.00    +0.000 A 
ATOM      6  N   UNL     1      -1.026  10.643  17.931  0.00  0.00    +0.000 NA
ATOM      7  C   UNL     1      -0.763  11.854  21.503  0.00  0.00    +0.000 C 
ATOM      8  C   UNL     1      -0.600  13.361  21.708  0.00  0.00    +0.000 C 
ATOM      9  N   UNL     1      -1.838  14.070  22.028  0.00  0.00    +0.000 N 
ATOM     10  C   UNL     1      -2.955  14.048  21.059  0.00  0.00    +0.000 C 
ATOM     11  C   UNL     1      -3.464  12.638  20.750  0.00  0.00    +0.000 C 
ENDROOT
BRANCH   9  12
ATOM     12  C   UNL     1      -2.034  14.731  23.230  0.00  0.00    +0.000 A 
ATOM     13  N   UNL     1      -1.318  15.877  23.370  0.00  0.00    +0.000 NA
ATOM     14  C   UNL     1      -1.460  16.653  24.462  0.00  0.00    +0.000 A 
ATOM     15  C   UNL     1      -2.340  16.368  25.487  0.00  0.00    +0.000 A 
ATOM     16  C   UNL     1      -3.060  15.196  25.374  0.00  0.00    +0.000 A 
ATOM     17  C   UNL     1      -2.893  14.335  24.262  0.00  0.00    +0.000 A 
BRANCH  17  18
ATOM     18  C   UNL     1      -3.659  13.043  24.352  0.00  0.00    +0.000 C 
ATOM     19  F   UNL     1      -4.101  12.662  25.580  0.00  0.00    +0.000 F 
ATOM     20  F   UNL     1      -4.787  13.059  23.579  0.00  0.00    +0.000 F 
ATOM     21  F   UNL     1      -2.925  11.993  23.880  0.00  0.00    +0.000 F 
ENDBRANCH  17  18
ENDBRANCH   9  12
BRANCH   1  23
ATOM     22  C   UNL     1      -2.475   9.621  15.655  0.00  0.00    +0.000 C 
ATOM     23  C   UNL     1      -2.738  11.018  16.218  0.00  0.00    +0.000 C 
ATOM     24  C   UNL     1      -4.217  11.383  16.115  0.00  0.00    +0.000 C 
ENDBRANCH   1  23
BRANCH   5  25
ATOM     25  N   UNL     1       0.764  10.423  19.459  0.00  0.00    +0.000 N 
ATOM     26  H   UNL     1       1.409  11.176  19.646  0.00  0.00    +0.000 HD
BRANCH  25  27
ATOM     27  C   UNL     1       1.386   9.215  19.085  0.00  0.00    +0.000 A 
ATOM     28  C   UNL     1       1.967   9.078  17.823  0.00  0.00    +0.000 A 
ATOM     29  C   UNL     1       2.733   7.947  17.496  0.00  0.00    +0.000 A 
ATOM     30  C   UNL     1       2.964   6.925  18.434  0.00  0.00    +0.000 A 
ATOM     31  C   UNL     1       2.291   7.029  19.662  0.00  0.00    +0.000 A 
ATOM     32  C   UNL     1       1.503   8.146  19.974  0.00  0.00    +0.000 A 
BRANCH  30  33
ATOM     33  C   UNL     1       3.962   5.788  18.127  0.00  0.00    +0.000 C 
ATOM     34  C   UNL     1       4.958   6.285  17.048  0.00  0.00    +0.000 C 
ATOM     35  C   UNL     1       4.813   5.376  19.353  0.00  0.00    +0.000 C 
BRANCH  33  36
ATOM     36  C   UNL     1       3.205   4.533  17.614  0.00  0.00    +0.000 C 
BRANCH  36  37
ATOM     37  O   UNL     1       4.083   3.442  17.325  0.00  0.00    +0.000 OA
ATOM     38  H   UNL     1       4.121   3.338  16.361  0.00  0.00    +0.000 HD
ENDBRANCH  36  37
ENDBRANCH  33  36
ENDBRANCH  30  33
ENDBRANCH  25  27
ENDBRANCH   5  25
TORSDOF 8
ENDMDL
MODEL 6
REMARK VINA RESULT:      -7.8      4.217      5.178
REMARK  Name = 
REMARK  12 active torsions:
REMARK  status: ('A' for Active; 'I' for Inactive)
REMARK    1  A    between atoms: C_1  and  C_2
REMARK    2  A    between atoms: C_2  and  C_3
REMARK    3  A    between atoms: C_2  and  C_4
REMARK    4  A    between atoms: C_8  and  N_9
REMARK    5  A    between atoms: N_9  and  C_10
REMARK    6  A    between atoms: C_13  and  C_14
REMARK    7  A    between atoms: C_14  and  C_15
REMARK    8  A    between atoms: C_14  and  C_16
REMARK    9  A    between atoms: C_14  and  C_17
REMARK   10  A    between atoms: C_17  and  O_18
REMARK   11  A    between atoms: N_24  and  C_25
REMARK   12  A    between atoms: C_30  and  C_31
REMARK                            x       y       z     vdW  Elec       q    Type
REMARK                         _______ _______ _______ _____ _____    ______ ____
ROOT
ATOM      1  C   UNL     1      -1.895  10.704  18.291  0.00  0.00    +0.000 A 
ATOM      2  N   UNL     1      -1.821  12.029  18.494  0.00  0.00    +0.000 NA
ATOM      3  C   UNL     1      -0.818  12.474  19.275  0.00  0.00    +0.000 A 
ATOM      4  C   UNL     1       0.132  11.622  19.820  0.00  0.00    +0.000 A 
ATOM      5  C   UNL     1      -0.044  10.260  19.586  0.00  0.00    +0.000 A 
ATOM      6  N   UNL     1      -1.063   9.803  18.840  0.00  0.00    +0.000 NA
ATOM      7  C   UNL     1       1.280  12.190  20.603  0.00  0.00    +0.000 C 
ATOM      8  C   UNL     1       2.209  13.022  19.718  0.00  0.00    +0.000 C 
ATOM      9  N   UNL     1       1.741  14.382  19.450  0.00  0.00    +0.000 N 
ATOM     10  C   UNL     1       0.453  14.577  18.750  0.00  0.00    +0.000 C 
ATOM     11  C   UNL     1      -0.740  13.968  19.490  0.00  0.00    +0.000 C 
ENDROOT
BRANCH   9  12
ATOM     12  C   UNL     1       2.433  15.508  19.866  0.00  0.00    +0.000 A 
ATOM     13  N   UNL     1       1.871  16.161  20.916  0.00  0.00    +0.000 NA
ATOM     14  C   UNL     1       2.472  17.236  21.464  0.00  0.00    +0.000 A 
ATOM     15  C   UNL     1       3.687  17.729  21.032  0.00  0.00    +0.000 A 
ATOM     16  C   UNL     1       4.262  17.092  19.952  0.00  0.00    +0.000 A 
ATOM     17  C   UNL     1       3.628  15.993  19.323  0.00  0.00    +0.000 A 
BRANCH  17  18
ATOM     18  C   UNL     1       4.326  15.492  18.088  0.00  0.00    +0.000 C 
ATOM     19  F   UNL     1       4.591  14.161  18.014  0.00  0.00    +0.000 F 
ATOM     20  F   UNL     1       3.612  15.756  16.952  0.00  0.00    +0.000 F 
ATOM     21  F   UNL     1       5.525  16.120  17.902  0.00  0.00    +0.000 F 
ENDBRANCH  17  18
ENDBRANCH   9  12
BRANCH   1  23
ATOM     22  C   UNL     1      -4.339  10.650  17.761  0.00  0.00    +0.000 C 
ATOM     23  C   UNL     1      -2.943  10.208  17.321  0.00  0.00    +0.000 C 
ATOM     24  C   UNL     1      -2.641  10.673  15.899  0.00  0.00    +0.000 C 
ENDBRANCH   1  23
BRANCH   5  25
ATOM     25  N   UNL     1       0.871   9.335  20.119  0.00  0.00    +0.000 N 
ATOM     26  H   UNL     1       1.270   9.629  20.997  0.00  0.00    +0.000 HD
BRANCH  25  27
ATOM     27  C   UNL     1       1.634   8.366  19.437  0.00  0.00    +0.000 A 
ATOM     28  C   UNL     1       2.105   8.615  18.146  0.00  0.00    +0.000 A 
ATOM     29  C   UNL     1       3.003   7.734  17.521  0.00  0.00    +0.000 A 
ATOM     30  C   UNL     1       3.478   6.585  18.178  0.00  0.00    +0.000 A 
ATOM     31  C   UNL     1       2.917   6.296  19.432  0.00  0.00    +0.000 A 
ATOM     32  C   UNL     1       1.999   7.163  20.042  0.00  0.00    +0.000 A 
BRANCH  30  33
ATOM     33  C   UNL     1       4.605   5.735  17.555  0.00  0.00    +0.000 C 
ATOM     34  C   UNL     1       5.699   5.504  18.629  0.00  0.00    +0.000 C 
ATOM     35  C   UNL     1       4.132   4.331  17.104  0.00  0.00    +0.000 C 
BRANCH  33  36
ATOM     36  C   UNL     1       5.212   6.464  16.326  0.00  0.00    +0.000 C 
BRANCH  36  37
ATOM     37  O   UNL     1       6.567   6.866  16.540  0.00  0.00    +0.000 OA
ATOM     38  H   UNL     1       7.142   6.234  16.079  0.00  0.00    +0.000 HD
ENDBRANCH  36  37
ENDBRANCH  33  36
ENDBRANCH  30  33
ENDBRANCH  25  27
ENDBRANCH   5  25
TORSDOF 8
ENDMDL
MODEL 7
REMARK VINA RESULT:      -7.8      4.161      5.082
REMARK  Name = 
REMARK  12 active torsions:
REMARK  status: ('A' for Active; 'I' for Inactive)
REMARK    1  A    between atoms: C_1  and  C_2
REMARK    2  A    between atoms: C_2  and  C_3
REMARK    3  A    between atoms: C_2  and  C_4
REMARK    4  A    between atoms: C_8  and  N_9
REMARK    5  A    between atoms: N_9  and  C_10
REMARK    6  A    between atoms: C_13  and  C_14
REMARK    7  A    between atoms: C_14  and  C_15
REMARK    8  A    between atoms: C_14  and  C_16
REMARK    9  A    between atoms: C_14  and  C_17
REMARK   10  A    between atoms: C_17  and  O_18
REMARK   11  A    between atoms: N_24  and  C_25
REMARK   12  A    between atoms: C_30  and  C_31
REMARK                            x       y       z     vdW  Elec       q    Type
REMARK                         _______ _______ _______ _____ _____    ______ ____
ROOT
ATOM      1  C   UNL     1      -2.069  10.901  18.356  0.00  0.00    +0.000 A 
ATOM      2  N   UNL     1      -1.880  12.229  18.428  0.00  0.00    +0.000 NA
ATOM      3  C   UNL     1      -0.905  12.666  19.248  0.00  0.00    +0.000 A 
ATOM      4  C   UNL     1      -0.093  11.797  19.963  0.00  0.00    +0.000 A 
ATOM      5  C   UNL     1      -0.384  10.439  19.855  0.00  0.00    +0.000 A 
ATOM      6  N   UNL     1      -1.378   9.996  19.070  0.00  0.00    +0.000 NA
ATOM      7  C   UNL     1       1.038  12.343  20.786  0.00  0.00    +0.000 C 
ATOM      8  C   UNL     1       2.115  12.984  19.910  0.00  0.00    +0.000 C 
ATOM      9  N   UNL     1       1.808  14.342  19.461  0.00  0.00    +0.000 N 
ATOM     10  C   UNL     1       0.608  14.574  18.629  0.00  0.00    +0.000 C 
ATOM     11  C   UNL     1      -0.697  14.161  19.315  0.00  0.00    +0.000 C 
ENDROOT
BRANCH   9  12
ATOM     12  C   UNL     1       2.572  15.440  19.822  0.00  0.00    +0.000 A 
ATOM     13  N   UNL     1       2.103  16.128  20.895  0.00  0.00    +0.000 NA
ATOM     14  C   UNL     1       2.782  17.180  21.393  0.00  0.00    +0.000 A 
ATOM     15  C   UNL     1       3.989  17.615  20.884  0.00  0.00    +0.000 A 
ATOM     16  C   UNL     1       4.471  16.942  19.779  0.00  0.00    +0.000 A 
ATOM     17  C   UNL     1       3.753  15.866  19.203  0.00  0.00    +0.000 A 
BRANCH  17  18
ATOM     18  C   UNL     1       4.353  15.324  17.935  0.00  0.00    +0.000 C 
ATOM     19  F   UNL     1       3.718  15.614  16.768  0.00  0.00    +0.000 F 
ATOM     20  F   UNL     1       5.632  15.765  17.741  0.00  0.00    +0.000 F 
ATOM     21  F   UNL     1       4.453  13.961  17.972  0.00  0.00    +0.000 F 
ENDBRANCH  17  18
ENDBRANCH   9  12
BRANCH   1  23
ATOM     22  C   UNL     1      -4.260  11.361  17.240  0.00  0.00    +0.000 C 
ATOM     23  C   UNL     1      -3.078  10.397  17.349  0.00  0.00    +0.000 C 
ATOM     24  C   UNL     1      -2.428  10.166  15.988  0.00  0.00    +0.000 C 
ENDBRANCH   1  23
BRANCH   5  25
ATOM     25  N   UNL     1       0.387   9.500  20.563  0.00  0.00    +0.000 N 
ATOM     26  H   UNL     1       0.602   9.789  21.504  0.00  0.00    +0.000 HD
BRANCH  25  27
ATOM     27  C   UNL     1       1.258   8.518  20.050  0.00  0.00    +0.000 A 
ATOM     28  C   UNL     1       1.534   7.363  20.785  0.00  0.00    +0.000 A 
ATOM     29  C   UNL     1       2.262   6.302  20.221  0.00  0.00    +0.000 A 
ATOM     30  C   UNL     1       2.718   6.353  18.891  0.00  0.00    +0.000 A 
ATOM     31  C   UNL     1       2.521   7.560  18.202  0.00  0.00    +0.000 A 
ATOM     32  C   UNL     1       1.818   8.628  18.777  0.00  0.00    +0.000 A 
BRANCH  30  33
ATOM     33  C   UNL     1       3.345   5.109  18.228  0.00  0.00    +0.000 C 
ATOM     34  C   UNL     1       2.209   4.253  17.612  0.00  0.00    +0.000 C 
ATOM     35  C   UNL     1       4.310   5.458  17.068  0.00  0.00    +0.000 C 
BRANCH  33  36
ATOM     36  C   UNL     1       4.127   4.276  19.280  0.00  0.00    +0.000 C 
BRANCH  36  37
ATOM     37  O   UNL     1       5.535   4.269  19.037  0.00  0.00    +0.000 OA
ATOM     38  H   UNL     1       5.946   3.673  19.685  0.00  0.00    +0.000 HD
ENDBRANCH  36  37
ENDBRANCH  33  36
ENDBRANCH  30  33
ENDBRANCH  25  27
ENDBRANCH   5  25
TORSDOF 8
ENDMDL
MODEL 8
REMARK VINA RESULT:      -7.8      1.833      2.359
REMARK  Name = 
REMARK  12 active torsions:
REMARK  status: ('A' for Active; 'I' for Inactive)
REMARK    1  A    between atoms: C_1  and  C_2
REMARK    2  A    between atoms: C_2  and  C_3
REMARK    3  A    between atoms: C_2  and  C_4
REMARK    4  A    between atoms: C_8  and  N_9
REMARK    5  A    between atoms: N_9  and  C_10
REMARK    6  A    between atoms: C_13  and  C_14
REMARK    7  A    between atoms: C_14  and  C_15
REMARK    8  A    between atoms: C_14  and  C_16
REMARK    9  A    between atoms: C_14  and  C_17
REMARK   10  A    between atoms: C_17  and  O_18
REMARK   11  A    between atoms: N_24  and  C_25
REMARK   12  A    between atoms: C_30  and  C_31
REMARK                            x       y       z     vdW  Elec       q    Type
REMARK                         _______ _______ _______ _____ _____    ______ ____
ROOT
ATOM      1  C   UNL     1      -2.340  10.825  18.112  0.00  0.00    +0.000 A 
ATOM      2  N   UNL     1      -2.786  11.774  18.952  0.00  0.00    +0.000 NA
ATOM      3  C   UNL     1      -1.904  12.267  19.842  0.00  0.00    +0.000 A 
ATOM      4  C   UNL     1      -0.578  11.857  19.878  0.00  0.00    +0.000 A 
ATOM      5  C   UNL     1      -0.214  10.844  18.994  0.00  0.00    +0.000 A 
ATOM      6  N   UNL     1      -1.096  10.319  18.129  0.00  0.00    +0.000 NA
ATOM      7  C   UNL     1       0.378  12.515  20.831  0.00  0.00    +0.000 C 
ATOM      8  C   UNL     1       0.609  13.984  20.474  0.00  0.00    +0.000 C 
ATOM      9  N   UNL     1      -0.441  14.894  20.928  0.00  0.00    +0.000 N 
ATOM     10  C   UNL     1      -1.822  14.709  20.431  0.00  0.00    +0.000 C 
ATOM     11  C   UNL     1      -2.414  13.340  20.776  0.00  0.00    +0.000 C 
ENDROOT
BRANCH   9  12
ATOM     12  C   UNL     1      -0.211  15.905  21.847  0.00  0.00    +0.000 A 
ATOM     13  N   UNL     1       0.475  16.970  21.357  0.00  0.00    +0.000 NA
ATOM     14  C   UNL     1       0.712  18.053  22.124  0.00  0.00    +0.000 A 
ATOM     15  C   UNL     1       0.267  18.174  23.426  0.00  0.00    +0.000 A 
ATOM     16  C   UNL     1      -0.413  17.093  23.948  0.00  0.00    +0.000 A 
ATOM     17  C   UNL     1      -0.632  15.922  23.182  0.00  0.00    +0.000 A 
BRANCH  17  18
ATOM     18  C   UNL     1      -1.279  14.793  23.937  0.00  0.00    +0.000 C 
ATOM     19  F   UNL     1      -0.857  13.531  23.659  0.00  0.00    +0.000 F 
ATOM     20  F   UNL     1      -1.108  14.914  25.288  0.00  0.00    +0.000 F 
ATOM     21  F   UNL     1      -2.633  14.780  23.755  0.00  0.00    +0.000 F 
ENDBRANCH  17  18
ENDBRANCH   9  12
BRANCH   1  23
ATOM     22  C   UNL     1      -4.551  11.213  17.010  0.00  0.00    +0.000 C 
ATOM     23  C   UNL     1      -3.288  10.354  17.033  0.00  0.00    +0.000 C 
ATOM     24  C   UNL     1      -2.605  10.342  15.668  0.00  0.00    +0.000 C 
ENDBRANCH   1  23
BRANCH   5  25
ATOM     25  N   UNL     1       1.108  10.367  18.984  0.00  0.00    +0.000 N 
ATOM     26  H   UNL     1       1.745  10.965  18.480  0.00  0.00    +0.000 HD
BRANCH  25  27
ATOM     27  C   UNL     1       1.562   9.041  19.132  0.00  0.00    +0.000 A 
ATOM     28  C   UNL     1       1.416   8.374  20.351  0.00  0.00    +0.000 A 
ATOM     29  C   UNL     1       1.706   7.005  20.467  0.00  0.00    +0.000 A 
ATOM     30  C   UNL     1       2.131   6.251  19.358  0.00  0.00    +0.000 A 
ATOM     31  C   UNL     1       2.370   6.957  18.168  0.00  0.00    +0.000 A 
ATOM     32  C   UNL     1       2.106   8.330  18.063  0.00  0.00    +0.000 A 
BRANCH  30  33
ATOM     33  C   UNL     1       2.261   4.716  19.455  0.00  0.00    +0.000 C 
ATOM     34  C   UNL     1       1.651   4.087  18.177  0.00  0.00    +0.000 C 
ATOM     35  C   UNL     1       3.730   4.232  19.523  0.00  0.00    +0.000 C 
BRANCH  33  36
ATOM     36  C   UNL     1       1.516   4.193  20.713  0.00  0.00    +0.000 C 
BRANCH  36  37
ATOM     37  O   UNL     1       0.478   3.265  20.390  0.00  0.00    +0.000 OA
ATOM     38  H   UNL     1       0.819   2.661  19.711  0.00  0.00    +0.000 HD
ENDBRANCH  36  37
ENDBRANCH  33  36
ENDBRANCH  30  33
ENDBRANCH  25  27
ENDBRANCH   5  25
TORSDOF 8
ENDMDL
MODEL 9
REMARK VINA RESULT:      -7.7      1.422      1.845
REMARK  Name = 
REMARK  12 active torsions:
REMARK  status: ('A' for Active; 'I' for Inactive)
REMARK    1  A    between atoms: C_1  and  C_2
REMARK    2  A    between atoms: C_2  and  C_3
REMARK    3  A    between atoms: C_2  and  C_4
REMARK    4  A    between atoms: C_8  and  N_9
REMARK    5  A    between atoms: N_9  and  C_10
REMARK    6  A    between atoms: C_13  and  C_14
REMARK    7  A    between atoms: C_14  and  C_15
REMARK    8  A    between atoms: C_14  and  C_16
REMARK    9  A    between atoms: C_14  and  C_17
REMARK   10  A    between atoms: C_17  and  O_18
REMARK   11  A    between atoms: N_24  and  C_25
REMARK   12  A    between atoms: C_30  and  C_31
REMARK                            x       y       z     vdW  Elec       q    Type
REMARK                         _______ _______ _______ _____ _____    ______ ____
ROOT
ATOM      1  C   UNL     1      -2.576  10.947  18.005  0.00  0.00    +0.000 A 
ATOM      2  N   UNL     1      -3.067  11.798  18.921  0.00  0.00    +0.000 NA
ATOM      3  C   UNL     1      -2.193  12.317  19.804  0.00  0.00    +0.000 A 
ATOM      4  C   UNL     1      -0.836  12.032  19.761  0.00  0.00    +0.000 A 
ATOM      5  C   UNL     1      -0.422  11.112  18.800  0.00  0.00    +0.000 A 
ATOM      6  N   UNL     1      -1.291  10.559  17.939  0.00  0.00    +0.000 NA
ATOM      7  C   UNL     1       0.100  12.718  20.714  0.00  0.00    +0.000 C 
ATOM      8  C   UNL     1       0.180  14.220  20.442  0.00  0.00    +0.000 C 
ATOM      9  N   UNL     1      -0.927  15.000  20.995  0.00  0.00    +0.000 N 
ATOM     10  C   UNL     1      -2.307  14.716  20.544  0.00  0.00    +0.000 C 
ATOM     11  C   UNL     1      -2.755  13.280  20.824  0.00  0.00    +0.000 C 
ENDROOT
BRANCH   9  12
ATOM     12  C   UNL     1      -0.748  15.972  21.966  0.00  0.00    +0.000 A 
ATOM     13  N   UNL     1      -0.203  17.131  21.514  0.00  0.00    +0.000 NA
ATOM     14  C   UNL     1      -0.033  18.183  22.339  0.00  0.00    +0.000 A 
ATOM     15  C   UNL     1      -0.412  18.177  23.667  0.00  0.00    +0.000 A 
ATOM     16  C   UNL     1      -0.946  17.001  24.150  0.00  0.00    +0.000 A 
ATOM     17  C   UNL     1      -1.090  15.862  23.319  0.00  0.00    +0.000 A 
BRANCH  17  18
ATOM     18  C   UNL     1      -1.573  14.627  24.030  0.00  0.00    +0.000 C 
ATOM     19  F   UNL     1      -1.019  13.439  23.668  0.00  0.00    +0.000 F 
ATOM     20  F   UNL     1      -1.366  14.697  25.380  0.00  0.00    +0.000 F 
ATOM     21  F   UNL     1      -2.922  14.465  23.890  0.00  0.00    +0.000 F 
ENDBRANCH  17  18
ENDBRANCH   9  12
BRANCH   1  23
ATOM     22  C   UNL     1      -4.802  11.295  16.919  0.00  0.00    +0.000 C 
ATOM     23  C   UNL     1      -3.526  10.454  16.937  0.00  0.00    +0.000 C 
ATOM     24  C   UNL     1      -2.854  10.442  15.566  0.00  0.00    +0.000 C 
ENDBRANCH   1  23
BRANCH   5  25
ATOM     25  N   UNL     1       0.936  10.762  18.706  0.00  0.00    +0.000 N 
ATOM     26  H   UNL     1       1.467  11.378  18.109  0.00  0.00    +0.000 HD
BRANCH  25  27
ATOM     27  C   UNL     1       1.531   9.499  18.902  0.00  0.00    +0.000 A 
ATOM     28  C   UNL     1       1.396   8.835  20.123  0.00  0.00    +0.000 A 
ATOM     29  C   UNL     1       1.836   7.510  20.279  0.00  0.00    +0.000 A 
ATOM     30  C   UNL     1       2.405   6.797  19.208  0.00  0.00    +0.000 A 
ATOM     31  C   UNL     1       2.626   7.512  18.020  0.00  0.00    +0.000 A 
ATOM     32  C   UNL     1       2.211   8.843  17.876  0.00  0.00    +0.000 A 
BRANCH  30  33
ATOM     33  C   UNL     1       2.705   5.289  19.341  0.00  0.00    +0.000 C 
ATOM     34  C   UNL     1       2.018   4.760  20.625  0.00  0.00    +0.000 C 
ATOM     35  C   UNL     1       2.144   4.451  18.166  0.00  0.00    +0.000 C 
BRANCH  33  36
ATOM     36  C   UNL     1       4.237   5.051  19.421  0.00  0.00    +0.000 C 
BRANCH  36  37
ATOM     37  O   UNL     1       4.576   3.663  19.463  0.00  0.00    +0.000 OA
ATOM     38  H   UNL     1       3.749   3.156  19.505  0.00  0.00    +0.000 HD
ENDBRANCH  36  37
ENDBRANCH  33  36
ENDBRANCH  30  33
ENDBRANCH  25  27
ENDBRANCH   5  25
TORSDOF 8
ENDMDL
