MODEL 1
REMARK VINA RESULT:      -5.9      0.000      0.000
REMARK  Name = 
REMARK  4 active torsions:
REMARK  status: ('A' for Active; 'I' for Inactive)
REMARK    1  A    between atoms: C_2  and  C_4
REMARK    2  A    between atoms: C_4  and  C_5
REMARK    3  A    between atoms: C_5  and  O_6
REMARK    4  A    between atoms: C_5  and  C_7
REMARK                            x       y       z     vdW  Elec       q    Type
REMARK                         _______ _______ _______ _____ _____    ______ ____
ROOT
ATOM      1  C   UNL     1       5.623   4.798  16.263  0.00  0.00    +0.000 C 
ENDROOT
BRANCH   1   2
ATOM      2  C   UNL     1       4.330   4.793  17.055  0.00  0.00    +0.000 A 
ATOM      3  C   UNL     1       3.782   6.000  17.517  0.00  0.00    +0.000 A 
ATOM      4  C   UNL     1       2.590   6.010  18.246  0.00  0.00    +0.000 A 
ATOM      5  C   UNL     1       1.924   4.816  18.519  0.00  0.00    +0.000 A 
ATOM      6  C   UNL     1       2.455   3.614  18.061  0.00  0.00    +0.000 A 
ATOM      7 CL   UNL     1       1.636   2.136  18.384  0.00  0.00    +0.000 Cl
ATOM      8  C   UNL     1       3.647   3.597  17.338  0.00  0.00    +0.000 A 
ENDBRANCH   1   2
BRANCH   1   9
ATOM      9  O   UNL     1       6.058   3.441  16.094  0.00  0.00    +0.000 OA
ATOM     10  H   UNL     1       7.017   3.412  16.248  0.00  0.00    +0.000 HD
ENDBRANCH   1   9
BRANCH   1  11
ATOM     11  C   UNL     1       6.715   5.627  16.944  0.00  0.00    +0.000 C 
BRANCH  11  13
ATOM     12  N   UNL     1       7.169   5.170  19.306  0.00  0.00    +0.000 N 
ATOM     13  C   UNL     1       7.473   4.874  18.011  0.00  0.00    +0.000 C 
ATOM     14  O   UNL     1       8.397   4.106  17.749  0.00  0.00    +0.000 OA
ATOM     15  H   UNL     1       7.645   4.670  20.041  0.00  0.00    +0.000 HD
ATOM     16  H   UNL     1       6.323   5.689  19.535  0.00  0.00    +0.000 HD
ENDBRANCH  11  13
ENDBRANCH   1  11
TORSDOF 4
ENDMDL
MODEL 2
REMARK VINA RESULT:      -5.8      2.185      2.445
REMARK  Name = 
REMARK  4 active torsions:
REMARK  status: ('A' for Active; 'I' for Inactive)
REMARK    1  A    between atoms: C_2  and  C_4
REMARK    2  A    between atoms: C_4  and  C_5
REMARK    3  A    between atoms: C_5  and  O_6
REMARK    4  A    between atoms: C_5  and  C_7
REMARK                            x       y       z     vdW  Elec       q    Type
REMARK                         _______ _______ _______ _____ _____    ______ ____
ROOT
ATOM      1  C   UNL     1       5.634   4.422  18.809  0.00  0.00    +0.000 C 
ENDROOT
BRANCH   1   2
ATOM      2  C   UNL     1       4.253   4.657  19.389  0.00  0.00    +0.000 A 
ATOM      3  C   UNL     1       3.633   5.908  19.247  0.00  0.00    +0.000 A 
ATOM      4  C   UNL     1       2.359   6.138  19.774  0.00  0.00    +0.000 A 
ATOM      5  C   UNL     1       1.684   5.119  20.445  0.00  0.00    +0.000 A 
ATOM      6  C   UNL     1       2.286   3.874  20.588  0.00  0.00    +0.000 A 
ATOM      7 CL   UNL     1       1.458   2.607  21.407  0.00  0.00    +0.000 Cl
ATOM      8  C   UNL     1       3.560   3.640  20.069  0.00  0.00    +0.000 A 
ENDBRANCH   1   2
BRANCH   1   9
ATOM      9  O   UNL     1       6.594   5.100  19.631  0.00  0.00    +0.000 OA
ATOM     10  H   UNL     1       7.448   5.090  19.167  0.00  0.00    +0.000 HD
ENDBRANCH   1   9
BRANCH   1  11
ATOM     11  C   UNL     1       5.741   4.901  17.359  0.00  0.00    +0.000 C 
BRANCH  11  13
ATOM     12  N   UNL     1       7.345   5.421  15.584  0.00  0.00    +0.000 N 
ATOM     13  C   UNL     1       7.144   4.841  16.801  0.00  0.00    +0.000 C 
ATOM     14  O   UNL     1       8.048   4.215  17.350  0.00  0.00    +0.000 OA
ATOM     15  H   UNL     1       8.276   5.414  15.194  0.00  0.00    +0.000 HD
ATOM     16  H   UNL     1       6.653   6.055  15.190  0.00  0.00    +0.000 HD
ENDBRANCH  11  13
ENDBRANCH   1  11
TORSDOF 4
ENDMDL
MODEL 3
REMARK VINA RESULT:      -5.8      2.413      2.563
REMARK  Name = 
REMARK  4 active torsions:
REMARK  status: ('A' for Active; 'I' for Inactive)
REMARK    1  A    between atoms: C_2  and  C_4
REMARK    2  A    between atoms: C_4  and  C_5
REMARK    3  A    between atoms: C_5  and  O_6
REMARK    4  A    between atoms: C_5  and  C_7
REMARK                            x       y       z     vdW  Elec       q    Type
REMARK                         _______ _______ _______ _____ _____    ______ ____
ROOT
ATOM      1  C   UNL     1       5.693   5.703  16.319  0.00  0.00    +0.000 C 
ENDROOT
BRANCH   1   2
ATOM      2  C   UNL     1       4.410   5.418  17.074  0.00  0.00    +0.000 A 
ATOM      3  C   UNL     1       3.713   6.463  17.700  0.00  0.00    +0.000 A 
ATOM      4  C   UNL     1       2.527   6.215  18.397  0.00  0.00    +0.000 A 
ATOM      5  C   UNL     1       2.017   4.919  18.474  0.00  0.00    +0.000 A 
ATOM      6  C   UNL     1       2.697   3.876  17.853  0.00  0.00    +0.000 A 
ATOM      7 CL   UNL     1       2.072   2.275  17.935  0.00  0.00    +0.000 Cl
ATOM      8  C   UNL     1       3.883   4.117  17.161  0.00  0.00    +0.000 A 
ENDBRANCH   1   2
BRANCH   1   9
ATOM      9  O   UNL     1       5.401   6.624  15.258  0.00  0.00    +0.000 OA
ATOM     10  H   UNL     1       4.466   6.515  15.014  0.00  0.00    +0.000 HD
ENDBRANCH   1   9
BRANCH   1  11
ATOM     11  C   UNL     1       6.330   4.430  15.758  0.00  0.00    +0.000 C 
BRANCH  11  13
ATOM     12  N   UNL     1       6.325   3.580  13.463  0.00  0.00    +0.000 N 
ATOM     13  C   UNL     1       6.761   4.549  14.316  0.00  0.00    +0.000 C 
ATOM     14  O   UNL     1       7.551   5.409  13.930  0.00  0.00    +0.000 OA
ATOM     15  H   UNL     1       6.580   3.643  12.488  0.00  0.00    +0.000 HD
ATOM     16  H   UNL     1       5.569   2.953  13.731  0.00  0.00    +0.000 HD
ENDBRANCH  11  13
ENDBRANCH   1  11
TORSDOF 4
ENDMDL
MODEL 4
REMARK VINA RESULT:      -5.8      1.778      2.308
REMARK  Name = 
REMARK  4 active torsions:
REMARK  status: ('A' for Active; 'I' for Inactive)
REMARK    1  A    between atoms: C_2  and  C_4
REMARK    2  A    between atoms: C_4  and  C_5
REMARK    3  A    between atoms: C_5  and  O_6
REMARK    4  A    between atoms: C_5  and  C_7
REMARK                            x       y       z     vdW  Elec       q    Type
REMARK                         _______ _______ _______ _____ _____    ______ ____
ROOT
ATOM      1  C   UNL     1       4.657   4.397  16.739  0.00  0.00    +0.000 C 
ENDROOT
BRANCH   1   2
ATOM      2  C   UNL     1       3.465   4.147  17.642  0.00  0.00    +0.000 A 
ATOM      3  C   UNL     1       2.684   2.992  17.475  0.00  0.00    +0.000 A 
ATOM      4  C   UNL     1       1.585   2.748  18.302  0.00  0.00    +0.000 A 
ATOM      5  C   UNL     1       1.253   3.650  19.312  0.00  0.00    +0.000 A 
ATOM      6  C   UNL     1       2.022   4.795  19.490  0.00  0.00    +0.000 A 
ATOM      7 CL   UNL     1       1.626   5.910  20.739  0.00  0.00    +0.000 Cl
ATOM      8  C   UNL     1       3.118   5.048  18.664  0.00  0.00    +0.000 A 
ENDBRANCH   1   2
BRANCH   1   9
ATOM      9  O   UNL     1       5.327   3.149  16.515  0.00  0.00    +0.000 OA
ATOM     10  H   UNL     1       4.964   2.754  15.704  0.00  0.00    +0.000 HD
ENDBRANCH   1   9
BRANCH   1  11
ATOM     11  C   UNL     1       5.626   5.423  17.331  0.00  0.00    +0.000 C 
BRANCH  11  13
ATOM     12  N   UNL     1       7.816   4.374  17.636  0.00  0.00    +0.000 N 
ATOM     13  C   UNL     1       7.059   5.230  16.894  0.00  0.00    +0.000 C 
ATOM     14  O   UNL     1       7.567   5.882  15.984  0.00  0.00    +0.000 OA
ATOM     15  H   UNL     1       8.772   4.209  17.357  0.00  0.00    +0.000 HD
ATOM     16  H   UNL     1       7.380   3.730  18.293  0.00  0.00    +0.000 HD
ENDBRANCH  11  13
ENDBRANCH   1  11
TORSDOF 4
ENDMDL
MODEL 5
REMARK VINA RESULT:      -5.8      2.074      2.346
REMARK  Name = 
REMARK  4 active torsions:
REMARK  status: ('A' for Active; 'I' for Inactive)
REMARK    1  A    between atoms: C_2  and  C_4
REMARK    2  A    between atoms: C_4  and  C_5
REMARK    3  A    between atoms: C_5  and  O_6
REMARK    4  A    between atoms: C_5  and  C_7
REMARK                            x       y       z     vdW  Elec       q    Type
REMARK                         _______ _______ _______ _____ _____    ______ ____
ROOT
ATOM      1  C   UNL     1       5.258   4.068  17.562  0.00  0.00    +0.000 C 
ENDROOT
BRANCH   1   2
ATOM      2  C   UNL     1       3.887   3.906  18.187  0.00  0.00    +0.000 A 
ATOM      3  C   UNL     1       2.733   4.163  17.429  0.00  0.00    +0.000 A 
ATOM      4  C   UNL     1       1.461   4.015  17.991  0.00  0.00    +0.000 A 
ATOM      5  C   UNL     1       1.324   3.602  19.316  0.00  0.00    +0.000 A 
ATOM      6  C   UNL     1       2.460   3.340  20.075  0.00  0.00    +0.000 A 
ATOM      7 CL   UNL     1       2.302   2.821  21.708  0.00  0.00    +0.000 Cl
ATOM      8  C   UNL     1       3.732   3.491  19.521  0.00  0.00    +0.000 A 
ENDBRANCH   1   2
BRANCH   1   9
ATOM      9  O   UNL     1       6.241   4.019  18.606  0.00  0.00    +0.000 OA
ATOM     10  H   UNL     1       5.822   3.638  19.396  0.00  0.00    +0.000 HD
ENDBRANCH   1   9
BRANCH   1  11
ATOM     11  C   UNL     1       5.384   5.374  16.774  0.00  0.00    +0.000 C 
BRANCH  11  13
ATOM     12  N   UNL     1       7.382   5.450  15.362  0.00  0.00    +0.000 N 
ATOM     13  C   UNL     1       6.812   5.812  16.545  0.00  0.00    +0.000 C 
ATOM     14  O   UNL     1       7.478   6.374  17.412  0.00  0.00    +0.000 OA
ATOM     15  H   UNL     1       8.329   5.744  15.172  0.00  0.00    +0.000 HD
ATOM     16  H   UNL     1       6.810   5.114  14.589  0.00  0.00    +0.000 HD
ENDBRANCH  11  13
ENDBRANCH   1  11
TORSDOF 4
ENDMDL
MODEL 6
REMARK VINA RESULT:      -5.8      1.532      1.594
REMARK  Name = 
REMARK  4 active torsions:
REMARK  status: ('A' for Active; 'I' for Inactive)
REMARK    1  A    between atoms: C_2  and  C_4
REMARK    2  A    between atoms: C_4  and  C_5
REMARK    3  A    between atoms: C_5  and  O_6
REMARK    4  A    between atoms: C_5  and  C_7
REMARK                            x       y       z     vdW  Elec       q    Type
REMARK                         _______ _______ _______ _____ _____    ______ ____
ROOT
ATOM      1  C   UNL     1       4.657   4.283  16.249  0.00  0.00    +0.000 C 
ENDROOT
BRANCH   1   2
ATOM      2  C   UNL     1       3.727   4.472  17.431  0.00  0.00    +0.000 A 
ATOM      3  C   UNL     1       3.884   5.578  18.282  0.00  0.00    +0.000 A 
ATOM      4  C   UNL     1       3.032   5.767  19.373  0.00  0.00    +0.000 A 
ATOM      5  C   UNL     1       2.007   4.856  19.628  0.00  0.00    +0.000 A 
ATOM      6  C   UNL     1       1.838   3.760  18.789  0.00  0.00    +0.000 A 
ATOM      7 CL   UNL     1       0.571   2.635  19.089  0.00  0.00    +0.000 Cl
ATOM      8  C   UNL     1       2.689   3.563  17.701  0.00  0.00    +0.000 A 
ENDBRANCH   1   2
BRANCH   1   9
ATOM      9  O   UNL     1       5.464   3.120  16.487  0.00  0.00    +0.000 OA
ATOM     10  H   UNL     1       5.101   2.657  17.262  0.00  0.00    +0.000 HD
ENDBRANCH   1   9
BRANCH   1  11
ATOM     11  C   UNL     1       5.545   5.507  16.010  0.00  0.00    +0.000 C 
BRANCH  11  13
ATOM     12  N   UNL     1       7.652   4.779  17.022  0.00  0.00    +0.000 N 
ATOM     13  C   UNL     1       7.014   5.178  15.886  0.00  0.00    +0.000 C 
ATOM     14  O   UNL     1       7.646   5.357  14.847  0.00  0.00    +0.000 OA
ATOM     15  H   UNL     1       8.629   4.534  16.967  0.00  0.00    +0.000 HD
ATOM     16  H   UNL     1       7.122   4.495  17.844  0.00  0.00    +0.000 HD
ENDBRANCH  11  13
ENDBRANCH   1  11
TORSDOF 4
ENDMDL
MODEL 7
REMARK VINA RESULT:      -5.8      1.414      1.611
REMARK  Name = 
REMARK  4 active torsions:
REMARK  status: ('A' for Active; 'I' for Inactive)
REMARK    1  A    between atoms: C_2  and  C_4
REMARK    2  A    between atoms: C_4  and  C_5
REMARK    3  A    between atoms: C_5  and  O_6
REMARK    4  A    between atoms: C_5  and  C_7
REMARK                            x       y       z     vdW  Elec       q    Type
REMARK                         _______ _______ _______ _____ _____    ______ ____
ROOT
ATOM      1  C   UNL     1       4.434   5.362  17.040  0.00  0.00    +0.000 C 
ENDROOT
BRANCH   1   2
ATOM      2  C   UNL     1       3.397   5.019  18.092  0.00  0.00    +0.000 A 
ATOM      3  C   UNL     1       3.270   5.815  19.241  0.00  0.00    +0.000 A 
ATOM      4  C   UNL     1       2.316   5.511  20.218  0.00  0.00    +0.000 A 
ATOM      5  C   UNL     1       1.473   4.413  20.057  0.00  0.00    +0.000 A 
ATOM      6  C   UNL     1       1.587   3.620  18.919  0.00  0.00    +0.000 A 
ATOM      7 CL   UNL     1       0.545   2.267  18.707  0.00  0.00    +0.000 Cl
ATOM      8  C   UNL     1       2.540   3.914  17.944  0.00  0.00    +0.000 A 
ENDBRANCH   1   2
BRANCH   1   9
ATOM      9  O   UNL     1       4.736   4.174  16.295  0.00  0.00    +0.000 OA
ATOM     10  H   UNL     1       5.031   4.442  15.408  0.00  0.00    +0.000 HD
ENDBRANCH   1   9
BRANCH   1  11
ATOM     11  C   UNL     1       5.709   5.944  17.654  0.00  0.00    +0.000 C 
BRANCH  11  13
ATOM     12  N   UNL     1       7.589   4.386  17.824  0.00  0.00    +0.000 N 
ATOM     13  C   UNL     1       6.980   5.357  17.088  0.00  0.00    +0.000 C 
ATOM     14  O   UNL     1       7.513   5.792  16.068  0.00  0.00    +0.000 OA
ATOM     15  H   UNL     1       8.430   3.961  17.463  0.00  0.00    +0.000 HD
ATOM     16  H   UNL     1       7.095   3.923  18.585  0.00  0.00    +0.000 HD
ENDBRANCH  11  13
ENDBRANCH   1  11
TORSDOF 4
ENDMDL
MODEL 8
REMARK VINA RESULT:      -5.8      3.221      4.118
REMARK  Name = 
REMARK  4 active torsions:
REMARK  status: ('A' for Active; 'I' for Inactive)
REMARK    1  A    between atoms: C_2  and  C_4
REMARK    2  A    between atoms: C_4  and  C_5
REMARK    3  A    between atoms: C_5  and  O_6
REMARK    4  A    between atoms: C_5  and  C_7
REMARK                            x       y       z     vdW  Elec       q    Type
REMARK                         _______ _______ _______ _____ _____    ______ ____
ROOT
ATOM      1  C   UNL     1       6.886   4.344  14.896  0.00  0.00    +0.000 C 
ENDROOT
BRANCH   1   2
ATOM      2  C   UNL     1       6.275   4.654  16.248  0.00  0.00    +0.000 A 
ATOM      3  C   UNL     1       7.101   4.863  17.364  0.00  0.00    +0.000 A 
ATOM      4  C   UNL     1       6.551   5.153  18.616  0.00  0.00    +0.000 A 
ATOM      5  C   UNL     1       5.168   5.245  18.770  0.00  0.00    +0.000 A 
ATOM      6  C   UNL     1       4.340   5.044  17.671  0.00  0.00    +0.000 A 
ATOM      7 CL   UNL     1       2.633   5.164  17.849  0.00  0.00    +0.000 Cl
ATOM      8  C   UNL     1       4.882   4.749  16.420  0.00  0.00    +0.000 A 
ENDBRANCH   1   2
BRANCH   1   9
ATOM      9  O   UNL     1       7.667   5.473  14.480  0.00  0.00    +0.000 OA
ATOM     10  H   UNL     1       7.289   5.811  13.651  0.00  0.00    +0.000 HD
ENDBRANCH   1   9
BRANCH   1  11
ATOM     11  C   UNL     1       5.825   4.014  13.844  0.00  0.00    +0.000 C 
BRANCH  11  13
ATOM     12  N   UNL     1       6.007   2.393  12.018  0.00  0.00    +0.000 N 
ATOM     13  C   UNL     1       6.399   3.602  12.509  0.00  0.00    +0.000 C 
ATOM     14  O   UNL     1       7.259   4.261  11.928  0.00  0.00    +0.000 OA
ATOM     15  H   UNL     1       6.358   2.099  11.119  0.00  0.00    +0.000 HD
ATOM     16  H   UNL     1       5.201   1.909  12.411  0.00  0.00    +0.000 HD
ENDBRANCH  11  13
ENDBRANCH   1  11
TORSDOF 4
ENDMDL
MODEL 9
REMARK VINA RESULT:      -5.8      3.277      4.173
REMARK  Name = 
REMARK  4 active torsions:
REMARK  status: ('A' for Active; 'I' for Inactive)
REMARK    1  A    between atoms: C_2  and  C_4
REMARK    2  A    between atoms: C_4  and  C_5
REMARK    3  A    between atoms: C_5  and  O_6
REMARK    4  A    between atoms: C_5  and  C_7
REMARK                            x       y       z     vdW  Elec       q    Type
REMARK                         _______ _______ _______ _____ _____    ______ ____
ROOT
ATOM      1  C   UNL     1       2.573   2.878  17.401  0.00  0.00    +0.000 C 
ENDROOT
BRANCH   1   2
ATOM      2  C   UNL     1       3.434   4.115  17.242  0.00  0.00    +0.000 A 
ATOM      3  C   UNL     1       3.031   5.332  17.815  0.00  0.00    +0.000 A 
ATOM      4  C   UNL     1       3.816   6.481  17.679  0.00  0.00    +0.000 A 
ATOM      5  C   UNL     1       5.018   6.429  16.974  0.00  0.00    +0.000 A 
ATOM      6  C   UNL     1       5.430   5.227  16.406  0.00  0.00    +0.000 A 
ATOM      7 CL   UNL     1       6.915   5.151  15.542  0.00  0.00    +0.000 Cl
ATOM      8  C   UNL     1       4.648   4.079  16.534  0.00  0.00    +0.000 A 
ENDBRANCH   1   2
BRANCH   1   9
ATOM      9  O   UNL     1       1.329   3.263  18.003  0.00  0.00    +0.000 OA
ATOM     10  H   UNL     1       1.497   4.035  18.571  0.00  0.00    +0.000 HD
ENDBRANCH   1   9
BRANCH   1  11
ATOM     11  C   UNL     1       3.260   1.799  18.242  0.00  0.00    +0.000 C 
BRANCH  11  13
ATOM     12  N   UNL     1       5.003   2.118  19.931  0.00  0.00    +0.000 N 
ATOM     13  C   UNL     1       3.689   2.276  19.610  0.00  0.00    +0.000 C 
ATOM     14  O   UNL     1       2.888   2.690  20.447  0.00  0.00    +0.000 OA
ATOM     15  H   UNL     1       5.324   2.445  20.830  0.00  0.00    +0.000 HD
ATOM     16  H   UNL     1       5.693   1.913  19.211  0.00  0.00    +0.000 HD
ENDBRANCH  11  13
ENDBRANCH   1  11
TORSDOF 4
ENDMDL
