MODEL 1
REMARK VINA RESULT:      -8.9      0.000      0.000
REMARK  Name = 
REMARK  4 active torsions:
REMARK  status: ('A' for Active; 'I' for Inactive)
REMARK    1  A    between atoms: C_10  and  C_11
REMARK    2  A    between atoms: C_11  and  C_12
REMARK    3  A    between atoms: C_11  and  C_20
REMARK    4  A    between atoms: C_12  and  C_14
REMARK                            x       y       z     vdW  Elec       q    Type
REMARK                         _______ _______ _______ _____ _____    ______ ____
ROOT
ATOM      1  C   UNL     1       3.677   5.217  17.130  0.00  0.00    +0.000 C 
ENDROOT
BRANCH   1  11
ATOM      2  O   UNL     1       0.781   4.411  16.944  0.00  0.00    +0.000 OA
ATOM      3  C   UNL     1       1.533   4.024  17.825  0.00  0.00    +0.000 C 
ATOM      4  N   UNL     1       1.127   3.647  19.099  0.00  0.00    +0.000 N 
ATOM      5  C   UNL     1       2.187   3.166  19.842  0.00  0.00    +0.000 A 
ATOM      6  C   UNL     1       2.113   2.614  21.117  0.00  0.00    +0.000 A 
ATOM      7  C   UNL     1       3.253   2.007  21.635  0.00  0.00    +0.000 A 
ATOM      8  C   UNL     1       4.405   1.920  20.847  0.00  0.00    +0.000 A 
ATOM      9  C   UNL     1       4.450   2.495  19.563  0.00  0.00    +0.000 A 
ATOM     10  C   UNL     1       3.357   3.197  19.074  0.00  0.00    +0.000 A 
ATOM     11  C   UNL     1       3.073   3.841  17.705  0.00  0.00    +0.000 C 
ATOM     12  H   UNL     1       0.162   3.630  19.401  0.00  0.00    +0.000 HD
ENDBRANCH   1  11
BRANCH   1  13
ATOM     13  C   UNL     1       4.995   5.087  16.341  0.00  0.00    +0.000 A 
ATOM     14  C   UNL     1       6.223   5.246  16.966  0.00  0.00    +0.000 A 
ATOM     15  N   UNL     1       7.026   5.808  16.011  0.00  0.00    +0.000 N 
ATOM     16  C   UNL     1       6.771   5.079  14.873  0.00  0.00    +0.000 A 
ATOM     17  C   UNL     1       7.623   4.845  13.791  0.00  0.00    +0.000 A 
ATOM     18  C   UNL     1       7.138   4.053  12.762  0.00  0.00    +0.000 A 
ATOM     19  C   UNL     1       5.818   3.607  12.801  0.00  0.00    +0.000 A 
ATOM     20 CL   UNL     1       5.283   2.604  11.495  0.00  0.00    +0.000 Cl
ATOM     21  C   UNL     1       4.938   3.922  13.874  0.00  0.00    +0.000 A 
ATOM     22  C   UNL     1       5.440   4.631  15.001  0.00  0.00    +0.000 A 
ATOM     23  H   UNL     1       7.193   6.801  15.955  0.00  0.00    +0.000 HD
ENDBRANCH   1  13
BRANCH   1  24
ATOM     24  C   UNL     1       3.895   6.215  18.310  0.00  0.00    +0.000 C 
ATOM     25  O   UNL     1       4.904   6.162  19.019  0.00  0.00    +0.000 OA
BRANCH  24  26
ATOM     26  C   UNL     1       2.911   7.311  18.636  0.00  0.00    +0.000 A 
ATOM     27  C   UNL     1       2.242   7.410  19.848  0.00  0.00    +0.000 A 
ATOM     28  C   UNL     1       1.367   8.490  20.081  0.00  0.00    +0.000 A 
ATOM     29  C   UNL     1       1.148   9.466  19.106  0.00  0.00    +0.000 A 
ATOM     30  C   UNL     1       1.800   9.371  17.891  0.00  0.00    +0.000 A 
ATOM     31  C   UNL     1       2.677   8.304  17.657  0.00  0.00    +0.000 A 
ENDBRANCH  24  26
ENDBRANCH   1  24
TORSDOF 4
ENDMDL
MODEL 2
REMARK VINA RESULT:      -8.8      3.625      6.775
REMARK  Name = 
REMARK  4 active torsions:
REMARK  status: ('A' for Active; 'I' for Inactive)
REMARK    1  A    between atoms: C_10  and  C_11
REMARK    2  A    between atoms: C_11  and  C_12
REMARK    3  A    between atoms: C_11  and  C_20
REMARK    4  A    between atoms: C_12  and  C_14
REMARK                            x       y       z     vdW  Elec       q    Type
REMARK                         _______ _______ _______ _____ _____    ______ ____
ROOT
ATOM      1  C   UNL     1       2.948   7.034  18.843  0.00  0.00    +0.000 C 
ENDROOT
BRANCH   1  11
ATOM      2  O   UNL     1       1.406   6.080  21.248  0.00  0.00    +0.000 OA
ATOM      3  C   UNL     1       1.931   5.327  20.443  0.00  0.00    +0.000 C 
ATOM      4  N   UNL     1       2.376   4.044  20.737  0.00  0.00    +0.000 N 
ATOM      5  C   UNL     1       2.838   3.402  19.605  0.00  0.00    +0.000 A 
ATOM      6  C   UNL     1       3.259   2.078  19.527  0.00  0.00    +0.000 A 
ATOM      7  C   UNL     1       3.510   1.544  18.266  0.00  0.00    +0.000 A 
ATOM      8  C   UNL     1       3.278   2.325  17.129  0.00  0.00    +0.000 A 
ATOM      9  C   UNL     1       2.857   3.663  17.243  0.00  0.00    +0.000 A 
ATOM     10  C   UNL     1       2.706   4.243  18.494  0.00  0.00    +0.000 A 
ATOM     11  C   UNL     1       2.181   5.621  18.936  0.00  0.00    +0.000 C 
ATOM     12  H   UNL     1       2.274   3.606  21.643  0.00  0.00    +0.000 HD
ENDBRANCH   1  11
BRANCH   1  13
ATOM     13  C   UNL     1       2.043   8.280  18.784  0.00  0.00    +0.000 A 
ATOM     14  C   UNL     1       1.563   8.758  17.574  0.00  0.00    +0.000 A 
ATOM     15  N   UNL     1       1.499  10.115  17.740  0.00  0.00    +0.000 N 
ATOM     16  C   UNL     1       0.924  10.284  18.979  0.00  0.00    +0.000 A 
ATOM     17  C   UNL     1       0.160  11.362  19.434  0.00  0.00    +0.000 A 
ATOM     18  C   UNL     1      -0.331  11.288  20.729  0.00  0.00    +0.000 A 
ATOM     19  C   UNL     1       0.026  10.212  21.539  0.00  0.00    +0.000 A 
ATOM     20 CL   UNL     1      -0.640  10.171  23.137  0.00  0.00    +0.000 Cl
ATOM     21  C   UNL     1       0.871   9.162  21.085  0.00  0.00    +0.000 A 
ATOM     22  C   UNL     1       1.293   9.146  19.725  0.00  0.00    +0.000 A 
ATOM     23  H   UNL     1       2.228  10.738  17.426  0.00  0.00    +0.000 HD
ENDBRANCH   1  13
BRANCH   1  24
ATOM     24  C   UNL     1       3.880   7.030  17.592  0.00  0.00    +0.000 C 
ATOM     25  O   UNL     1       3.634   7.727  16.604  0.00  0.00    +0.000 OA
BRANCH  24  26
ATOM     26  C   UNL     1       5.142   6.204  17.524  0.00  0.00    +0.000 A 
ATOM     27  C   UNL     1       5.878   5.828  18.638  0.00  0.00    +0.000 A 
ATOM     28  C   UNL     1       7.025   5.024  18.483  0.00  0.00    +0.000 A 
ATOM     29  C   UNL     1       7.446   4.601  17.221  0.00  0.00    +0.000 A 
ATOM     30  C   UNL     1       6.727   4.979  16.103  0.00  0.00    +0.000 A 
ATOM     31  C   UNL     1       5.582   5.773  16.251  0.00  0.00    +0.000 A 
ENDBRANCH  24  26
ENDBRANCH   1  24
TORSDOF 4
ENDMDL
MODEL 3
REMARK VINA RESULT:      -8.6      0.930      1.032
REMARK  Name = 
REMARK  4 active torsions:
REMARK  status: ('A' for Active; 'I' for Inactive)
REMARK    1  A    between atoms: C_10  and  C_11
REMARK    2  A    between atoms: C_11  and  C_12
REMARK    3  A    between atoms: C_11  and  C_20
REMARK    4  A    between atoms: C_12  and  C_14
REMARK                            x       y       z     vdW  Elec       q    Type
REMARK                         _______ _______ _______ _____ _____    ______ ____
ROOT
ATOM      1  C   UNL     1       3.958   4.974  17.241  0.00  0.00    +0.000 C 
ENDROOT
BRANCH   1  11
ATOM      2  O   UNL     1       2.513   2.658  15.968  0.00  0.00    +0.000 OA
ATOM      3  C   UNL     1       2.455   2.916  17.160  0.00  0.00    +0.000 C 
ATOM      4  N   UNL     1       1.384   2.593  17.985  0.00  0.00    +0.000 N 
ATOM      5  C   UNL     1       1.646   2.925  19.300  0.00  0.00    +0.000 A 
ATOM      6  C   UNL     1       0.832   2.648  20.393  0.00  0.00    +0.000 A 
ATOM      7  C   UNL     1       1.343   2.885  21.667  0.00  0.00    +0.000 A 
ATOM      8  C   UNL     1       2.660   3.333  21.807  0.00  0.00    +0.000 A 
ATOM      9  C   UNL     1       3.455   3.610  20.679  0.00  0.00    +0.000 A 
ATOM     10  C   UNL     1       2.925   3.482  19.403  0.00  0.00    +0.000 A 
ATOM     11  C   UNL     1       3.557   3.615  18.005  0.00  0.00    +0.000 C 
ATOM     12  H   UNL     1       0.567   2.085  17.674  0.00  0.00    +0.000 HD
ENDBRANCH   1  11
BRANCH   1  13
ATOM     13  C   UNL     1       5.200   4.885  16.333  0.00  0.00    +0.000 A 
ATOM     14  C   UNL     1       6.479   5.015  16.853  0.00  0.00    +0.000 A 
ATOM     15  N   UNL     1       7.196   5.625  15.859  0.00  0.00    +0.000 N 
ATOM     16  C   UNL     1       6.838   4.953  14.714  0.00  0.00    +0.000 A 
ATOM     17  C   UNL     1       7.590   4.774  13.550  0.00  0.00    +0.000 A 
ATOM     18  C   UNL     1       7.011   4.033  12.530  0.00  0.00    +0.000 A 
ATOM     19  C   UNL     1       5.699   3.584  12.664  0.00  0.00    +0.000 A 
ATOM     20 CL   UNL     1       5.046   2.646  11.363  0.00  0.00    +0.000 Cl
ATOM     21  C   UNL     1       4.919   3.844  13.825  0.00  0.00    +0.000 A 
ATOM     22  C   UNL     1       5.522   4.497  14.938  0.00  0.00    +0.000 A 
ATOM     23  H   UNL     1       7.360   6.620  15.838  0.00  0.00    +0.000 HD
ENDBRANCH   1  13
BRANCH   1  24
ATOM     24  C   UNL     1       4.185   6.105  18.292  0.00  0.00    +0.000 C 
ATOM     25  O   UNL     1       5.252   6.211  18.904  0.00  0.00    +0.000 OA
BRANCH  24  26
ATOM     26  C   UNL     1       3.136   7.146  18.602  0.00  0.00    +0.000 A 
ATOM     27  C   UNL     1       2.384   7.157  19.767  0.00  0.00    +0.000 A 
ATOM     28  C   UNL     1       1.451   8.190  19.991  0.00  0.00    +0.000 A 
ATOM     29  C   UNL     1       1.259   9.206  19.052  0.00  0.00    +0.000 A 
ATOM     30  C   UNL     1       1.995   9.198  17.882  0.00  0.00    +0.000 A 
ATOM     31  C   UNL     1       2.929   8.178  17.658  0.00  0.00    +0.000 A 
ENDBRANCH  24  26
ENDBRANCH   1  24
TORSDOF 4
ENDMDL
MODEL 4
REMARK VINA RESULT:      -8.3      1.617      4.183
REMARK  Name = 
REMARK  4 active torsions:
REMARK  status: ('A' for Active; 'I' for Inactive)
REMARK    1  A    between atoms: C_10  and  C_11
REMARK    2  A    between atoms: C_11  and  C_12
REMARK    3  A    between atoms: C_11  and  C_20
REMARK    4  A    between atoms: C_12  and  C_14
REMARK                            x       y       z     vdW  Elec       q    Type
REMARK                         _______ _______ _______ _____ _____    ______ ____
ROOT
ATOM      1  C   UNL     1       5.302   4.260  17.191  0.00  0.00    +0.000 C 
ENDROOT
BRANCH   1  11
ATOM      2  O   UNL     1       5.705   4.180  20.175  0.00  0.00    +0.000 OA
ATOM      3  C   UNL     1       4.953   4.964  19.617  0.00  0.00    +0.000 C 
ATOM      4  N   UNL     1       3.825   5.526  20.202  0.00  0.00    +0.000 N 
ATOM      5  C   UNL     1       3.230   6.446  19.362  0.00  0.00    +0.000 A 
ATOM      6  C   UNL     1       2.145   7.260  19.672  0.00  0.00    +0.000 A 
ATOM      7  C   UNL     1       1.799   8.263  18.771  0.00  0.00    +0.000 A 
ATOM      8  C   UNL     1       2.578   8.457  17.626  0.00  0.00    +0.000 A 
ATOM      9  C   UNL     1       3.666   7.612  17.337  0.00  0.00    +0.000 A 
ATOM     10  C   UNL     1       3.957   6.541  18.170  0.00  0.00    +0.000 A 
ATOM     11  C   UNL     1       5.111   5.521  18.174  0.00  0.00    +0.000 C 
ATOM     12  H   UNL     1       3.542   5.357  21.158  0.00  0.00    +0.000 HD
ENDBRANCH   1  11
BRANCH   1  13
ATOM     13  C   UNL     1       6.216   4.500  15.973  0.00  0.00    +0.000 A 
ATOM     14  C   UNL     1       7.484   5.041  16.124  0.00  0.00    +0.000 A 
ATOM     15  N   UNL     1       7.681   5.781  14.990  0.00  0.00    +0.000 N 
ATOM     16  C   UNL     1       7.249   4.969  13.968  0.00  0.00    +0.000 A 
ATOM     17  C   UNL     1       7.673   4.961  12.637  0.00  0.00    +0.000 A 
ATOM     18  C   UNL     1       7.096   4.023  11.794  0.00  0.00    +0.000 A 
ATOM     19  C   UNL     1       6.073   3.206  12.271  0.00  0.00    +0.000 A 
ATOM     20 CL   UNL     1       5.412   2.042  11.173  0.00  0.00    +0.000 Cl
ATOM     21  C   UNL     1       5.597   3.282  13.610  0.00  0.00    +0.000 A 
ATOM     22  C   UNL     1       6.249   4.149  14.532  0.00  0.00    +0.000 A 
ATOM     23  H   UNL     1       7.519   6.777  14.955  0.00  0.00    +0.000 HD
ENDBRANCH   1  13
BRANCH   1  24
ATOM     24  C   UNL     1       3.904   3.788  16.685  0.00  0.00    +0.000 C 
ATOM     25  O   UNL     1       3.595   3.854  15.492  0.00  0.00    +0.000 OA
BRANCH  24  26
ATOM     26  C   UNL     1       2.863   3.201  17.608  0.00  0.00    +0.000 A 
ATOM     27  C   UNL     1       3.068   2.062  18.373  0.00  0.00    +0.000 A 
ATOM     28  C   UNL     1       2.052   1.605  19.237  0.00  0.00    +0.000 A 
ATOM     29  C   UNL     1       0.830   2.274  19.333  0.00  0.00    +0.000 A 
ATOM     30  C   UNL     1       0.612   3.403  18.567  0.00  0.00    +0.000 A 
ATOM     31  C   UNL     1       1.620   3.866  17.712  0.00  0.00    +0.000 A 
ENDBRANCH  24  26
ENDBRANCH   1  24
TORSDOF 4
ENDMDL
MODEL 5
REMARK VINA RESULT:      -8.2      2.782      6.973
REMARK  Name = 
REMARK  4 active torsions:
REMARK  status: ('A' for Active; 'I' for Inactive)
REMARK    1  A    between atoms: C_10  and  C_11
REMARK    2  A    between atoms: C_11  and  C_12
REMARK    3  A    between atoms: C_11  and  C_20
REMARK    4  A    between atoms: C_12  and  C_14
REMARK                            x       y       z     vdW  Elec       q    Type
REMARK                         _______ _______ _______ _____ _____    ______ ____
ROOT
ATOM      1  C   UNL     1       2.525   6.116  17.845  0.00  0.00    +0.000 C 
ENDROOT
BRANCH   1  11
ATOM      2  O   UNL     1       4.531   8.353  17.622  0.00  0.00    +0.000 OA
ATOM      3  C   UNL     1       4.661   7.273  17.067  0.00  0.00    +0.000 C 
ATOM      4  N   UNL     1       5.376   7.072  15.892  0.00  0.00    +0.000 N 
ATOM      5  C   UNL     1       5.425   5.733  15.558  0.00  0.00    +0.000 A 
ATOM      6  C   UNL     1       6.140   5.176  14.503  0.00  0.00    +0.000 A 
ATOM      7  C   UNL     1       6.229   3.789  14.431  0.00  0.00    +0.000 A 
ATOM      8  C   UNL     1       5.654   3.010  15.440  0.00  0.00    +0.000 A 
ATOM      9  C   UNL     1       4.931   3.604  16.491  0.00  0.00    +0.000 A 
ATOM     10  C   UNL     1       4.742   4.978  16.519  0.00  0.00    +0.000 A 
ATOM     11  C   UNL     1       4.097   5.911  17.561  0.00  0.00    +0.000 C 
ATOM     12  H   UNL     1       5.880   7.802  15.408  0.00  0.00    +0.000 HD
ENDBRANCH   1  11
BRANCH   1  13
ATOM     13  C   UNL     1       2.180   7.007  19.055  0.00  0.00    +0.000 A 
ATOM     14  C   UNL     1       2.633   6.693  20.328  0.00  0.00    +0.000 A 
ATOM     15  N   UNL     1       1.638   7.124  21.164  0.00  0.00    +0.000 N 
ATOM     16  C   UNL     1       1.308   8.373  20.692  0.00  0.00    +0.000 A 
ATOM     17  C   UNL     1       0.781   9.452  21.407  0.00  0.00    +0.000 A 
ATOM     18  C   UNL     1       0.551  10.625  20.705  0.00  0.00    +0.000 A 
ATOM     19  C   UNL     1       0.762  10.656  19.328  0.00  0.00    +0.000 A 
ATOM     20 CL   UNL     1       0.476  12.159  18.516  0.00  0.00    +0.000 Cl
ATOM     21  C   UNL     1       1.224   9.523  18.601  0.00  0.00    +0.000 A 
ATOM     22  C   UNL     1       1.583   8.341  19.309  0.00  0.00    +0.000 A 
ATOM     23  H   UNL     1       0.924   6.509  21.524  0.00  0.00    +0.000 HD
ENDBRANCH   1  13
BRANCH   1  24
ATOM     24  C   UNL     1       1.852   4.723  18.039  0.00  0.00    +0.000 C 
ATOM     25  O   UNL     1       1.108   4.242  17.181  0.00  0.00    +0.000 OA
BRANCH  24  26
ATOM     26  C   UNL     1       2.089   3.872  19.264  0.00  0.00    +0.000 A 
ATOM     27  C   UNL     1       3.311   3.296  19.577  0.00  0.00    +0.000 A 
ATOM     28  C   UNL     1       3.451   2.547  20.763  0.00  0.00    +0.000 A 
ATOM     29  C   UNL     1       2.373   2.362  21.632  0.00  0.00    +0.000 A 
ATOM     30  C   UNL     1       1.148   2.922  21.324  0.00  0.00    +0.000 A 
ATOM     31  C   UNL     1       1.005   3.674  20.151  0.00  0.00    +0.000 A 
ENDBRANCH  24  26
ENDBRANCH   1  24
TORSDOF 4
ENDMDL
MODEL 6
REMARK VINA RESULT:      -8.0      3.077      6.428
REMARK  Name = 
REMARK  4 active torsions:
REMARK  status: ('A' for Active; 'I' for Inactive)
REMARK    1  A    between atoms: C_10  and  C_11
REMARK    2  A    between atoms: C_11  and  C_12
REMARK    3  A    between atoms: C_11  and  C_20
REMARK    4  A    between atoms: C_12  and  C_14
REMARK                            x       y       z     vdW  Elec       q    Type
REMARK                         _______ _______ _______ _____ _____    ______ ____
ROOT
ATOM      1  C   UNL     1       4.195   6.252  18.368  0.00  0.00    +0.000 C 
ENDROOT
BRANCH   1  11
ATOM      2  O   UNL     1       6.563   4.666  19.341  0.00  0.00    +0.000 OA
ATOM      3  C   UNL     1       5.405   4.367  19.587  0.00  0.00    +0.000 C 
ATOM      4  N   UNL     1       4.961   3.075  19.841  0.00  0.00    +0.000 N 
ATOM      5  C   UNL     1       3.622   3.063  20.180  0.00  0.00    +0.000 A 
ATOM      6  C   UNL     1       2.890   1.953  20.589  0.00  0.00    +0.000 A 
ATOM      7  C   UNL     1       1.601   2.161  21.074  0.00  0.00    +0.000 A 
ATOM      8  C   UNL     1       1.112   3.466  21.188  0.00  0.00    +0.000 A 
ATOM      9  C   UNL     1       1.876   4.567  20.758  0.00  0.00    +0.000 A 
ATOM     10  C   UNL     1       3.118   4.368  20.173  0.00  0.00    +0.000 A 
ATOM     11  C   UNL     1       4.206   5.351  19.702  0.00  0.00    +0.000 C 
ATOM     12  H   UNL     1       5.568   2.267  19.875  0.00  0.00    +0.000 HD
ENDBRANCH   1  11
BRANCH   1  13
ATOM     13  C   UNL     1       3.105   7.342  18.311  0.00  0.00    +0.000 A 
ATOM     14  C   UNL     1       2.633   7.819  17.097  0.00  0.00    +0.000 A 
ATOM     15  N   UNL     1       2.340   9.135  17.334  0.00  0.00    +0.000 N 
ATOM     16  C   UNL     1       1.668   9.128  18.534  0.00  0.00    +0.000 A 
ATOM     17  C   UNL     1       0.712  10.039  18.991  0.00  0.00    +0.000 A 
ATOM     18  C   UNL     1       0.158   9.803  20.240  0.00  0.00    +0.000 A 
ATOM     19  C   UNL     1       0.630   8.745  21.013  0.00  0.00    +0.000 A 
ATOM     20 CL   UNL     1      -0.120   8.493  22.553  0.00  0.00    +0.000 Cl
ATOM     21  C   UNL     1       1.662   7.873  20.565  0.00  0.00    +0.000 A 
ATOM     22  C   UNL     1       2.167   8.015  19.241  0.00  0.00    +0.000 A 
ATOM     23  H   UNL     1       2.978   9.884  17.109  0.00  0.00    +0.000 HD
ENDBRANCH   1  13
BRANCH   1  24
ATOM     24  C   UNL     1       4.042   5.324  17.123  0.00  0.00    +0.000 C 
ATOM     25  O   UNL     1       3.008   4.682  16.922  0.00  0.00    +0.000 OA
BRANCH  24  26
ATOM     26  C   UNL     1       5.128   5.177  16.084  0.00  0.00    +0.000 A 
ATOM     27  C   UNL     1       6.352   5.826  16.152  0.00  0.00    +0.000 A 
ATOM     28  C   UNL     1       7.322   5.600  15.155  0.00  0.00    +0.000 A 
ATOM     29  C   UNL     1       7.072   4.739  14.085  0.00  0.00    +0.000 A 
ATOM     30  C   UNL     1       5.851   4.097  14.001  0.00  0.00    +0.000 A 
ATOM     31  C   UNL     1       4.886   4.311  14.993  0.00  0.00    +0.000 A 
ENDBRANCH  24  26
ENDBRANCH   1  24
TORSDOF 4
ENDMDL
MODEL 7
REMARK VINA RESULT:      -8.0      4.818      8.238
REMARK  Name = 
REMARK  4 active torsions:
REMARK  status: ('A' for Active; 'I' for Inactive)
REMARK    1  A    between atoms: C_10  and  C_11
REMARK    2  A    between atoms: C_11  and  C_12
REMARK    3  A    between atoms: C_11  and  C_20
REMARK    4  A    between atoms: C_12  and  C_14
REMARK                            x       y       z     vdW  Elec       q    Type
REMARK                         _______ _______ _______ _____ _____    ______ ____
ROOT
ATOM      1  C   UNL     1      -0.031   9.931  19.947  0.00  0.00    +0.000 C 
ENDROOT
BRANCH   1  11
ATOM      2  O   UNL     1      -0.438   8.758  22.691  0.00  0.00    +0.000 OA
ATOM      3  C   UNL     1      -0.466   9.957  22.460  0.00  0.00    +0.000 C 
ATOM      4  N   UNL     1      -1.182  10.887  23.205  0.00  0.00    +0.000 N 
ATOM      5  C   UNL     1      -0.945  12.173  22.762  0.00  0.00    +0.000 A 
ATOM      6  C   UNL     1      -1.421  13.343  23.346  0.00  0.00    +0.000 A 
ATOM      7  C   UNL     1      -0.926  14.557  22.878  0.00  0.00    +0.000 A 
ATOM      8  C   UNL     1       0.064  14.561  21.890  0.00  0.00    +0.000 A 
ATOM      9  C   UNL     1       0.519  13.361  21.315  0.00  0.00    +0.000 A 
ATOM     10  C   UNL     1      -0.041  12.149  21.693  0.00  0.00    +0.000 A 
ATOM     11  C   UNL     1       0.301  10.693  21.326  0.00  0.00    +0.000 C 
ATOM     12  H   UNL     1      -1.719  10.654  24.029  0.00  0.00    +0.000 HD
ENDBRANCH   1  11
BRANCH   1  13
ATOM     13  C   UNL     1       1.107   9.061  19.377  0.00  0.00    +0.000 A 
ATOM     14  C   UNL     1       2.081   9.606  18.555  0.00  0.00    +0.000 A 
ATOM     15  N   UNL     1       2.404   8.597  17.687  0.00  0.00    +0.000 N 
ATOM     16  C   UNL     1       2.527   7.483  18.484  0.00  0.00    +0.000 A 
ATOM     17  C   UNL     1       3.316   6.350  18.264  0.00  0.00    +0.000 A 
ATOM     18  C   UNL     1       3.286   5.360  19.235  0.00  0.00    +0.000 A 
ATOM     19  C   UNL     1       2.422   5.486  20.321  0.00  0.00    +0.000 A 
ATOM     20 CL   UNL     1       2.451   4.225  21.506  0.00  0.00    +0.000 Cl
ATOM     21  C   UNL     1       1.566   6.611  20.488  0.00  0.00    +0.000 A 
ATOM     22  C   UNL     1       1.659   7.699  19.574  0.00  0.00    +0.000 A 
ATOM     23  H   UNL     1       2.003   8.523  16.764  0.00  0.00    +0.000 HD
ENDBRANCH   1  13
BRANCH   1  24
ATOM     24  C   UNL     1      -0.449  10.979  18.869  0.00  0.00    +0.000 C 
ATOM     25  O   UNL     1       0.300  11.906  18.548  0.00  0.00    +0.000 OA
BRANCH  24  26
ATOM     26  C   UNL     1      -1.770  10.910  18.140  0.00  0.00    +0.000 A 
ATOM     27  C   UNL     1      -2.897  11.622  18.521  0.00  0.00    +0.000 A 
ATOM     28  C   UNL     1      -4.079  11.525  17.759  0.00  0.00    +0.000 A 
ATOM     29  C   UNL     1      -4.143  10.713  16.625  0.00  0.00    +0.000 A 
ATOM     30  C   UNL     1      -3.029   9.990  16.243  0.00  0.00    +0.000 A 
ATOM     31  C   UNL     1      -1.849  10.088  16.993  0.00  0.00    +0.000 A 
ENDBRANCH  24  26
ENDBRANCH   1  24
TORSDOF 4
ENDMDL
MODEL 8
REMARK VINA RESULT:      -7.9      7.806     10.880
REMARK  Name = 
REMARK  4 active torsions:
REMARK  status: ('A' for Active; 'I' for Inactive)
REMARK    1  A    between atoms: C_10  and  C_11
REMARK    2  A    between atoms: C_11  and  C_12
REMARK    3  A    between atoms: C_11  and  C_20
REMARK    4  A    between atoms: C_12  and  C_14
REMARK                            x       y       z     vdW  Elec       q    Type
REMARK                         _______ _______ _______ _____ _____    ______ ____
ROOT
ATOM      1  C   UNL     1       1.522  12.535  19.221  0.00  0.00    +0.000 C 
ENDROOT
BRANCH   1  11
ATOM      2  O   UNL     1       3.805  14.098  18.031  0.00  0.00    +0.000 OA
ATOM      3  C   UNL     1       2.817  14.619  18.526  0.00  0.00    +0.000 C 
ATOM      4  N   UNL     1       2.798  15.883  19.103  0.00  0.00    +0.000 N 
ATOM      5  C   UNL     1       1.520  16.238  19.489  0.00  0.00    +0.000 A 
ATOM      6  C   UNL     1       1.132  17.470  20.006  0.00  0.00    +0.000 A 
ATOM      7  C   UNL     1      -0.229  17.716  20.161  0.00  0.00    +0.000 A 
ATOM      8  C   UNL     1      -1.154  16.753  19.744  0.00  0.00    +0.000 A 
ATOM      9  C   UNL     1      -0.728  15.514  19.231  0.00  0.00    +0.000 A 
ATOM     10  C   UNL     1       0.625  15.211  19.170  0.00  0.00    +0.000 A 
ATOM     11  C   UNL     1       1.388  14.009  18.586  0.00  0.00    +0.000 C 
ATOM     12  H   UNL     1       3.599  16.500  19.136  0.00  0.00    +0.000 HD
ENDBRANCH   1  11
BRANCH   1  13
ATOM     13  C   UNL     1       0.457  11.517  18.768  0.00  0.00    +0.000 A 
ATOM     14  C   UNL     1       0.773  10.177  18.600  0.00  0.00    +0.000 A 
ATOM     15  N   UNL     1      -0.022   9.762  17.567  0.00  0.00    +0.000 N 
ATOM     16  C   UNL     1      -1.262  10.285  17.853  0.00  0.00    +0.000 A 
ATOM     17  C   UNL     1      -2.513   9.788  17.481  0.00  0.00    +0.000 A 
ATOM     18  C   UNL     1      -3.628  10.491  17.914  0.00  0.00    +0.000 A 
ATOM     19  C   UNL     1      -3.460  11.687  18.608  0.00  0.00    +0.000 A 
ATOM     20 CL   UNL     1      -4.893  12.502  19.139  0.00  0.00    +0.000 Cl
ATOM     21  C   UNL     1      -2.176  12.221  18.910  0.00  0.00    +0.000 A 
ATOM     22  C   UNL     1      -1.014  11.465  18.585  0.00  0.00    +0.000 A 
ATOM     23  H   UNL     1       0.304   9.713  16.613  0.00  0.00    +0.000 HD
ENDBRANCH   1  13
BRANCH   1  24
ATOM     24  C   UNL     1       1.483  12.643  20.778  0.00  0.00    +0.000 C 
ATOM     25  O   UNL     1       2.444  13.081  21.417  0.00  0.00    +0.000 OA
BRANCH  24  26
ATOM     26  C   UNL     1       0.272  12.247  21.588  0.00  0.00    +0.000 A 
ATOM     27  C   UNL     1       0.039  10.958  22.044  0.00  0.00    +0.000 A 
ATOM     28  C   UNL     1      -1.101  10.686  22.826  0.00  0.00    +0.000 A 
ATOM     29  C   UNL     1      -2.015  11.693  23.147  0.00  0.00    +0.000 A 
ATOM     30  C   UNL     1      -1.798  12.978  22.688  0.00  0.00    +0.000 A 
ATOM     31  C   UNL     1      -0.662  13.255  21.916  0.00  0.00    +0.000 A 
ENDBRANCH  24  26
ENDBRANCH   1  24
TORSDOF 4
ENDMDL
MODEL 9
REMARK VINA RESULT:      -7.9      6.588     11.124
REMARK  Name = 
REMARK  4 active torsions:
REMARK  status: ('A' for Active; 'I' for Inactive)
REMARK    1  A    between atoms: C_10  and  C_11
REMARK    2  A    between atoms: C_11  and  C_12
REMARK    3  A    between atoms: C_11  and  C_20
REMARK    4  A    between atoms: C_12  and  C_14
REMARK                            x       y       z     vdW  Elec       q    Type
REMARK                         _______ _______ _______ _____ _____    ______ ____
ROOT
ATOM      1  C   UNL     1      -0.776  11.901  18.377  0.00  0.00    +0.000 C 
ENDROOT
BRANCH   1  11
ATOM      2  O   UNL     1       1.915  13.188  17.960  0.00  0.00    +0.000 OA
ATOM      3  C   UNL     1       1.152  13.499  18.860  0.00  0.00    +0.000 C 
ATOM      4  N   UNL     1       1.549  14.033  20.081  0.00  0.00    +0.000 N 
ATOM      5  C   UNL     1       0.458  14.373  20.858  0.00  0.00    +0.000 A 
ATOM      6  C   UNL     1       0.497  15.019  22.089  0.00  0.00    +0.000 A 
ATOM      7  C   UNL     1      -0.706  15.453  22.639  0.00  0.00    +0.000 A 
ATOM      8  C   UNL     1      -1.893  15.279  21.922  0.00  0.00    +0.000 A 
ATOM      9  C   UNL     1      -1.899  14.614  20.681  0.00  0.00    +0.000 A 
ATOM     10  C   UNL     1      -0.725  14.081  20.169  0.00  0.00    +0.000 A 
ATOM     11  C   UNL     1      -0.400  13.401  18.827  0.00  0.00    +0.000 C 
ATOM     12  H   UNL     1       2.509  14.241  20.319  0.00  0.00    +0.000 HD
ENDBRANCH   1  11
BRANCH   1  13
ATOM     13  C   UNL     1      -2.243  11.681  17.958  0.00  0.00    +0.000 A 
ATOM     14  C   UNL     1      -2.562  10.944  16.827  0.00  0.00    +0.000 A 
ATOM     15  N   UNL     1      -3.696  11.535  16.339  0.00  0.00    +0.000 N 
ATOM     16  C   UNL     1      -4.489  11.727  17.447  0.00  0.00    +0.000 A 
ATOM     17  C   UNL     1      -5.883  11.786  17.508  0.00  0.00    +0.000 A 
ATOM     18  C   UNL     1      -6.455  11.969  18.758  0.00  0.00    +0.000 A 
ATOM     19  C   UNL     1      -5.636  12.176  19.866  0.00  0.00    +0.000 A 
ATOM     20 CL   UNL     1      -6.415  12.376  21.400  0.00  0.00    +0.000 Cl
ATOM     21  C   UNL     1      -4.216  12.192  19.773  0.00  0.00    +0.000 A 
ATOM     22  C   UNL     1      -3.597  11.889  18.527  0.00  0.00    +0.000 A 
ATOM     23  H   UNL     1      -3.679  12.219  15.598  0.00  0.00    +0.000 HD
ENDBRANCH   1  13
BRANCH   1  24
ATOM     24  C   UNL     1      -0.432  10.916  19.537  0.00  0.00    +0.000 C 
ATOM     25  O   UNL     1      -0.975  11.008  20.642  0.00  0.00    +0.000 OA
BRANCH  24  26
ATOM     26  C   UNL     1       0.555   9.785  19.375  0.00  0.00    +0.000 A 
ATOM     27  C   UNL     1       0.946   8.950  20.411  0.00  0.00    +0.000 A 
ATOM     28  C   UNL     1       1.846   7.894  20.160  0.00  0.00    +0.000 A 
ATOM     29  C   UNL     1       2.365   7.676  18.882  0.00  0.00    +0.000 A 
ATOM     30  C   UNL     1       1.991   8.509  17.845  0.00  0.00    +0.000 A 
ATOM     31  C   UNL     1       1.091   9.555  18.087  0.00  0.00    +0.000 A 
ENDBRANCH  24  26
ENDBRANCH   1  24
TORSDOF 4
ENDMDL
