MODEL 1
REMARK VINA RESULT:      -7.3      0.000      0.000
REMARK  Name = 
REMARK  13 active torsions:
REMARK  status: ('A' for Active; 'I' for Inactive)
REMARK    1  A    between atoms: C_1  and  O_2
REMARK    2  A    between atoms: O_2  and  C_3
REMARK    3  A    between atoms: C_4  and  C_5
REMARK    4  A    between atoms: C_5  and  O_7
REMARK    5  A    between atoms: C_9  and  C_10
REMARK    6  A    between atoms: C_10  and  C_11
REMARK    7  A    between atoms: C_11  and  S_12
REMARK    8  A    between atoms: S_12  and  C_13
REMARK    9  A    between atoms: N_19  and  O_20
REMARK   10  A    between atoms: C_22  and  C_23
REMARK   11  A    between atoms: C_23  and  C_24
REMARK   12  A    between atoms: C_23  and  C_25
REMARK   13  A    between atoms: C_23  and  C_26
REMARK                            x       y       z     vdW  Elec       q    Type
REMARK                         _______ _______ _______ _____ _____    ______ ____
ROOT
ATOM      1  C   UNL     1       3.466   4.509  18.851  0.00  0.00    +0.000 A 
ATOM      2  C   UNL     1       2.331   4.920  19.586  0.00  0.00    +0.000 A 
ATOM      3  C   UNL     1       1.755   6.172  19.373  0.00  0.00    +0.000 A 
ATOM      4  C   UNL     1       2.415   7.118  18.604  0.00  0.00    +0.000 A 
ATOM      5  C   UNL     1       3.596   6.733  17.937  0.00  0.00    +0.000 A 
ATOM      6  C   UNL     1       4.129   5.419  17.988  0.00  0.00    +0.000 A 
ENDROOT
BRANCH   6   7
ATOM      7  C   UNL     1       5.396   5.115  17.146  0.00  0.00    +0.000 C 
ATOM      8  C   UNL     1       5.797   6.381  16.359  0.00  0.00    +0.000 C 
ATOM      9  C   UNL     1       6.615   4.646  17.972  0.00  0.00    +0.000 C 
ATOM     10  C   UNL     1       5.159   3.977  16.110  0.00  0.00    +0.000 C 
ENDBRANCH   6   7
BRANCH   1  12
ATOM     11  C   UNL     1       3.323   2.187  18.400  0.00  0.00    +0.000 C 
ATOM     12  O   UNL     1       4.013   3.267  19.053  0.00  0.00    +0.000 OA
ENDBRANCH   1  12
BRANCH   2  13
ATOM     13  C   UNL     1       1.722   4.126  20.681  0.00  0.00    +0.000 C 
ATOM     14  O   UNL     1       2.305   3.866  21.718  0.00  0.00    +0.000 OA
BRANCH  13  15
ATOM     15  O   UNL     1       0.499   3.646  20.371  0.00  0.00    +0.000 OA
ATOM     16  H   UNL     1       0.224   3.826  19.448  0.00  0.00    +0.000 HD
ENDBRANCH  13  15
ENDBRANCH   2  13
BRANCH   4  17
ATOM     17  C   UNL     1       1.925   8.540  18.475  0.00  0.00    +0.000 C 
ATOM     18  N   UNL     1       2.485   9.253  17.534  0.00  0.00    +0.000 NA
BRANCH  18  19
ATOM     19  O   UNL     1       1.947  10.539  17.438  0.00  0.00    +0.000 OA
ATOM     20  H   UNL     1       2.459  10.924  16.699  0.00  0.00    +0.000 HD
ENDBRANCH  18  19
BRANCH  17  21
ATOM     21  C   UNL     1       0.795   9.088  19.363  0.00  0.00    +0.000 C 
BRANCH  21  22
ATOM     22  S   UNL     1       1.097   9.159  21.167  0.00  0.00    +0.000 S 
BRANCH  22  23
ATOM     23  C   UNL     1      -0.061  10.425  21.666  0.00  0.00    +0.000 A 
ATOM     24  C   UNL     1      -0.661  10.400  22.921  0.00  0.00    +0.000 A 
ATOM     25  C   UNL     1      -1.658  11.323  23.228  0.00  0.00    +0.000 A 
ATOM     26  C   UNL     1      -2.035  12.283  22.293  0.00  0.00    +0.000 A 
ATOM     27  C   UNL     1      -1.390  12.349  21.060  0.00  0.00    +0.000 A 
ATOM     28  C   UNL     1      -0.394  11.422  20.744  0.00  0.00    +0.000 A 
ENDBRANCH  22  23
ENDBRANCH  21  22
ENDBRANCH  17  21
ENDBRANCH   4  17
TORSDOF 9
ENDMDL
MODEL 2
REMARK VINA RESULT:      -7.3      2.165      2.597
REMARK  Name = 
REMARK  13 active torsions:
REMARK  status: ('A' for Active; 'I' for Inactive)
REMARK    1  A    between atoms: C_1  and  O_2
REMARK    2  A    between atoms: O_2  and  C_3
REMARK    3  A    between atoms: C_4  and  C_5
REMARK    4  A    between atoms: C_5  and  O_7
REMARK    5  A    between atoms: C_9  and  C_10
REMARK    6  A    between atoms: C_10  and  C_11
REMARK    7  A    between atoms: C_11  and  S_12
REMARK    8  A    between atoms: S_12  and  C_13
REMARK    9  A    between atoms: N_19  and  O_20
REMARK   10  A    between atoms: C_22  and  C_23
REMARK   11  A    between atoms: C_23  and  C_24
REMARK   12  A    between atoms: C_23  and  C_25
REMARK   13  A    between atoms: C_23  and  C_26
REMARK                            x       y       z     vdW  Elec       q    Type
REMARK                         _______ _______ _______ _____ _____    ______ ____
ROOT
ATOM      1  C   UNL     1       3.298   4.207  19.425  0.00  0.00    +0.000 A 
ATOM      2  C   UNL     1       2.277   4.341  20.393  0.00  0.00    +0.000 A 
ATOM      3  C   UNL     1       1.649   5.569  20.605  0.00  0.00    +0.000 A 
ATOM      4  C   UNL     1       2.168   6.721  20.036  0.00  0.00    +0.000 A 
ATOM      5  C   UNL     1       3.245   6.597  19.134  0.00  0.00    +0.000 A 
ATOM      6  C   UNL     1       3.807   5.350  18.756  0.00  0.00    +0.000 A 
ENDROOT
BRANCH   6   7
ATOM      7  C   UNL     1       4.940   5.354  17.697  0.00  0.00    +0.000 C 
ATOM      8  C   UNL     1       5.155   6.796  17.191  0.00  0.00    +0.000 C 
ATOM      9  C   UNL     1       6.293   4.809  18.208  0.00  0.00    +0.000 C 
ATOM     10  C   UNL     1       4.599   4.471  16.461  0.00  0.00    +0.000 C 
ENDBRANCH   6   7
BRANCH   1  12
ATOM     11  C   UNL     1       3.112   2.059  18.439  0.00  0.00    +0.000 C 
ATOM     12  O   UNL     1       3.895   2.991  19.209  0.00  0.00    +0.000 OA
ENDBRANCH   1  12
BRANCH   2  13
ATOM     13  C   UNL     1       1.853   3.253  21.307  0.00  0.00    +0.000 C 
ATOM     14  O   UNL     1       2.575   2.794  22.174  0.00  0.00    +0.000 OA
BRANCH  13  15
ATOM     15  O   UNL     1       0.629   2.764  21.018  0.00  0.00    +0.000 OA
ATOM     16  H   UNL     1       0.441   2.704  20.058  0.00  0.00    +0.000 HD
ENDBRANCH  13  15
ENDBRANCH   2  13
BRANCH   4  17
ATOM     17  C   UNL     1       1.635   8.095  20.363  0.00  0.00    +0.000 C 
ATOM     18  N   UNL     1       1.077   8.226  21.537  0.00  0.00    +0.000 NA
BRANCH  18  19
ATOM     19  O   UNL     1       0.655   9.534  21.793  0.00  0.00    +0.000 OA
ATOM     20  H   UNL     1       0.897   9.651  22.733  0.00  0.00    +0.000 HD
ENDBRANCH  18  19
BRANCH  17  21
ATOM     21  C   UNL     1       1.798   9.277  19.391  0.00  0.00    +0.000 C 
BRANCH  21  22
ATOM     22  S   UNL     1       0.970   9.149  17.763  0.00  0.00    +0.000 S 
BRANCH  22  23
ATOM     23  C   UNL     1      -0.537  10.062  18.065  0.00  0.00    +0.000 A 
ATOM     24  C   UNL     1      -1.678   9.844  17.301  0.00  0.00    +0.000 A 
ATOM     25  C   UNL     1      -2.792  10.663  17.474  0.00  0.00    +0.000 A 
ATOM     26  C   UNL     1      -2.771  11.680  18.424  0.00  0.00    +0.000 A 
ATOM     27  C   UNL     1      -1.651  11.860  19.233  0.00  0.00    +0.000 A 
ATOM     28  C   UNL     1      -0.530  11.045  19.061  0.00  0.00    +0.000 A 
ENDBRANCH  22  23
ENDBRANCH  21  22
ENDBRANCH  17  21
ENDBRANCH   4  17
TORSDOF 9
ENDMDL
MODEL 3
REMARK VINA RESULT:      -7.3      1.055      1.459
REMARK  Name = 
REMARK  13 active torsions:
REMARK  status: ('A' for Active; 'I' for Inactive)
REMARK    1  A    between atoms: C_1  and  O_2
REMARK    2  A    between atoms: O_2  and  C_3
REMARK    3  A    between atoms: C_4  and  C_5
REMARK    4  A    between atoms: C_5  and  O_7
REMARK    5  A    between atoms: C_9  and  C_10
REMARK    6  A    between atoms: C_10  and  C_11
REMARK    7  A    between atoms: C_11  and  S_12
REMARK    8  A    between atoms: S_12  and  C_13
REMARK    9  A    between atoms: N_19  and  O_20
REMARK   10  A    between atoms: C_22  and  C_23
REMARK   11  A    between atoms: C_23  and  C_24
REMARK   12  A    between atoms: C_23  and  C_25
REMARK   13  A    between atoms: C_23  and  C_26
REMARK                            x       y       z     vdW  Elec       q    Type
REMARK                         _______ _______ _______ _____ _____    ______ ____
ROOT
ATOM      1  C   UNL     1       3.827   4.625  18.150  0.00  0.00    +0.000 A 
ATOM      2  C   UNL     1       2.434   4.795  18.317  0.00  0.00    +0.000 A 
ATOM      3  C   UNL     1       1.849   6.056  18.205  0.00  0.00    +0.000 A 
ATOM      4  C   UNL     1       2.645   7.189  18.155  0.00  0.00    +0.000 A 
ATOM      5  C   UNL     1       4.043   7.022  18.074  0.00  0.00    +0.000 A 
ATOM      6  C   UNL     1       4.676   5.754  18.013  0.00  0.00    +0.000 A 
ENDROOT
BRANCH   6   7
ATOM      7  C   UNL     1       6.218   5.718  17.852  0.00  0.00    +0.000 C 
ATOM      8  C   UNL     1       6.599   4.584  16.876  0.00  0.00    +0.000 C 
ATOM      9  C   UNL     1       6.837   7.036  17.336  0.00  0.00    +0.000 C 
ATOM     10  C   UNL     1       6.948   5.439  19.199  0.00  0.00    +0.000 C 
ENDBRANCH   6   7
BRANCH   1  12
ATOM     11  C   UNL     1       4.523   2.868  19.580  0.00  0.00    +0.000 C 
ATOM     12  O   UNL     1       4.391   3.378  18.240  0.00  0.00    +0.000 OA
ENDBRANCH   1  12
BRANCH   2  13
ATOM     13  C   UNL     1       1.507   3.703  18.704  0.00  0.00    +0.000 C 
ATOM     14  O   UNL     1       0.896   3.693  19.757  0.00  0.00    +0.000 OA
BRANCH  13  15
ATOM     15  O   UNL     1       1.485   2.686  17.817  0.00  0.00    +0.000 OA
ATOM     16  H   UNL     1       1.123   2.931  16.941  0.00  0.00    +0.000 HD
ENDBRANCH  13  15
ENDBRANCH   2  13
BRANCH   4  17
ATOM     17  C   UNL     1       2.070   8.584  18.203  0.00  0.00    +0.000 C 
ATOM     18  N   UNL     1       2.614   9.453  17.393  0.00  0.00    +0.000 NA
BRANCH  18  19
ATOM     19  O   UNL     1       2.000  10.706  17.452  0.00  0.00    +0.000 OA
ATOM     20  H   UNL     1       1.081  10.501  17.187  0.00  0.00    +0.000 HD
ENDBRANCH  18  19
BRANCH  17  21
ATOM     21  C   UNL     1       0.879   8.936  19.111  0.00  0.00    +0.000 C 
BRANCH  21  22
ATOM     22  S   UNL     1       1.116   8.765  20.918  0.00  0.00    +0.000 S 
BRANCH  22  23
ATOM     23  C   UNL     1       0.057  10.066  21.533  0.00  0.00    +0.000 A 
ATOM     24  C   UNL     1      -0.439  10.039  22.833  0.00  0.00    +0.000 A 
ATOM     25  C   UNL     1      -1.366  10.996  23.238  0.00  0.00    +0.000 A 
ATOM     26  C   UNL     1      -1.778  11.990  22.354  0.00  0.00    +0.000 A 
ATOM     27  C   UNL     1      -1.235  12.055  21.073  0.00  0.00    +0.000 A 
ATOM     28  C   UNL     1      -0.308  11.095  20.659  0.00  0.00    +0.000 A 
ENDBRANCH  22  23
ENDBRANCH  21  22
ENDBRANCH  17  21
ENDBRANCH   4  17
TORSDOF 9
ENDMDL
MODEL 4
REMARK VINA RESULT:      -7.3      1.020      1.475
REMARK  Name = 
REMARK  13 active torsions:
REMARK  status: ('A' for Active; 'I' for Inactive)
REMARK    1  A    between atoms: C_1  and  O_2
REMARK    2  A    between atoms: O_2  and  C_3
REMARK    3  A    between atoms: C_4  and  C_5
REMARK    4  A    between atoms: C_5  and  O_7
REMARK    5  A    between atoms: C_9  and  C_10
REMARK    6  A    between atoms: C_10  and  C_11
REMARK    7  A    between atoms: C_11  and  S_12
REMARK    8  A    between atoms: S_12  and  C_13
REMARK    9  A    between atoms: N_19  and  O_20
REMARK   10  A    between atoms: C_22  and  C_23
REMARK   11  A    between atoms: C_23  and  C_24
REMARK   12  A    between atoms: C_23  and  C_25
REMARK   13  A    between atoms: C_23  and  C_26
REMARK                            x       y       z     vdW  Elec       q    Type
REMARK                         _______ _______ _______ _____ _____    ______ ____
ROOT
ATOM      1  C   UNL     1       3.790   4.637  18.171  0.00  0.00    +0.000 A 
ATOM      2  C   UNL     1       2.401   4.830  18.349  0.00  0.00    +0.000 A 
ATOM      3  C   UNL     1       1.834   6.099  18.227  0.00  0.00    +0.000 A 
ATOM      4  C   UNL     1       2.646   7.218  18.155  0.00  0.00    +0.000 A 
ATOM      5  C   UNL     1       4.041   7.030  18.063  0.00  0.00    +0.000 A 
ATOM      6  C   UNL     1       4.654   5.752  18.013  0.00  0.00    +0.000 A 
ENDROOT
BRANCH   6   7
ATOM      7  C   UNL     1       6.194   5.691  17.838  0.00  0.00    +0.000 C 
ATOM      8  C   UNL     1       6.850   5.445  19.213  0.00  0.00    +0.000 C 
ATOM      9  C   UNL     1       6.684   4.599  16.860  0.00  0.00    +0.000 C 
ATOM     10  C   UNL     1       6.779   7.019  17.272  0.00  0.00    +0.000 C 
ENDBRANCH   6   7
BRANCH   1  12
ATOM     11  C   UNL     1       4.470   2.887  19.616  0.00  0.00    +0.000 C 
ATOM     12  O   UNL     1       4.337   3.383  18.272  0.00  0.00    +0.000 OA
ENDBRANCH   1  12
BRANCH   2  13
ATOM     13  C   UNL     1       1.462   3.758  18.758  0.00  0.00    +0.000 C 
ATOM     14  O   UNL     1       1.092   2.875  18.005  0.00  0.00    +0.000 OA
BRANCH  13  15
ATOM     15  O   UNL     1       0.990   3.916  20.012  0.00  0.00    +0.000 OA
ATOM     16  H   UNL     1       0.026   4.085  20.056  0.00  0.00    +0.000 HD
ENDBRANCH  13  15
ENDBRANCH   2  13
BRANCH   4  17
ATOM     17  C   UNL     1       2.093   8.623  18.191  0.00  0.00    +0.000 C 
ATOM     18  N   UNL     1       2.664   9.482  17.389  0.00  0.00    +0.000 NA
BRANCH  18  19
ATOM     19  O   UNL     1       2.068  10.745  17.436  0.00  0.00    +0.000 OA
ATOM     20  H   UNL     1       1.417  10.695  16.709  0.00  0.00    +0.000 HD
ENDBRANCH  18  19
BRANCH  17  21
ATOM     21  C   UNL     1       0.891   8.995  19.077  0.00  0.00    +0.000 C 
BRANCH  21  22
ATOM     22  S   UNL     1       1.089   8.812  20.888  0.00  0.00    +0.000 S 
BRANCH  22  23
ATOM     23  C   UNL     1      -0.004  10.091  21.489  0.00  0.00    +0.000 A 
ATOM     24  C   UNL     1      -0.412  10.124  22.819  0.00  0.00    +0.000 A 
ATOM     25  C   UNL     1      -1.368  11.053  23.224  0.00  0.00    +0.000 A 
ATOM     26  C   UNL     1      -1.894  11.960  22.309  0.00  0.00    +0.000 A 
ATOM     27  C   UNL     1      -1.440  11.968  20.992  0.00  0.00    +0.000 A 
ATOM     28  C   UNL     1      -0.486  11.036  20.578  0.00  0.00    +0.000 A 
ENDBRANCH  22  23
ENDBRANCH  21  22
ENDBRANCH  17  21
ENDBRANCH   4  17
TORSDOF 9
ENDMDL
MODEL 5
REMARK VINA RESULT:      -7.2      1.159      1.635
REMARK  Name = 
REMARK  13 active torsions:
REMARK  status: ('A' for Active; 'I' for Inactive)
REMARK    1  A    between atoms: C_1  and  O_2
REMARK    2  A    between atoms: O_2  and  C_3
REMARK    3  A    between atoms: C_4  and  C_5
REMARK    4  A    between atoms: C_5  and  O_7
REMARK    5  A    between atoms: C_9  and  C_10
REMARK    6  A    between atoms: C_10  and  C_11
REMARK    7  A    between atoms: C_11  and  S_12
REMARK    8  A    between atoms: S_12  and  C_13
REMARK    9  A    between atoms: N_19  and  O_20
REMARK   10  A    between atoms: C_22  and  C_23
REMARK   11  A    between atoms: C_23  and  C_24
REMARK   12  A    between atoms: C_23  and  C_25
REMARK   13  A    between atoms: C_23  and  C_26
REMARK                            x       y       z     vdW  Elec       q    Type
REMARK                         _______ _______ _______ _____ _____    ______ ____
ROOT
ATOM      1  C   UNL     1       3.971   4.578  18.152  0.00  0.00    +0.000 A 
ATOM      2  C   UNL     1       2.571   4.731  18.277  0.00  0.00    +0.000 A 
ATOM      3  C   UNL     1       1.975   5.987  18.155  0.00  0.00    +0.000 A 
ATOM      4  C   UNL     1       2.760   7.129  18.135  0.00  0.00    +0.000 A 
ATOM      5  C   UNL     1       4.162   6.978  18.096  0.00  0.00    +0.000 A 
ATOM      6  C   UNL     1       4.811   5.717  18.048  0.00  0.00    +0.000 A 
ENDROOT
BRANCH   6   7
ATOM      7  C   UNL     1       6.357   5.699  17.933  0.00  0.00    +0.000 C 
ATOM      8  C   UNL     1       6.835   7.032  17.318  0.00  0.00    +0.000 C 
ATOM      9  C   UNL     1       7.094   5.488  19.275  0.00  0.00    +0.000 C 
ATOM     10  C   UNL     1       6.870   4.551  17.015  0.00  0.00    +0.000 C 
ENDBRANCH   6   7
BRANCH   1  12
ATOM     11  C   UNL     1       4.588   2.795  19.585  0.00  0.00    +0.000 C 
ATOM     12  O   UNL     1       4.546   3.337  18.253  0.00  0.00    +0.000 OA
ENDBRANCH   1  12
BRANCH   2  13
ATOM     13  C   UNL     1       1.646   3.628  18.630  0.00  0.00    +0.000 C 
ATOM     14  O   UNL     1       1.417   2.689  17.888  0.00  0.00    +0.000 OA
BRANCH  13  15
ATOM     15  O   UNL     1       1.016   3.819  19.808  0.00  0.00    +0.000 OA
ATOM     16  H   UNL     1       1.259   4.656  20.257  0.00  0.00    +0.000 HD
ENDBRANCH  13  15
ENDBRANCH   2  13
BRANCH   4  17
ATOM     17  C   UNL     1       2.168   8.517  18.174  0.00  0.00    +0.000 C 
ATOM     18  N   UNL     1       2.677   9.377  17.332  0.00  0.00    +0.000 NA
BRANCH  18  19
ATOM     19  O   UNL     1       2.047  10.623  17.385  0.00  0.00    +0.000 OA
ATOM     20  H   UNL     1       1.198  10.410  17.820  0.00  0.00    +0.000 HD
ENDBRANCH  18  19
BRANCH  17  21
ATOM     21  C   UNL     1       1.000   8.871  19.109  0.00  0.00    +0.000 C 
BRANCH  21  22
ATOM     22  S   UNL     1       1.264   8.658  20.908  0.00  0.00    +0.000 S 
BRANCH  22  23
ATOM     23  C   UNL     1       0.302  10.013  21.565  0.00  0.00    +0.000 A 
ATOM     24  C   UNL     1       0.439  11.304  21.065  0.00  0.00    +0.000 A 
ATOM     25  C   UNL     1      -0.225  12.359  21.687  0.00  0.00    +0.000 A 
ATOM     26  C   UNL     1      -1.041  12.120  22.789  0.00  0.00    +0.000 A 
ATOM     27  C   UNL     1      -1.229  10.820  23.251  0.00  0.00    +0.000 A 
ATOM     28  C   UNL     1      -0.561   9.758  22.636  0.00  0.00    +0.000 A 
ENDBRANCH  22  23
ENDBRANCH  21  22
ENDBRANCH  17  21
ENDBRANCH   4  17
TORSDOF 9
ENDMDL
MODEL 6
REMARK VINA RESULT:      -7.2      0.525      1.199
REMARK  Name = 
REMARK  13 active torsions:
REMARK  status: ('A' for Active; 'I' for Inactive)
REMARK    1  A    between atoms: C_1  and  O_2
REMARK    2  A    between atoms: O_2  and  C_3
REMARK    3  A    between atoms: C_4  and  C_5
REMARK    4  A    between atoms: C_5  and  O_7
REMARK    5  A    between atoms: C_9  and  C_10
REMARK    6  A    between atoms: C_10  and  C_11
REMARK    7  A    between atoms: C_11  and  S_12
REMARK    8  A    between atoms: S_12  and  C_13
REMARK    9  A    between atoms: N_19  and  O_20
REMARK   10  A    between atoms: C_22  and  C_23
REMARK   11  A    between atoms: C_23  and  C_24
REMARK   12  A    between atoms: C_23  and  C_25
REMARK   13  A    between atoms: C_23  and  C_26
REMARK                            x       y       z     vdW  Elec       q    Type
REMARK                         _______ _______ _______ _____ _____    ______ ____
ROOT
ATOM      1  C   UNL     1       3.680   4.380  18.555  0.00  0.00    +0.000 A 
ATOM      2  C   UNL     1       2.516   4.709  19.286  0.00  0.00    +0.000 A 
ATOM      3  C   UNL     1       1.909   5.958  19.142  0.00  0.00    +0.000 A 
ATOM      4  C   UNL     1       2.561   6.970  18.457  0.00  0.00    +0.000 A 
ATOM      5  C   UNL     1       3.769   6.664  17.797  0.00  0.00    +0.000 A 
ATOM      6  C   UNL     1       4.339   5.364  17.774  0.00  0.00    +0.000 A 
ENDROOT
BRANCH   6   7
ATOM      7  C   UNL     1       5.634   5.153  16.948  0.00  0.00    +0.000 C 
ATOM      8  C   UNL     1       6.102   6.510  16.383  0.00  0.00    +0.000 C 
ATOM      9  C   UNL     1       6.802   4.525  17.741  0.00  0.00    +0.000 C 
ATOM     10  C   UNL     1       5.416   4.194  15.740  0.00  0.00    +0.000 C 
ENDBRANCH   6   7
BRANCH   1  12
ATOM     11  C   UNL     1       3.594   2.084  17.973  0.00  0.00    +0.000 C 
ATOM     12  O   UNL     1       4.257   3.143  18.688  0.00  0.00    +0.000 OA
ENDBRANCH   1  12
BRANCH   2  13
ATOM     13  C   UNL     1       1.902   3.827  20.308  0.00  0.00    +0.000 C 
ATOM     14  O   UNL     1       0.699   3.659  20.406  0.00  0.00    +0.000 OA
BRANCH  13  15
ATOM     15  O   UNL     1       2.801   3.309  21.170  0.00  0.00    +0.000 OA
ATOM     16  H   UNL     1       3.201   3.971  21.772  0.00  0.00    +0.000 HD
ENDBRANCH  13  15
ENDBRANCH   2  13
BRANCH   4  17
ATOM     17  C   UNL     1       2.034   8.384  18.411  0.00  0.00    +0.000 C 
ATOM     18  N   UNL     1       2.540   9.152  17.482  0.00  0.00    +0.000 NA
BRANCH  18  19
ATOM     19  O   UNL     1       1.970  10.427  17.464  0.00  0.00    +0.000 OA
ATOM     20  H   UNL     1       1.398  10.389  16.673  0.00  0.00    +0.000 HD
ENDBRANCH  18  19
BRANCH  17  21
ATOM     21  C   UNL     1       0.927   8.865  19.365  0.00  0.00    +0.000 C 
BRANCH  21  22
ATOM     22  S   UNL     1       1.317   8.916  21.153  0.00  0.00    +0.000 S 
BRANCH  22  23
ATOM     23  C   UNL     1       0.293  10.277  21.695  0.00  0.00    +0.000 A 
ATOM     24  C   UNL     1       0.450  11.553  21.165  0.00  0.00    +0.000 A 
ATOM     25  C   UNL     1      -0.270  12.617  21.703  0.00  0.00    +0.000 A 
ATOM     26  C   UNL     1      -1.162  12.401  22.750  0.00  0.00    +0.000 A 
ATOM     27  C   UNL     1      -1.366  11.112  23.239  0.00  0.00    +0.000 A 
ATOM     28  C   UNL     1      -0.643  10.042  22.707  0.00  0.00    +0.000 A 
ENDBRANCH  22  23
ENDBRANCH  21  22
ENDBRANCH  17  21
ENDBRANCH   4  17
TORSDOF 9
ENDMDL
MODEL 7
REMARK VINA RESULT:      -7.2      2.213      2.771
REMARK  Name = 
REMARK  13 active torsions:
REMARK  status: ('A' for Active; 'I' for Inactive)
REMARK    1  A    between atoms: C_1  and  O_2
REMARK    2  A    between atoms: O_2  and  C_3
REMARK    3  A    between atoms: C_4  and  C_5
REMARK    4  A    between atoms: C_5  and  O_7
REMARK    5  A    between atoms: C_9  and  C_10
REMARK    6  A    between atoms: C_10  and  C_11
REMARK    7  A    between atoms: C_11  and  S_12
REMARK    8  A    between atoms: S_12  and  C_13
REMARK    9  A    between atoms: N_19  and  O_20
REMARK   10  A    between atoms: C_22  and  C_23
REMARK   11  A    between atoms: C_23  and  C_24
REMARK   12  A    between atoms: C_23  and  C_25
REMARK   13  A    between atoms: C_23  and  C_26
REMARK                            x       y       z     vdW  Elec       q    Type
REMARK                         _______ _______ _______ _____ _____    ______ ____
ROOT
ATOM      1  C   UNL     1       3.463   4.019  19.446  0.00  0.00    +0.000 A 
ATOM      2  C   UNL     1       2.438   4.086  20.417  0.00  0.00    +0.000 A 
ATOM      3  C   UNL     1       1.727   5.268  20.626  0.00  0.00    +0.000 A 
ATOM      4  C   UNL     1       2.162   6.451  20.050  0.00  0.00    +0.000 A 
ATOM      5  C   UNL     1       3.241   6.398  19.144  0.00  0.00    +0.000 A 
ATOM      6  C   UNL     1       3.889   5.192  18.770  0.00  0.00    +0.000 A 
ENDROOT
BRANCH   6   7
ATOM      7  C   UNL     1       5.015   5.271  17.707  0.00  0.00    +0.000 C 
ATOM      8  C   UNL     1       4.611   4.431  16.477  0.00  0.00    +0.000 C 
ATOM      9  C   UNL     1       5.348   6.704  17.234  0.00  0.00    +0.000 C 
ATOM     10  C   UNL     1       6.367   4.705  18.234  0.00  0.00    +0.000 C 
ENDBRANCH   6   7
BRANCH   1  12
ATOM     11  C   UNL     1       3.448   1.881  18.424  0.00  0.00    +0.000 C 
ATOM     12  O   UNL     1       4.143   2.847  19.233  0.00  0.00    +0.000 OA
ENDBRANCH   1  12
BRANCH   2  13
ATOM     13  C   UNL     1       2.095   2.975  21.337  0.00  0.00    +0.000 C 
ATOM     14  O   UNL     1       0.948   2.666  21.608  0.00  0.00    +0.000 OA
BRANCH  13  15
ATOM     15  O   UNL     1       3.177   2.409  21.912  0.00  0.00    +0.000 OA
ATOM     16  H   UNL     1       3.939   3.018  22.010  0.00  0.00    +0.000 HD
ENDBRANCH  13  15
ENDBRANCH   2  13
BRANCH   4  17
ATOM     17  C   UNL     1       1.535   7.786  20.372  0.00  0.00    +0.000 C 
ATOM     18  N   UNL     1       0.710   7.799  21.386  0.00  0.00    +0.000 NA
BRANCH  18  19
ATOM     19  O   UNL     1       0.210   9.074  21.660  0.00  0.00    +0.000 OA
ATOM     20  H   UNL     1      -0.083   8.988  22.589  0.00  0.00    +0.000 HD
ENDBRANCH  18  19
BRANCH  17  21
ATOM     21  C   UNL     1       1.896   9.058  19.587  0.00  0.00    +0.000 C 
BRANCH  21  22
ATOM     22  S   UNL     1       1.232   9.219  17.889  0.00  0.00    +0.000 S 
BRANCH  22  23
ATOM     23  C   UNL     1      -0.275  10.133  18.189  0.00  0.00    +0.000 A 
ATOM     24  C   UNL     1      -1.451   9.828  17.511  0.00  0.00    +0.000 A 
ATOM     25  C   UNL     1      -2.569  10.643  17.668  0.00  0.00    +0.000 A 
ATOM     26  C   UNL     1      -2.519  11.743  18.519  0.00  0.00    +0.000 A 
ATOM     27  C   UNL     1      -1.362  12.013  19.246  0.00  0.00    +0.000 A 
ATOM     28  C   UNL     1      -0.235  11.203  19.089  0.00  0.00    +0.000 A 
ENDBRANCH  22  23
ENDBRANCH  21  22
ENDBRANCH  17  21
ENDBRANCH   4  17
TORSDOF 9
ENDMDL
MODEL 8
REMARK VINA RESULT:      -7.2      0.118      1.262
REMARK  Name = 
REMARK  13 active torsions:
REMARK  status: ('A' for Active; 'I' for Inactive)
REMARK    1  A    between atoms: C_1  and  O_2
REMARK    2  A    between atoms: O_2  and  C_3
REMARK    3  A    between atoms: C_4  and  C_5
REMARK    4  A    between atoms: C_5  and  O_7
REMARK    5  A    between atoms: C_9  and  C_10
REMARK    6  A    between atoms: C_10  and  C_11
REMARK    7  A    between atoms: C_11  and  S_12
REMARK    8  A    between atoms: S_12  and  C_13
REMARK    9  A    between atoms: N_19  and  O_20
REMARK   10  A    between atoms: C_22  and  C_23
REMARK   11  A    between atoms: C_23  and  C_24
REMARK   12  A    between atoms: C_23  and  C_25
REMARK   13  A    between atoms: C_23  and  C_26
REMARK                            x       y       z     vdW  Elec       q    Type
REMARK                         _______ _______ _______ _____ _____    ______ ____
ROOT
ATOM      1  C   UNL     1       3.483   4.557  18.823  0.00  0.00    +0.000 A 
ATOM      2  C   UNL     1       2.341   4.966  19.548  0.00  0.00    +0.000 A 
ATOM      3  C   UNL     1       1.767   6.219  19.331  0.00  0.00    +0.000 A 
ATOM      4  C   UNL     1       2.434   7.165  18.570  0.00  0.00    +0.000 A 
ATOM      5  C   UNL     1       3.622   6.782  17.914  0.00  0.00    +0.000 A 
ATOM      6  C   UNL     1       4.155   5.468  17.968  0.00  0.00    +0.000 A 
ENDROOT
BRANCH   6   7
ATOM      7  C   UNL     1       5.430   5.166  17.138  0.00  0.00    +0.000 C 
ATOM      8  C   UNL     1       5.105   4.081  16.089  0.00  0.00    +0.000 C 
ATOM      9  C   UNL     1       6.022   6.392  16.407  0.00  0.00    +0.000 C 
ATOM     10  C   UNL     1       6.597   4.630  18.019  0.00  0.00    +0.000 C 
ENDBRANCH   6   7
BRANCH   1  12
ATOM     11  C   UNL     1       3.330   2.232  18.389  0.00  0.00    +0.000 C 
ATOM     12  O   UNL     1       4.029   3.315  19.029  0.00  0.00    +0.000 OA
ENDBRANCH   1  12
BRANCH   2  13
ATOM     13  C   UNL     1       1.721   4.171  20.636  0.00  0.00    +0.000 C 
ATOM     14  O   UNL     1       2.310   3.871  21.659  0.00  0.00    +0.000 OA
BRANCH  13  15
ATOM     15  O   UNL     1       0.480   3.737  20.334  0.00  0.00    +0.000 OA
ATOM     16  H   UNL     1      -0.232   4.360  20.589  0.00  0.00    +0.000 HD
ENDBRANCH  13  15
ENDBRANCH   2  13
BRANCH   4  17
ATOM     17  C   UNL     1       1.946   8.588  18.439  0.00  0.00    +0.000 C 
ATOM     18  N   UNL     1       2.532   9.310  17.522  0.00  0.00    +0.000 NA
BRANCH  18  19
ATOM     19  O   UNL     1       1.995  10.596  17.420  0.00  0.00    +0.000 OA
ATOM     20  H   UNL     1       1.688  10.621  16.492  0.00  0.00    +0.000 HD
ENDBRANCH  18  19
BRANCH  17  21
ATOM     21  C   UNL     1       0.787   9.126  19.297  0.00  0.00    +0.000 C 
BRANCH  21  22
ATOM     22  S   UNL     1       1.078   9.295  21.096  0.00  0.00    +0.000 S 
BRANCH  22  23
ATOM     23  C   UNL     1      -0.221  10.434  21.554  0.00  0.00    +0.000 A 
ATOM     24  C   UNL     1      -0.674  11.406  20.668  0.00  0.00    +0.000 A 
ATOM     25  C   UNL     1      -1.590  12.361  21.100  0.00  0.00    +0.000 A 
ATOM     26  C   UNL     1      -2.070  12.330  22.406  0.00  0.00    +0.000 A 
ATOM     27  C   UNL     1      -1.665  11.320  23.276  0.00  0.00    +0.000 A 
ATOM     28  C   UNL     1      -0.742  10.362  22.850  0.00  0.00    +0.000 A 
ENDBRANCH  22  23
ENDBRANCH  21  22
ENDBRANCH  17  21
ENDBRANCH   4  17
TORSDOF 9
ENDMDL
MODEL 9
REMARK VINA RESULT:      -7.2      0.997      1.626
REMARK  Name = 
REMARK  13 active torsions:
REMARK  status: ('A' for Active; 'I' for Inactive)
REMARK    1  A    between atoms: C_1  and  O_2
REMARK    2  A    between atoms: O_2  and  C_3
REMARK    3  A    between atoms: C_4  and  C_5
REMARK    4  A    between atoms: C_5  and  O_7
REMARK    5  A    between atoms: C_9  and  C_10
REMARK    6  A    between atoms: C_10  and  C_11
REMARK    7  A    between atoms: C_11  and  S_12
REMARK    8  A    between atoms: S_12  and  C_13
REMARK    9  A    between atoms: N_19  and  O_20
REMARK   10  A    between atoms: C_22  and  C_23
REMARK   11  A    between atoms: C_23  and  C_24
REMARK   12  A    between atoms: C_23  and  C_25
REMARK   13  A    between atoms: C_23  and  C_26
REMARK                            x       y       z     vdW  Elec       q    Type
REMARK                         _______ _______ _______ _____ _____    ______ ____
ROOT
ATOM      1  C   UNL     1       3.615   4.476  18.072  0.00  0.00    +0.000 A 
ATOM      2  C   UNL     1       2.261   4.727  18.391  0.00  0.00    +0.000 A 
ATOM      3  C   UNL     1       1.730   6.013  18.296  0.00  0.00    +0.000 A 
ATOM      4  C   UNL     1       2.570   7.099  18.109  0.00  0.00    +0.000 A 
ATOM      5  C   UNL     1       3.939   6.855  17.874  0.00  0.00    +0.000 A 
ATOM      6  C   UNL     1       4.497   5.553  17.792  0.00  0.00    +0.000 A 
ENDROOT
BRANCH   6   7
ATOM      7  C   UNL     1       6.006   5.428  17.457  0.00  0.00    +0.000 C 
ATOM      8  C   UNL     1       6.194   4.363  16.357  0.00  0.00    +0.000 C 
ATOM      9  C   UNL     1       6.665   6.743  16.982  0.00  0.00    +0.000 C 
ATOM     10  C   UNL     1       6.852   4.984  18.687  0.00  0.00    +0.000 C 
ENDBRANCH   6   7
BRANCH   1  12
ATOM     11  C   UNL     1       4.342   2.718  19.484  0.00  0.00    +0.000 C 
ATOM     12  O   UNL     1       4.124   3.205  18.147  0.00  0.00    +0.000 OA
ENDBRANCH   1  12
BRANCH   2  13
ATOM     13  C   UNL     1       1.333   3.701  18.926  0.00  0.00    +0.000 C 
ATOM     14  O   UNL     1       0.889   3.733  20.059  0.00  0.00    +0.000 OA
BRANCH  13  15
ATOM     15  O   UNL     1       1.111   2.686  18.064  0.00  0.00    +0.000 OA
ATOM     16  H   UNL     1       1.896   2.435  17.535  0.00  0.00    +0.000 HD
ENDBRANCH  13  15
ENDBRANCH   2  13
BRANCH   4  17
ATOM     17  C   UNL     1       2.074   8.524  18.166  0.00  0.00    +0.000 C 
ATOM     18  N   UNL     1       2.636   9.357  17.330  0.00  0.00    +0.000 NA
BRANCH  18  19
ATOM     19  O   UNL     1       2.093  10.642  17.401  0.00  0.00    +0.000 OA
ATOM     20  H   UNL     1       1.326  10.513  17.994  0.00  0.00    +0.000 HD
ENDBRANCH  18  19
BRANCH  17  21
ATOM     21  C   UNL     1       0.937   8.946  19.111  0.00  0.00    +0.000 C 
BRANCH  21  22
ATOM     22  S   UNL     1       1.217   8.749  20.910  0.00  0.00    +0.000 S 
BRANCH  22  23
ATOM     23  C   UNL     1       0.257  10.107  21.563  0.00  0.00    +0.000 A 
ATOM     24  C   UNL     1       0.404  11.399  21.069  0.00  0.00    +0.000 A 
ATOM     25  C   UNL     1      -0.260  12.455  21.688  0.00  0.00    +0.000 A 
ATOM     26  C   UNL     1      -1.087  12.216  22.783  0.00  0.00    +0.000 A 
ATOM     27  C   UNL     1      -1.284  10.915  23.240  0.00  0.00    +0.000 A 
ATOM     28  C   UNL     1      -0.617   9.852  22.626  0.00  0.00    +0.000 A 
ENDBRANCH  22  23
ENDBRANCH  21  22
ENDBRANCH  17  21
ENDBRANCH   4  17
TORSDOF 9
ENDMDL
