MODEL 1
REMARK VINA RESULT:      -7.2      0.000      0.000
REMARK  Name = 
REMARK  9 active torsions:
REMARK  status: ('A' for Active; 'I' for Inactive)
REMARK    1  A    between atoms: C_1  and  C_2
REMARK    2  A    between atoms: C_2  and  C_3
REMARK    3  A    between atoms: C_2  and  C_4
REMARK    4  A    between atoms: C_2  and  C_5
REMARK    5  A    between atoms: C_5  and  O_6
REMARK    6  A    between atoms: C_5  and  C_7
REMARK    7  A    between atoms: C_7  and  C_8
REMARK    8  A    between atoms: C_7  and  N_16
REMARK    9  A    between atoms: C_8  and  C_9
REMARK                            x       y       z     vdW  Elec       q    Type
REMARK                         _______ _______ _______ _____ _____    ______ ____
ROOT
ATOM      1  C   UNL     1       4.161   5.419  17.187  0.00  0.00    +0.000 C 
ENDROOT
BRANCH   1   2
ATOM      2  N   UNL     1       5.378   5.147  16.402  0.00  0.00    +0.000 N 
ATOM      3  C   UNL     1       6.576   5.794  16.413  0.00  0.00    +0.000 A 
ATOM      4  N   UNL     1       7.346   5.317  15.458  0.00  0.00    +0.000 NA
ATOM      5  C   UNL     1       6.578   4.337  14.904  0.00  0.00    +0.000 A 
ATOM      6  N   UNL     1       5.370   4.183  15.451  0.00  0.00    +0.000 NA
ENDBRANCH   1   2
BRANCH   1   7
ATOM      7  C   UNL     1       3.962   4.354  18.316  0.00  0.00    +0.000 C 
BRANCH   7   9
ATOM      8  C   UNL     1       2.850   2.126  17.880  0.00  0.00    +0.000 C 
ATOM      9  C   UNL     1       2.625   3.549  18.464  0.00  0.00    +0.000 C 
ATOM     10  C   UNL     1       1.464   4.187  17.679  0.00  0.00    +0.000 C 
ATOM     11  C   UNL     1       2.206   3.347  19.927  0.00  0.00    +0.000 C 
ENDBRANCH   7   9
BRANCH   7  12
ATOM     12  O   UNL     1       5.012   3.365  18.156  0.00  0.00    +0.000 OA
ATOM     13  H   UNL     1       5.801   3.641  18.664  0.00  0.00    +0.000 HD
ENDBRANCH   7  12
ENDBRANCH   1   7
BRANCH   1  14
ATOM     14  C   UNL     1       4.078   6.932  17.521  0.00  0.00    +0.000 C 
BRANCH  14  15
ATOM     15  C   UNL     1       2.897   7.545  18.260  0.00  0.00    +0.000 A 
ATOM     16  C   UNL     1       2.573   7.169  19.573  0.00  0.00    +0.000 A 
ATOM     17  C   UNL     1       1.635   7.881  20.328  0.00  0.00    +0.000 A 
ATOM     18  C   UNL     1       1.023   9.005  19.790  0.00  0.00    +0.000 A 
ATOM     19 CL   UNL     1      -0.044   9.945  20.757  0.00  0.00    +0.000 Cl
ATOM     20  C   UNL     1       1.315   9.396  18.487  0.00  0.00    +0.000 A 
ATOM     21  C   UNL     1       2.242   8.670  17.726  0.00  0.00    +0.000 A 
ENDBRANCH  14  15
ENDBRANCH   1  14
TORSDOF 6
ENDMDL
MODEL 2
REMARK VINA RESULT:      -7.2      3.077      4.623
REMARK  Name = 
REMARK  9 active torsions:
REMARK  status: ('A' for Active; 'I' for Inactive)
REMARK    1  A    between atoms: C_1  and  C_2
REMARK    2  A    between atoms: C_2  and  C_3
REMARK    3  A    between atoms: C_2  and  C_4
REMARK    4  A    between atoms: C_2  and  C_5
REMARK    5  A    between atoms: C_5  and  O_6
REMARK    6  A    between atoms: C_5  and  C_7
REMARK    7  A    between atoms: C_7  and  C_8
REMARK    8  A    between atoms: C_7  and  N_16
REMARK    9  A    between atoms: C_8  and  C_9
REMARK                            x       y       z     vdW  Elec       q    Type
REMARK                         _______ _______ _______ _____ _____    ______ ____
ROOT
ATOM      1  C   UNL     1       6.131   4.207  15.915  0.00  0.00    +0.000 C 
ENDROOT
BRANCH   1   2
ATOM      2  N   UNL     1       6.587   4.397  14.527  0.00  0.00    +0.000 N 
ATOM      3  C   UNL     1       6.230   3.721  13.400  0.00  0.00    +0.000 A 
ATOM      4  N   UNL     1       6.976   4.116  12.391  0.00  0.00    +0.000 NA
ATOM      5  C   UNL     1       7.763   5.079  12.949  0.00  0.00    +0.000 A 
ATOM      6  N   UNL     1       7.558   5.299  14.250  0.00  0.00    +0.000 NA
ENDBRANCH   1   2
BRANCH   1   7
ATOM      7  C   UNL     1       7.099   4.898  16.932  0.00  0.00    +0.000 C 
BRANCH   7   9
ATOM      8  C   UNL     1       7.853   6.898  18.282  0.00  0.00    +0.000 C 
ATOM      9  C   UNL     1       6.615   6.045  17.883  0.00  0.00    +0.000 C 
ATOM     10  C   UNL     1       5.992   5.507  19.185  0.00  0.00    +0.000 C 
ATOM     11  C   UNL     1       5.633   7.012  17.207  0.00  0.00    +0.000 C 
ENDBRANCH   7   9
BRANCH   7  12
ATOM     12  O   UNL     1       7.624   3.855  17.794  0.00  0.00    +0.000 OA
ATOM     13  H   UNL     1       7.782   4.219  18.688  0.00  0.00    +0.000 HD
ENDBRANCH   7  12
ENDBRANCH   1   7
BRANCH   1  14
ATOM     14  C   UNL     1       4.602   4.453  16.006  0.00  0.00    +0.000 C 
BRANCH  14  15
ATOM     15  C   UNL     1       3.736   3.847  17.101  0.00  0.00    +0.000 A 
ATOM     16  C   UNL     1       4.074   2.632  17.720  0.00  0.00    +0.000 A 
ATOM     17  C   UNL     1       3.410   2.186  18.868  0.00  0.00    +0.000 A 
ATOM     18  C   UNL     1       2.413   2.966  19.436  0.00  0.00    +0.000 A 
ATOM     19 CL   UNL     1       1.676   2.473  20.910  0.00  0.00    +0.000 Cl
ATOM     20  C   UNL     1       2.048   4.169  18.840  0.00  0.00    +0.000 A 
ATOM     21  C   UNL     1       2.702   4.604  17.680  0.00  0.00    +0.000 A 
ENDBRANCH  14  15
ENDBRANCH   1  14
TORSDOF 6
ENDMDL
MODEL 3
REMARK VINA RESULT:      -7.0      2.981      4.649
REMARK  Name = 
REMARK  9 active torsions:
REMARK  status: ('A' for Active; 'I' for Inactive)
REMARK    1  A    between atoms: C_1  and  C_2
REMARK    2  A    between atoms: C_2  and  C_3
REMARK    3  A    between atoms: C_2  and  C_4
REMARK    4  A    between atoms: C_2  and  C_5
REMARK    5  A    between atoms: C_5  and  O_6
REMARK    6  A    between atoms: C_5  and  C_7
REMARK    7  A    between atoms: C_7  and  C_8
REMARK    8  A    between atoms: C_7  and  N_16
REMARK    9  A    between atoms: C_8  and  C_9
REMARK                            x       y       z     vdW  Elec       q    Type
REMARK                         _______ _______ _______ _____ _____    ______ ____
ROOT
ATOM      1  C   UNL     1       6.205   4.176  15.933  0.00  0.00    +0.000 C 
ENDROOT
BRANCH   1   2
ATOM      2  N   UNL     1       6.624   4.390  14.536  0.00  0.00    +0.000 N 
ATOM      3  C   UNL     1       6.226   3.742  13.406  0.00  0.00    +0.000 A 
ATOM      4  N   UNL     1       6.948   4.150  12.385  0.00  0.00    +0.000 NA
ATOM      5  C   UNL     1       7.762   5.092  12.939  0.00  0.00    +0.000 A 
ATOM      6  N   UNL     1       7.597   5.287  14.249  0.00  0.00    +0.000 NA
ENDBRANCH   1   2
BRANCH   1   7
ATOM      7  C   UNL     1       7.158   4.913  16.932  0.00  0.00    +0.000 C 
BRANCH   7   9
ATOM      8  C   UNL     1       7.893   7.018  18.123  0.00  0.00    +0.000 C 
ATOM      9  C   UNL     1       6.666   6.116  17.807  0.00  0.00    +0.000 C 
ATOM     10  C   UNL     1       6.074   5.661  19.154  0.00  0.00    +0.000 C 
ATOM     11  C   UNL     1       5.656   7.013  17.080  0.00  0.00    +0.000 C 
ENDBRANCH   7   9
BRANCH   7  12
ATOM     12  O   UNL     1       7.652   3.914  17.862  0.00  0.00    +0.000 OA
ATOM     13  H   UNL     1       8.481   4.232  18.273  0.00  0.00    +0.000 HD
ENDBRANCH   7  12
ENDBRANCH   1   7
BRANCH   1  14
ATOM     14  C   UNL     1       4.668   4.347  16.054  0.00  0.00    +0.000 C 
BRANCH  14  15
ATOM     15  C   UNL     1       3.903   4.013  17.327  0.00  0.00    +0.000 A 
ATOM     16  C   UNL     1       2.850   4.820  17.788  0.00  0.00    +0.000 A 
ATOM     17  C   UNL     1       2.008   4.403  18.824  0.00  0.00    +0.000 A 
ATOM     18  C   UNL     1       2.187   3.152  19.400  0.00  0.00    +0.000 A 
ATOM     19 CL   UNL     1       1.083   2.593  20.593  0.00  0.00    +0.000 Cl
ATOM     20  C   UNL     1       3.228   2.335  18.972  0.00  0.00    +0.000 A 
ATOM     21  C   UNL     1       4.082   2.763  17.947  0.00  0.00    +0.000 A 
ENDBRANCH  14  15
ENDBRANCH   1  14
TORSDOF 6
ENDMDL
MODEL 4
REMARK VINA RESULT:      -6.9      1.190      1.667
REMARK  Name = 
REMARK  9 active torsions:
REMARK  status: ('A' for Active; 'I' for Inactive)
REMARK    1  A    between atoms: C_1  and  C_2
REMARK    2  A    between atoms: C_2  and  C_3
REMARK    3  A    between atoms: C_2  and  C_4
REMARK    4  A    between atoms: C_2  and  C_5
REMARK    5  A    between atoms: C_5  and  O_6
REMARK    6  A    between atoms: C_5  and  C_7
REMARK    7  A    between atoms: C_7  and  C_8
REMARK    8  A    between atoms: C_7  and  N_16
REMARK    9  A    between atoms: C_8  and  C_9
REMARK                            x       y       z     vdW  Elec       q    Type
REMARK                         _______ _______ _______ _____ _____    ______ ____
ROOT
ATOM      1  C   UNL     1       4.181   5.105  18.218  0.00  0.00    +0.000 C 
ENDROOT
BRANCH   1   2
ATOM      2  N   UNL     1       5.571   5.036  17.733  0.00  0.00    +0.000 N 
ATOM      3  C   UNL     1       6.073   5.330  16.502  0.00  0.00    +0.000 A 
ATOM      4  N   UNL     1       7.345   4.999  16.451  0.00  0.00    +0.000 NA
ATOM      5  C   UNL     1       7.593   4.534  17.708  0.00  0.00    +0.000 A 
ATOM      6  N   UNL     1       6.545   4.546  18.536  0.00  0.00    +0.000 NA
ENDBRANCH   1   2
BRANCH   1   7
ATOM      7  C   UNL     1       3.668   3.700  18.678  0.00  0.00    +0.000 C 
BRANCH   7   9
ATOM      8  C   UNL     1       1.401   4.168  17.661  0.00  0.00    +0.000 C 
ATOM      9  C   UNL     1       2.139   3.371  18.774  0.00  0.00    +0.000 C 
ATOM     10  C   UNL     1       1.529   3.797  20.122  0.00  0.00    +0.000 C 
ATOM     11  C   UNL     1       1.826   1.891  18.514  0.00  0.00    +0.000 C 
ENDBRANCH   7   9
BRANCH   7  12
ATOM     12  O   UNL     1       4.234   2.723  17.767  0.00  0.00    +0.000 OA
ATOM     13  H   UNL     1       3.977   2.944  16.849  0.00  0.00    +0.000 HD
ENDBRANCH   7  12
ENDBRANCH   1   7
BRANCH   1  14
ATOM     14  C   UNL     1       4.007   6.339  19.143  0.00  0.00    +0.000 C 
BRANCH  14  15
ATOM     15  C   UNL     1       2.838   7.305  19.009  0.00  0.00    +0.000 A 
ATOM     16  C   UNL     1       2.023   7.633  20.105  0.00  0.00    +0.000 A 
ATOM     17  C   UNL     1       1.096   8.678  20.041  0.00  0.00    +0.000 A 
ATOM     18  C   UNL     1       0.989   9.437  18.884  0.00  0.00    +0.000 A 
ATOM     19 CL   UNL     1      -0.068  10.793  18.844  0.00  0.00    +0.000 Cl
ATOM     20  C   UNL     1       1.775   9.131  17.778  0.00  0.00    +0.000 A 
ATOM     21  C   UNL     1       2.690   8.071  17.838  0.00  0.00    +0.000 A 
ENDBRANCH  14  15
ENDBRANCH   1  14
TORSDOF 6
ENDMDL
MODEL 5
REMARK VINA RESULT:      -6.9      0.699      1.327
REMARK  Name = 
REMARK  9 active torsions:
REMARK  status: ('A' for Active; 'I' for Inactive)
REMARK    1  A    between atoms: C_1  and  C_2
REMARK    2  A    between atoms: C_2  and  C_3
REMARK    3  A    between atoms: C_2  and  C_4
REMARK    4  A    between atoms: C_2  and  C_5
REMARK    5  A    between atoms: C_5  and  O_6
REMARK    6  A    between atoms: C_5  and  C_7
REMARK    7  A    between atoms: C_7  and  C_8
REMARK    8  A    between atoms: C_7  and  N_16
REMARK    9  A    between atoms: C_8  and  C_9
REMARK                            x       y       z     vdW  Elec       q    Type
REMARK                         _______ _______ _______ _____ _____    ______ ____
ROOT
ATOM      1  C   UNL     1       4.118   5.227  17.426  0.00  0.00    +0.000 C 
ENDROOT
BRANCH   1   2
ATOM      2  N   UNL     1       5.209   4.892  16.494  0.00  0.00    +0.000 N 
ATOM      3  C   UNL     1       5.184   4.106  15.382  0.00  0.00    +0.000 A 
ATOM      4  N   UNL     1       6.406   3.959  14.917  0.00  0.00    +0.000 NA
ATOM      5  C   UNL     1       7.154   4.716  15.768  0.00  0.00    +0.000 A 
ATOM      6  N   UNL     1       6.470   5.318  16.744  0.00  0.00    +0.000 NA
ENDBRANCH   1   2
BRANCH   1   7
ATOM      7  C   UNL     1       4.108   4.265  18.660  0.00  0.00    +0.000 C 
BRANCH   7   9
ATOM      8  C   UNL     1       1.739   3.621  18.052  0.00  0.00    +0.000 C 
ATOM      9  C   UNL     1       3.000   3.171  18.844  0.00  0.00    +0.000 C 
ATOM     10  C   UNL     1       2.579   3.001  20.316  0.00  0.00    +0.000 C 
ATOM     11  C   UNL     1       3.401   1.807  18.264  0.00  0.00    +0.000 C 
ENDBRANCH   7   9
BRANCH   7  12
ATOM     12  O   UNL     1       5.375   3.558  18.658  0.00  0.00    +0.000 OA
ATOM     13  H   UNL     1       5.462   3.041  19.483  0.00  0.00    +0.000 HD
ENDBRANCH   7  12
ENDBRANCH   1   7
BRANCH   1  14
ATOM     14  C   UNL     1       4.060   6.764  17.637  0.00  0.00    +0.000 C 
BRANCH  14  15
ATOM     15  C   UNL     1       2.886   7.454  18.317  0.00  0.00    +0.000 A 
ATOM     16  C   UNL     1       2.502   7.134  19.630  0.00  0.00    +0.000 A 
ATOM     17  C   UNL     1       1.575   7.912  20.331  0.00  0.00    +0.000 A 
ATOM     18  C   UNL     1       1.036   9.047  19.740  0.00  0.00    +0.000 A 
ATOM     19 CL   UNL     1      -0.015  10.066  20.642  0.00  0.00    +0.000 Cl
ATOM     20  C   UNL     1       1.389   9.384  18.437  0.00  0.00    +0.000 A 
ATOM     21  C   UNL     1       2.304   8.592  17.729  0.00  0.00    +0.000 A 
ENDBRANCH  14  15
ENDBRANCH   1  14
TORSDOF 6
ENDMDL
MODEL 6
REMARK VINA RESULT:      -6.9      1.172      1.582
REMARK  Name = 
REMARK  9 active torsions:
REMARK  status: ('A' for Active; 'I' for Inactive)
REMARK    1  A    between atoms: C_1  and  C_2
REMARK    2  A    between atoms: C_2  and  C_3
REMARK    3  A    between atoms: C_2  and  C_4
REMARK    4  A    between atoms: C_2  and  C_5
REMARK    5  A    between atoms: C_5  and  O_6
REMARK    6  A    between atoms: C_5  and  C_7
REMARK    7  A    between atoms: C_7  and  C_8
REMARK    8  A    between atoms: C_7  and  N_16
REMARK    9  A    between atoms: C_8  and  C_9
REMARK                            x       y       z     vdW  Elec       q    Type
REMARK                         _______ _______ _______ _____ _____    ______ ____
ROOT
ATOM      1  C   UNL     1       4.153   4.879  18.125  0.00  0.00    +0.000 C 
ENDROOT
BRANCH   1   2
ATOM      2  N   UNL     1       5.505   4.649  17.584  0.00  0.00    +0.000 N 
ATOM      3  C   UNL     1       6.716   4.815  18.185  0.00  0.00    +0.000 A 
ATOM      4  N   UNL     1       7.676   4.630  17.304  0.00  0.00    +0.000 NA
ATOM      5  C   UNL     1       6.994   4.311  16.168  0.00  0.00    +0.000 A 
ATOM      6  N   UNL     1       5.665   4.295  16.287  0.00  0.00    +0.000 NA
ENDBRANCH   1   2
BRANCH   1   7
ATOM      7  C   UNL     1       3.552   3.568  18.731  0.00  0.00    +0.000 C 
BRANCH   7   9
ATOM      8  C   UNL     1       1.482   3.835  20.158  0.00  0.00    +0.000 C 
ATOM      9  C   UNL     1       2.005   3.319  18.788  0.00  0.00    +0.000 C 
ATOM     10  C   UNL     1       1.646   1.823  18.696  0.00  0.00    +0.000 C 
ATOM     11  C   UNL     1       1.232   4.099  17.716  0.00  0.00    +0.000 C 
ENDBRANCH   7   9
BRANCH   7  12
ATOM     12  O   UNL     1       4.111   2.458  17.981  0.00  0.00    +0.000 OA
ATOM     13  H   UNL     1       4.202   2.712  17.041  0.00  0.00    +0.000 HD
ENDBRANCH   7  12
ENDBRANCH   1   7
BRANCH   1  14
ATOM     14  C   UNL     1       4.132   6.197  18.944  0.00  0.00    +0.000 C 
BRANCH  14  15
ATOM     15  C   UNL     1       2.968   7.176  18.893  0.00  0.00    +0.000 A 
ATOM     16  C   UNL     1       2.176   7.441  20.022  0.00  0.00    +0.000 A 
ATOM     17  C   UNL     1       1.254   8.493  20.040  0.00  0.00    +0.000 A 
ATOM     18  C   UNL     1       1.130   9.321  18.933  0.00  0.00    +0.000 A 
ATOM     19 CL   UNL     1       0.081  10.683  18.996  0.00  0.00    +0.000 Cl
ATOM     20  C   UNL     1       1.893   9.078  17.795  0.00  0.00    +0.000 A 
ATOM     21  C   UNL     1       2.802   8.012  17.774  0.00  0.00    +0.000 A 
ENDBRANCH  14  15
ENDBRANCH   1  14
TORSDOF 6
ENDMDL
MODEL 7
REMARK VINA RESULT:      -6.8      0.796      1.121
REMARK  Name = 
REMARK  9 active torsions:
REMARK  status: ('A' for Active; 'I' for Inactive)
REMARK    1  A    between atoms: C_1  and  C_2
REMARK    2  A    between atoms: C_2  and  C_3
REMARK    3  A    between atoms: C_2  and  C_4
REMARK    4  A    between atoms: C_2  and  C_5
REMARK    5  A    between atoms: C_5  and  O_6
REMARK    6  A    between atoms: C_5  and  C_7
REMARK    7  A    between atoms: C_7  and  C_8
REMARK    8  A    between atoms: C_7  and  N_16
REMARK    9  A    between atoms: C_8  and  C_9
REMARK                            x       y       z     vdW  Elec       q    Type
REMARK                         _______ _______ _______ _____ _____    ______ ____
ROOT
ATOM      1  C   UNL     1       3.872   5.665  17.657  0.00  0.00    +0.000 C 
ENDROOT
BRANCH   1   2
ATOM      2  N   UNL     1       5.206   5.323  17.133  0.00  0.00    +0.000 N 
ATOM      3  C   UNL     1       6.361   6.042  17.176  0.00  0.00    +0.000 A 
ATOM      4  N   UNL     1       7.289   5.433  16.468  0.00  0.00    +0.000 NA
ATOM      5  C   UNL     1       6.656   4.307  16.036  0.00  0.00    +0.000 A 
ATOM      6  N   UNL     1       5.384   4.184  16.424  0.00  0.00    +0.000 NA
ENDBRANCH   1   2
BRANCH   1   7
ATOM      7  C   UNL     1       3.498   4.774  18.888  0.00  0.00    +0.000 C 
BRANCH   7   9
ATOM      8  C   UNL     1       1.369   4.229  17.638  0.00  0.00    +0.000 C 
ATOM      9  C   UNL     1       2.209   3.882  18.900  0.00  0.00    +0.000 C 
ATOM     10  C   UNL     1       1.320   4.150  20.129  0.00  0.00    +0.000 C 
ATOM     11  C   UNL     1       2.517   2.382  18.807  0.00  0.00    +0.000 C 
ENDBRANCH   7   9
BRANCH   7  12
ATOM     12  O   UNL     1       4.613   3.874  19.114  0.00  0.00    +0.000 OA
ATOM     13  H   UNL     1       4.337   2.956  18.917  0.00  0.00    +0.000 HD
ENDBRANCH   7  12
ENDBRANCH   1   7
BRANCH   1  14
ATOM     14  C   UNL     1       3.717   7.207  17.737  0.00  0.00    +0.000 C 
BRANCH  14  15
ATOM     15  C   UNL     1       2.527   7.879  18.407  0.00  0.00    +0.000 A 
ATOM     16  C   UNL     1       2.218   7.653  19.758  0.00  0.00    +0.000 A 
ATOM     17  C   UNL     1       1.268   8.429  20.431  0.00  0.00    +0.000 A 
ATOM     18  C   UNL     1       0.631   9.470  19.769  0.00  0.00    +0.000 A 
ATOM     19 CL   UNL     1      -0.450  10.496  20.627  0.00  0.00    +0.000 Cl
ATOM     20  C   UNL     1       0.908   9.711  18.428  0.00  0.00    +0.000 A 
ATOM     21  C   UNL     1       1.846   8.920  17.750  0.00  0.00    +0.000 A 
ENDBRANCH  14  15
ENDBRANCH   1  14
TORSDOF 6
ENDMDL
MODEL 8
REMARK VINA RESULT:      -6.7      2.148      4.109
REMARK  Name = 
REMARK  9 active torsions:
REMARK  status: ('A' for Active; 'I' for Inactive)
REMARK    1  A    between atoms: C_1  and  C_2
REMARK    2  A    between atoms: C_2  and  C_3
REMARK    3  A    between atoms: C_2  and  C_4
REMARK    4  A    between atoms: C_2  and  C_5
REMARK    5  A    between atoms: C_5  and  O_6
REMARK    6  A    between atoms: C_5  and  C_7
REMARK    7  A    between atoms: C_7  and  C_8
REMARK    8  A    between atoms: C_7  and  N_16
REMARK    9  A    between atoms: C_8  and  C_9
REMARK                            x       y       z     vdW  Elec       q    Type
REMARK                         _______ _______ _______ _____ _____    ______ ____
ROOT
ATOM      1  C   UNL     1       3.728   4.969  18.609  0.00  0.00    +0.000 C 
ENDROOT
BRANCH   1   2
ATOM      2  N   UNL     1       2.785   3.985  19.170  0.00  0.00    +0.000 N 
ATOM      3  C   UNL     1       1.667   3.445  18.612  0.00  0.00    +0.000 A 
ATOM      4  N   UNL     1       1.036   2.712  19.504  0.00  0.00    +0.000 NA
ATOM      5  C   UNL     1       1.839   2.804  20.601  0.00  0.00    +0.000 A 
ATOM      6  N   UNL     1       2.929   3.560  20.448  0.00  0.00    +0.000 NA
ENDBRANCH   1   2
BRANCH   1   7
ATOM      7  C   UNL     1       4.941   4.264  17.917  0.00  0.00    +0.000 C 
BRANCH   7   9
ATOM      8  C   UNL     1       5.780   5.022  15.655  0.00  0.00    +0.000 C 
ATOM      9  C   UNL     1       6.062   5.079  17.184  0.00  0.00    +0.000 C 
ATOM     10  C   UNL     1       7.465   4.488  17.412  0.00  0.00    +0.000 C 
ATOM     11  C   UNL     1       6.064   6.567  17.560  0.00  0.00    +0.000 C 
ENDBRANCH   7   9
BRANCH   7  12
ATOM     12  O   UNL     1       5.615   3.480  18.936  0.00  0.00    +0.000 OA
ATOM     13  H   UNL     1       5.164   2.618  19.036  0.00  0.00    +0.000 HD
ENDBRANCH   7  12
ENDBRANCH   1   7
BRANCH   1  14
ATOM     14  C   UNL     1       2.946   6.083  17.864  0.00  0.00    +0.000 C 
BRANCH  14  15
ATOM     15  C   UNL     1       2.417   7.325  18.568  0.00  0.00    +0.000 A 
ATOM     16  C   UNL     1       2.010   8.461  17.850  0.00  0.00    +0.000 A 
ATOM     17  C   UNL     1       1.324   9.511  18.470  0.00  0.00    +0.000 A 
ATOM     18  C   UNL     1       1.004   9.427  19.818  0.00  0.00    +0.000 A 
ATOM     19 CL   UNL     1       0.061  10.664  20.553  0.00  0.00    +0.000 Cl
ATOM     20  C   UNL     1       1.403   8.319  20.558  0.00  0.00    +0.000 A 
ATOM     21  C   UNL     1       2.107   7.277  19.939  0.00  0.00    +0.000 A 
ENDBRANCH  14  15
ENDBRANCH   1  14
TORSDOF 6
ENDMDL
MODEL 9
REMARK VINA RESULT:      -6.7      1.305      2.290
REMARK  Name = 
REMARK  9 active torsions:
REMARK  status: ('A' for Active; 'I' for Inactive)
REMARK    1  A    between atoms: C_1  and  C_2
REMARK    2  A    between atoms: C_2  and  C_3
REMARK    3  A    between atoms: C_2  and  C_4
REMARK    4  A    between atoms: C_2  and  C_5
REMARK    5  A    between atoms: C_5  and  O_6
REMARK    6  A    between atoms: C_5  and  C_7
REMARK    7  A    between atoms: C_7  and  C_8
REMARK    8  A    between atoms: C_7  and  N_16
REMARK    9  A    between atoms: C_8  and  C_9
REMARK                            x       y       z     vdW  Elec       q    Type
REMARK                         _______ _______ _______ _____ _____    ______ ____
ROOT
ATOM      1  C   UNL     1       3.936   4.599  17.866  0.00  0.00    +0.000 C 
ENDROOT
BRANCH   1   2
ATOM      2  N   UNL     1       4.972   5.466  17.277  0.00  0.00    +0.000 N 
ATOM      3  C   UNL     1       5.354   5.594  15.976  0.00  0.00    +0.000 A 
ATOM      4  N   UNL     1       6.410   6.375  15.899  0.00  0.00    +0.000 NA
ATOM      5  C   UNL     1       6.620   6.738  17.196  0.00  0.00    +0.000 A 
ATOM      6  N   UNL     1       5.762   6.219  18.078  0.00  0.00    +0.000 NA
ENDBRANCH   1   2
BRANCH   1   7
ATOM      7  C   UNL     1       4.446   3.913  19.177  0.00  0.00    +0.000 C 
BRANCH   7   9
ATOM      8  C   UNL     1       2.654   3.084  20.756  0.00  0.00    +0.000 C 
ATOM      9  C   UNL     1       3.758   2.631  19.759  0.00  0.00    +0.000 C 
ATOM     10  C   UNL     1       4.741   1.739  20.540  0.00  0.00    +0.000 C 
ATOM     11  C   UNL     1       3.045   1.794  18.688  0.00  0.00    +0.000 C 
ENDBRANCH   7   9
BRANCH   7  12
ATOM     12  O   UNL     1       5.837   3.561  18.958  0.00  0.00    +0.000 OA
ATOM     13  H   UNL     1       6.155   3.012  19.703  0.00  0.00    +0.000 HD
ENDBRANCH   7  12
ENDBRANCH   1   7
BRANCH   1  14
ATOM     14  C   UNL     1       2.567   5.329  17.851  0.00  0.00    +0.000 C 
BRANCH  14  15
ATOM     15  C   UNL     1       2.340   6.660  18.554  0.00  0.00    +0.000 A 
ATOM     16  C   UNL     1       2.163   7.853  17.835  0.00  0.00    +0.000 A 
ATOM     17  C   UNL     1       1.738   9.030  18.462  0.00  0.00    +0.000 A 
ATOM     18  C   UNL     1       1.451   9.024  19.820  0.00  0.00    +0.000 A 
ATOM     19 CL   UNL     1       0.819  10.438  20.567  0.00  0.00    +0.000 Cl
ATOM     20  C   UNL     1       1.627   7.860  20.561  0.00  0.00    +0.000 A 
ATOM     21  C   UNL     1       2.071   6.688  19.935  0.00  0.00    +0.000 A 
ENDBRANCH  14  15
ENDBRANCH   1  14
TORSDOF 6
ENDMDL
