MODEL 1
REMARK VINA RESULT:      -5.8      0.000      0.000
REMARK  Name = 
REMARK  12 active torsions:
REMARK  status: ('A' for Active; 'I' for Inactive)
REMARK    1  A    between atoms: C_1  and  O_2
REMARK    2  A    between atoms: O_2  and  C_3
REMARK    3  A    between atoms: C_6  and  C_7
REMARK    4  A    between atoms: C_14  and  N_15
REMARK    5  A    between atoms: N_18  and  C_19
REMARK    6  A    between atoms: C_19  and  C_20
REMARK    7  A    between atoms: C_20  and  N_21
REMARK    8  A    between atoms: N_21  and  C_22
REMARK    9  A    between atoms: N_21  and  C_23
REMARK   10  A    between atoms: C_26  and  O_27
REMARK   11  A    between atoms: O_27  and  C_28
REMARK   12  A    between atoms: C_28  and  C_29
REMARK                            x       y       z     vdW  Elec       q    Type
REMARK                         _______ _______ _______ _____ _____    ______ ____
ROOT
ATOM      1  C   UNL     1      -1.462  12.745  22.824  0.00  0.00    +0.000 C 
ATOM      2  C   UNL     1      -2.972  12.745  23.410  0.00  0.00    +0.000 C 
ATOM      3  C   UNL     1      -3.940  13.937  23.569  0.00  0.00    +0.000 A 
ATOM      4  C   UNL     1      -3.473  15.204  23.975  0.00  0.00    +0.000 A 
ATOM      5  C   UNL     1      -4.307  16.305  24.224  0.00  0.00    +0.000 A 
ATOM      6  C   UNL     1      -5.680  16.175  24.129  0.00  0.00    +0.000 A 
ATOM      7  C   UNL     1      -6.208  14.937  23.791  0.00  0.00    +0.000 A 
ATOM      8  C   UNL     1      -5.352  13.839  23.526  0.00  0.00    +0.000 A 
ATOM      9  N   UNL     1      -2.100  15.443  23.961  0.00  0.00    +0.000 N 
ATOM     10  C   UNL     1      -1.545  15.219  22.720  0.00  0.00    +0.000 C 
ATOM     11  O   UNL     1      -1.988  15.730  21.687  0.00  0.00    +0.000 OA
ATOM     12  C   UNL     1      -0.597  14.057  22.689  0.00  0.00    +0.000 C 
ENDROOT
BRANCH   1  16
ATOM     13  C   UNL     1      -0.525  10.461  19.264  0.00  0.00    +0.000 A 
ATOM     14  C   UNL     1      -1.509  11.448  19.212  0.00  0.00    +0.000 A 
ATOM     15  C   UNL     1      -1.865  12.163  20.359  0.00  0.00    +0.000 A 
ATOM     16  C   UNL     1      -1.266  11.865  21.587  0.00  0.00    +0.000 A 
ATOM     17  C   UNL     1      -0.343  10.800  21.645  0.00  0.00    +0.000 A 
ATOM     18  C   UNL     1       0.028  10.107  20.492  0.00  0.00    +0.000 A 
BRANCH  13  20
ATOM     19  C   UNL     1       1.183   9.465  17.992  0.00  0.00    +0.000 C 
ATOM     20  O   UNL     1      -0.171   9.908  18.065  0.00  0.00    +0.000 OA
ENDBRANCH  13  20
ENDBRANCH   1  16
BRANCH   8  21
ATOM     21  N   UNL     1      -6.035  12.592  23.221  0.00  0.00    +0.000 N 
ATOM     22  O   UNL     1      -6.447  11.918  24.171  0.00  0.00    +0.000 OA
ATOM     23  O   UNL     1      -6.096  12.264  22.025  0.00  0.00    +0.000 OA
ENDBRANCH   8  21
BRANCH   9  24
ATOM     24  C   UNL     1      -1.334  15.608  25.202  0.00  0.00    +0.000 C 
BRANCH  24  25
ATOM     25  C   UNL     1      -0.312  16.766  25.244  0.00  0.00    +0.000 C 
BRANCH  25  26
ATOM     26  N   UNL     1       0.839  16.550  26.144  0.00  0.00    +0.000 NA
ATOM     27  C   UNL     1       1.728  17.715  26.176  0.00  0.00    +0.000 C 
ATOM     28  C   UNL     1       0.338  16.283  27.499  0.00  0.00    +0.000 C 
ENDBRANCH  25  26
ENDBRANCH  24  25
ENDBRANCH   9  24
BRANCH  12  29
ATOM     29  O   UNL     1       0.147  14.153  21.451  0.00  0.00    +0.000 OA
BRANCH  29  30
ATOM     30  C   UNL     1       1.507  14.189  21.600  0.00  0.00    +0.000 C 
ATOM     31  C   UNL     1       2.184  13.345  20.561  0.00  0.00    +0.000 C 
ATOM     32  O   UNL     1       2.093  14.869  22.426  0.00  0.00    +0.000 OA
ENDBRANCH  29  30
ENDBRANCH  12  29
TORSDOF 8
ENDMDL
MODEL 2
REMARK VINA RESULT:      -5.7      3.637      6.598
REMARK  Name = 
REMARK  12 active torsions:
REMARK  status: ('A' for Active; 'I' for Inactive)
REMARK    1  A    between atoms: C_1  and  O_2
REMARK    2  A    between atoms: O_2  and  C_3
REMARK    3  A    between atoms: C_6  and  C_7
REMARK    4  A    between atoms: C_14  and  N_15
REMARK    5  A    between atoms: N_18  and  C_19
REMARK    6  A    between atoms: C_19  and  C_20
REMARK    7  A    between atoms: C_20  and  N_21
REMARK    8  A    between atoms: N_21  and  C_22
REMARK    9  A    between atoms: N_21  and  C_23
REMARK   10  A    between atoms: C_26  and  O_27
REMARK   11  A    between atoms: O_27  and  C_28
REMARK   12  A    between atoms: C_28  and  C_29
REMARK                            x       y       z     vdW  Elec       q    Type
REMARK                         _______ _______ _______ _____ _____    ______ ____
ROOT
ATOM      1  C   UNL     1       1.961  13.822  20.545  0.00  0.00    +0.000 C 
ATOM      2  C   UNL     1       1.504  12.302  20.224  0.00  0.00    +0.000 C 
ATOM      3  C   UNL     1       0.245  11.818  19.473  0.00  0.00    +0.000 A 
ATOM      4  C   UNL     1      -0.996  12.464  19.641  0.00  0.00    +0.000 A 
ATOM      5  C   UNL     1      -2.195  12.023  19.060  0.00  0.00    +0.000 A 
ATOM      6  C   UNL     1      -2.221  10.862  18.309  0.00  0.00    +0.000 A 
ATOM      7  C   UNL     1      -1.043  10.146  18.154  0.00  0.00    +0.000 A 
ATOM      8  C   UNL     1       0.163  10.613  18.734  0.00  0.00    +0.000 A 
ATOM      9  N   UNL     1      -1.020  13.707  20.270  0.00  0.00    +0.000 N 
ATOM     10  C   UNL     1      -0.203  14.623  19.644  0.00  0.00    +0.000 C 
ATOM     11  O   UNL     1      -0.263  14.855  18.432  0.00  0.00    +0.000 OA
ATOM     12  C   UNL     1       0.970  15.047  20.477  0.00  0.00    +0.000 C 
ENDROOT
BRANCH   1  16
ATOM     13  C   UNL     1       5.659  15.350  18.883  0.00  0.00    +0.000 A 
ATOM     14  C   UNL     1       4.716  14.758  18.042  0.00  0.00    +0.000 A 
ATOM     15  C   UNL     1       3.539  14.212  18.562  0.00  0.00    +0.000 A 
ATOM     16  C   UNL     1       3.312  14.215  19.941  0.00  0.00    +0.000 A 
ATOM     17  C   UNL     1       4.316  14.728  20.788  0.00  0.00    +0.000 A 
ATOM     18  C   UNL     1       5.478  15.296  20.263  0.00  0.00    +0.000 A 
BRANCH  13  20
ATOM     19  C   UNL     1       7.752  15.067  17.849  0.00  0.00    +0.000 C 
ATOM     20  O   UNL     1       6.715  15.956  18.262  0.00  0.00    +0.000 OA
ENDBRANCH  13  20
ENDBRANCH   1  16
BRANCH   8  21
ATOM     21  N   UNL     1       1.314   9.748  18.528  0.00  0.00    +0.000 N 
ATOM     22  O   UNL     1       1.982   9.919  17.503  0.00  0.00    +0.000 OA
ATOM     23  O   UNL     1       1.502   8.855  19.369  0.00  0.00    +0.000 OA
ENDBRANCH   8  21
BRANCH   9  24
ATOM     24  C   UNL     1      -1.609  13.885  21.603  0.00  0.00    +0.000 C 
BRANCH  24  25
ATOM     25  C   UNL     1      -0.852  13.250  22.792  0.00  0.00    +0.000 C 
BRANCH  25  26
ATOM     26  N   UNL     1      -1.555  12.131  23.451  0.00  0.00    +0.000 NA
ATOM     27  C   UNL     1      -2.999  12.175  23.199  0.00  0.00    +0.000 C 
ATOM     28  C   UNL     1      -1.011  10.864  22.946  0.00  0.00    +0.000 C 
ENDBRANCH  25  26
ENDBRANCH  24  25
ENDBRANCH   9  24
BRANCH  12  29
ATOM     29  O   UNL     1       1.526  16.228  19.852  0.00  0.00    +0.000 OA
BRANCH  29  30
ATOM     30  C   UNL     1       1.237  17.405  20.487  0.00  0.00    +0.000 C 
ATOM     31  C   UNL     1       2.078  17.575  21.716  0.00  0.00    +0.000 C 
ATOM     32  O   UNL     1       0.447  18.237  20.071  0.00  0.00    +0.000 OA
ENDBRANCH  29  30
ENDBRANCH  12  29
TORSDOF 8
ENDMDL
MODEL 3
REMARK VINA RESULT:      -5.6      2.716      4.681
REMARK  Name = 
REMARK  12 active torsions:
REMARK  status: ('A' for Active; 'I' for Inactive)
REMARK    1  A    between atoms: C_1  and  O_2
REMARK    2  A    between atoms: O_2  and  C_3
REMARK    3  A    between atoms: C_6  and  C_7
REMARK    4  A    between atoms: C_14  and  N_15
REMARK    5  A    between atoms: N_18  and  C_19
REMARK    6  A    between atoms: C_19  and  C_20
REMARK    7  A    between atoms: C_20  and  N_21
REMARK    8  A    between atoms: N_21  and  C_22
REMARK    9  A    between atoms: N_21  and  C_23
REMARK   10  A    between atoms: C_26  and  O_27
REMARK   11  A    between atoms: O_27  and  C_28
REMARK   12  A    between atoms: C_28  and  C_29
REMARK                            x       y       z     vdW  Elec       q    Type
REMARK                         _______ _______ _______ _____ _____    ______ ____
ROOT
ATOM      1  C   UNL     1      -2.779  12.694  21.427  0.00  0.00    +0.000 C 
ATOM      2  C   UNL     1      -4.131  12.296  20.629  0.00  0.00    +0.000 C 
ATOM      3  C   UNL     1      -5.296  13.213  20.199  0.00  0.00    +0.000 A 
ATOM      4  C   UNL     1      -5.749  14.253  21.036  0.00  0.00    +0.000 A 
ATOM      5  C   UNL     1      -6.858  15.065  20.748  0.00  0.00    +0.000 A 
ATOM      6  C   UNL     1      -7.612  14.838  19.612  0.00  0.00    +0.000 A 
ATOM      7  C   UNL     1      -7.254  13.790  18.776  0.00  0.00    +0.000 A 
ATOM      8  C   UNL     1      -6.122  12.990  19.072  0.00  0.00    +0.000 A 
ATOM      9  N   UNL     1      -4.962  14.624  22.124  0.00  0.00    +0.000 N 
ATOM     10  C   UNL     1      -3.685  14.977  21.746  0.00  0.00    +0.000 C 
ATOM     11  O   UNL     1      -3.455  15.809  20.862  0.00  0.00    +0.000 OA
ATOM     12  C   UNL     1      -2.630  14.035  22.245  0.00  0.00    +0.000 C 
ENDROOT
BRANCH   1  16
ATOM     13  C   UNL     1       0.643  11.622  18.996  0.00  0.00    +0.000 A 
ATOM     14  C   UNL     1       0.532  11.120  20.292  0.00  0.00    +0.000 A 
ATOM     15  C   UNL     1      -0.535  11.492  21.114  0.00  0.00    +0.000 A 
ATOM     16  C   UNL     1      -1.486  12.410  20.658  0.00  0.00    +0.000 A 
ATOM     17  C   UNL     1      -1.311  12.983  19.381  0.00  0.00    +0.000 A 
ATOM     18  C   UNL     1      -0.257  12.588  18.555  0.00  0.00    +0.000 A 
BRANCH  13  20
ATOM     19  C   UNL     1       1.698   9.677  18.199  0.00  0.00    +0.000 C 
ATOM     20  O   UNL     1       1.656  11.103  18.239  0.00  0.00    +0.000 OA
ENDBRANCH  13  20
ENDBRANCH   1  16
BRANCH   8  21
ATOM     21  N   UNL     1      -5.882  11.904  18.135  0.00  0.00    +0.000 N 
ATOM     22  O   UNL     1      -5.075  12.104  17.221  0.00  0.00    +0.000 OA
ATOM     23  O   UNL     1      -6.557  10.873  18.287  0.00  0.00    +0.000 OA
ENDBRANCH   8  21
BRANCH   9  24
ATOM     24  C   UNL     1      -5.382  14.359  23.505  0.00  0.00    +0.000 C 
BRANCH  24  25
ATOM     25  C   UNL     1      -5.824  12.915  23.836  0.00  0.00    +0.000 C 
BRANCH  25  26
ATOM     26  N   UNL     1      -7.255  12.763  24.172  0.00  0.00    +0.000 NA
ATOM     27  C   UNL     1      -7.915  14.063  24.327  0.00  0.00    +0.000 C 
ATOM     28  C   UNL     1      -7.916  12.005  23.102  0.00  0.00    +0.000 C 
ENDBRANCH  25  26
ENDBRANCH  24  25
ENDBRANCH   9  24
BRANCH  12  29
ATOM     29  O   UNL     1      -1.356  14.698  22.072  0.00  0.00    +0.000 OA
BRANCH  29  30
ATOM     30  C   UNL     1      -0.727  15.048  23.235  0.00  0.00    +0.000 C 
ATOM     31  C   UNL     1       0.280  16.133  22.998  0.00  0.00    +0.000 C 
ATOM     32  O   UNL     1      -0.998  14.586  24.332  0.00  0.00    +0.000 OA
ENDBRANCH  29  30
ENDBRANCH  12  29
TORSDOF 8
ENDMDL
MODEL 4
REMARK VINA RESULT:      -5.6      1.819      2.326
REMARK  Name = 
REMARK  12 active torsions:
REMARK  status: ('A' for Active; 'I' for Inactive)
REMARK    1  A    between atoms: C_1  and  O_2
REMARK    2  A    between atoms: O_2  and  C_3
REMARK    3  A    between atoms: C_6  and  C_7
REMARK    4  A    between atoms: C_14  and  N_15
REMARK    5  A    between atoms: N_18  and  C_19
REMARK    6  A    between atoms: C_19  and  C_20
REMARK    7  A    between atoms: C_20  and  N_21
REMARK    8  A    between atoms: N_21  and  C_22
REMARK    9  A    between atoms: N_21  and  C_23
REMARK   10  A    between atoms: C_26  and  O_27
REMARK   11  A    between atoms: O_27  and  C_28
REMARK   12  A    between atoms: C_28  and  C_29
REMARK                            x       y       z     vdW  Elec       q    Type
REMARK                         _______ _______ _______ _____ _____    ______ ____
ROOT
ATOM      1  C   UNL     1      -2.231  12.631  21.072  0.00  0.00    +0.000 C 
ATOM      2  C   UNL     1      -3.540  12.590  22.026  0.00  0.00    +0.000 C 
ATOM      3  C   UNL     1      -4.317  13.773  22.639  0.00  0.00    +0.000 A 
ATOM      4  C   UNL     1      -3.644  14.914  23.121  0.00  0.00    +0.000 A 
ATOM      5  C   UNL     1      -4.280  15.985  23.769  0.00  0.00    +0.000 A 
ATOM      6  C   UNL     1      -5.640  15.941  24.018  0.00  0.00    +0.000 A 
ATOM      7  C   UNL     1      -6.351  14.819  23.621  0.00  0.00    +0.000 A 
ATOM      8  C   UNL     1      -5.698  13.753  22.953  0.00  0.00    +0.000 A 
ATOM      9  N   UNL     1      -2.302  15.086  22.787  0.00  0.00    +0.000 N 
ATOM     10  C   UNL     1      -2.100  15.079  21.425  0.00  0.00    +0.000 C 
ATOM     11  O   UNL     1      -2.736  15.800  20.650  0.00  0.00    +0.000 OA
ATOM     12  C   UNL     1      -1.305  13.902  20.943  0.00  0.00    +0.000 C 
ENDROOT
BRANCH   1  16
ATOM     13  C   UNL     1      -3.058  10.535  17.371  0.00  0.00    +0.000 A 
ATOM     14  C   UNL     1      -1.792  10.442  17.950  0.00  0.00    +0.000 A 
ATOM     15  C   UNL     1      -1.486  11.151  19.115  0.00  0.00    +0.000 A 
ATOM     16  C   UNL     1      -2.436  11.997  19.693  0.00  0.00    +0.000 A 
ATOM     17  C   UNL     1      -3.679  12.156  19.046  0.00  0.00    +0.000 A 
ATOM     18  C   UNL     1      -3.989  11.427  17.897  0.00  0.00    +0.000 A 
BRANCH  13  20
ATOM     19  C   UNL     1      -2.928  10.266  15.040  0.00  0.00    +0.000 C 
ATOM     20  O   UNL     1      -3.288   9.712  16.304  0.00  0.00    +0.000 OA
ENDBRANCH  13  20
ENDBRANCH   1  16
BRANCH   8  21
ATOM     21  N   UNL     1      -6.552  12.622  22.628  0.00  0.00    +0.000 N 
ATOM     22  O   UNL     1      -6.969  12.533  21.468  0.00  0.00    +0.000 OA
ATOM     23  O   UNL     1      -6.853  11.860  23.561  0.00  0.00    +0.000 OA
ENDBRANCH   8  21
BRANCH   9  24
ATOM     24  C   UNL     1      -1.238  14.972  23.792  0.00  0.00    +0.000 C 
BRANCH  24  25
ATOM     25  C   UNL     1      -0.433  16.254  24.106  0.00  0.00    +0.000 C 
BRANCH  25  26
ATOM     26  N   UNL     1       0.101  16.334  25.481  0.00  0.00    +0.000 NA
ATOM     27  C   UNL     1       0.527  17.696  25.818  0.00  0.00    +0.000 C 
ATOM     28  C   UNL     1      -0.941  15.902  26.421  0.00  0.00    +0.000 C 
ENDBRANCH  25  26
ENDBRANCH  24  25
ENDBRANCH   9  24
BRANCH  12  29
ATOM     29  O   UNL     1      -0.889  14.198  19.590  0.00  0.00    +0.000 OA
BRANCH  29  30
ATOM     30  C   UNL     1       0.454  14.409  19.435  0.00  0.00    +0.000 C 
ATOM     31  C   UNL     1       0.728  15.793  18.927  0.00  0.00    +0.000 C 
ATOM     32  O   UNL     1       1.319  13.600  19.733  0.00  0.00    +0.000 OA
ENDBRANCH  29  30
ENDBRANCH  12  29
TORSDOF 8
ENDMDL
MODEL 5
REMARK VINA RESULT:      -5.6      2.647      6.346
REMARK  Name = 
REMARK  12 active torsions:
REMARK  status: ('A' for Active; 'I' for Inactive)
REMARK    1  A    between atoms: C_1  and  O_2
REMARK    2  A    between atoms: O_2  and  C_3
REMARK    3  A    between atoms: C_6  and  C_7
REMARK    4  A    between atoms: C_14  and  N_15
REMARK    5  A    between atoms: N_18  and  C_19
REMARK    6  A    between atoms: C_19  and  C_20
REMARK    7  A    between atoms: C_20  and  N_21
REMARK    8  A    between atoms: N_21  and  C_22
REMARK    9  A    between atoms: N_21  and  C_23
REMARK   10  A    between atoms: C_26  and  O_27
REMARK   11  A    between atoms: O_27  and  C_28
REMARK   12  A    between atoms: C_28  and  C_29
REMARK                            x       y       z     vdW  Elec       q    Type
REMARK                         _______ _______ _______ _____ _____    ______ ____
ROOT
ATOM      1  C   UNL     1      -1.903  13.880  20.833  0.00  0.00    +0.000 C 
ATOM      2  C   UNL     1      -1.786  13.030  19.460  0.00  0.00    +0.000 C 
ATOM      3  C   UNL     1      -0.877  11.821  19.154  0.00  0.00    +0.000 A 
ATOM      4  C   UNL     1       0.444  11.762  19.644  0.00  0.00    +0.000 A 
ATOM      5  C   UNL     1       1.352  10.738  19.331  0.00  0.00    +0.000 A 
ATOM      6  C   UNL     1       0.992   9.731  18.456  0.00  0.00    +0.000 A 
ATOM      7  C   UNL     1      -0.275   9.762  17.893  0.00  0.00    +0.000 A 
ATOM      8  C   UNL     1      -1.186  10.794  18.230  0.00  0.00    +0.000 A 
ATOM      9  N   UNL     1       0.828  12.667  20.632  0.00  0.00    +0.000 N 
ATOM     10  C   UNL     1       0.015  12.602  21.742  0.00  0.00    +0.000 C 
ATOM     11  O   UNL     1      -0.233  11.545  22.329  0.00  0.00    +0.000 OA
ATOM     12  C   UNL     1      -0.799  13.843  21.960  0.00  0.00    +0.000 C 
ENDROOT
BRANCH   1  16
ATOM     13  C   UNL     1      -5.659  14.006  22.990  0.00  0.00    +0.000 A 
ATOM     14  C   UNL     1      -5.007  12.786  22.808  0.00  0.00    +0.000 A 
ATOM     15  C   UNL     1      -3.821  12.712  22.072  0.00  0.00    +0.000 A 
ATOM     16  C   UNL     1      -3.295  13.859  21.471  0.00  0.00    +0.000 A 
ATOM     17  C   UNL     1      -4.014  15.068  21.581  0.00  0.00    +0.000 A 
ATOM     18  C   UNL     1      -5.184  15.141  22.339  0.00  0.00    +0.000 A 
BRANCH  13  20
ATOM     19  C   UNL     1      -7.472  12.759  23.818  0.00  0.00    +0.000 C 
ATOM     20  O   UNL     1      -6.743  13.985  23.823  0.00  0.00    +0.000 OA
ENDBRANCH  13  20
ENDBRANCH   1  16
BRANCH   8  21
ATOM     21  N   UNL     1      -2.464  10.729  17.540  0.00  0.00    +0.000 N 
ATOM     22  O   UNL     1      -3.334   9.990  18.012  0.00  0.00    +0.000 OA
ATOM     23  O   UNL     1      -2.565  11.375  16.484  0.00  0.00    +0.000 OA
ENDBRANCH   8  21
BRANCH   9  24
ATOM     24  C   UNL     1       1.788  13.744  20.359  0.00  0.00    +0.000 C 
BRANCH  24  25
ATOM     25  C   UNL     1       3.110  13.722  21.160  0.00  0.00    +0.000 C 
BRANCH  25  26
ATOM     26  N   UNL     1       3.167  14.667  22.294  0.00  0.00    +0.000 NA
ATOM     27  C   UNL     1       4.548  14.950  22.694  0.00  0.00    +0.000 C 
ATOM     28  C   UNL     1       2.507  15.920  21.902  0.00  0.00    +0.000 C 
ENDBRANCH  25  26
ENDBRANCH  24  25
ENDBRANCH   9  24
BRANCH  12  29
ATOM     29  O   UNL     1      -1.326  13.770  23.306  0.00  0.00    +0.000 OA
BRANCH  29  30
ATOM     30  C   UNL     1      -1.124  14.892  24.063  0.00  0.00    +0.000 C 
ATOM     31  C   UNL     1      -2.315  15.181  24.927  0.00  0.00    +0.000 C 
ATOM     32  O   UNL     1      -0.086  15.534  24.082  0.00  0.00    +0.000 OA
ENDBRANCH  29  30
ENDBRANCH  12  29
TORSDOF 8
ENDMDL
MODEL 6
REMARK VINA RESULT:      -5.6      1.030      1.537
REMARK  Name = 
REMARK  12 active torsions:
REMARK  status: ('A' for Active; 'I' for Inactive)
REMARK    1  A    between atoms: C_1  and  O_2
REMARK    2  A    between atoms: O_2  and  C_3
REMARK    3  A    between atoms: C_6  and  C_7
REMARK    4  A    between atoms: C_14  and  N_15
REMARK    5  A    between atoms: N_18  and  C_19
REMARK    6  A    between atoms: C_19  and  C_20
REMARK    7  A    between atoms: C_20  and  N_21
REMARK    8  A    between atoms: N_21  and  C_22
REMARK    9  A    between atoms: N_21  and  C_23
REMARK   10  A    between atoms: C_26  and  O_27
REMARK   11  A    between atoms: O_27  and  C_28
REMARK   12  A    between atoms: C_28  and  C_29
REMARK                            x       y       z     vdW  Elec       q    Type
REMARK                         _______ _______ _______ _____ _____    ______ ____
ROOT
ATOM      1  C   UNL     1      -1.715  12.674  22.255  0.00  0.00    +0.000 C 
ATOM      2  C   UNL     1      -3.244  12.655  22.791  0.00  0.00    +0.000 C 
ATOM      3  C   UNL     1      -4.141  13.850  23.173  0.00  0.00    +0.000 A 
ATOM      4  C   UNL     1      -3.613  14.971  23.845  0.00  0.00    +0.000 A 
ATOM      5  C   UNL     1      -4.388  16.050  24.300  0.00  0.00    +0.000 A 
ATOM      6  C   UNL     1      -5.762  16.036  24.146  0.00  0.00    +0.000 A 
ATOM      7  C   UNL     1      -6.351  14.934  23.544  0.00  0.00    +0.000 A 
ATOM      8  C   UNL     1      -5.554  13.859  23.076  0.00  0.00    +0.000 A 
ATOM      9  N   UNL     1      -2.229  15.115  23.915  0.00  0.00    +0.000 N 
ATOM     10  C   UNL     1      -1.643  15.116  22.668  0.00  0.00    +0.000 C 
ATOM     11  O   UNL     1      -2.015  15.858  21.754  0.00  0.00    +0.000 OA
ATOM     12  C   UNL     1      -0.767  13.924  22.417  0.00  0.00    +0.000 C 
ENDROOT
BRANCH   1  16
ATOM     13  C   UNL     1      -1.555  10.709  18.397  0.00  0.00    +0.000 A 
ATOM     14  C   UNL     1      -0.673  10.322  19.406  0.00  0.00    +0.000 A 
ATOM     15  C   UNL     1      -0.671  10.976  20.642  0.00  0.00    +0.000 A 
ATOM     16  C   UNL     1      -1.527  12.058  20.866  0.00  0.00    +0.000 A 
ATOM     17  C   UNL     1      -2.345  12.500  19.806  0.00  0.00    +0.000 A 
ATOM     18  C   UNL     1      -2.363  11.827  18.582  0.00  0.00    +0.000 A 
BRANCH  13  20
ATOM     19  C   UNL     1      -2.497  10.323  16.278  0.00  0.00    +0.000 C 
ATOM     20  O   UNL     1      -1.555   9.929  17.274  0.00  0.00    +0.000 OA
ENDBRANCH  13  20
ENDBRANCH   1  16
BRANCH   8  21
ATOM     21  N   UNL     1      -6.300  12.752  22.502  0.00  0.00    +0.000 N 
ATOM     22  O   UNL     1      -6.801  11.934  23.280  0.00  0.00    +0.000 OA
ATOM     23  O   UNL     1      -6.324  12.674  21.263  0.00  0.00    +0.000 OA
ENDBRANCH   8  21
BRANCH   9  24
ATOM     24  C   UNL     1      -1.502  14.967  25.181  0.00  0.00    +0.000 C 
BRANCH  24  25
ATOM     25  C   UNL     1      -1.367  16.231  26.061  0.00  0.00    +0.000 C 
BRANCH  25  26
ATOM     26  N   UNL     1      -0.710  17.380  25.405  0.00  0.00    +0.000 NA
ATOM     27  C   UNL     1      -1.440  18.629  25.641  0.00  0.00    +0.000 C 
ATOM     28  C   UNL     1       0.657  17.508  25.928  0.00  0.00    +0.000 C 
ENDBRANCH  25  26
ENDBRANCH  24  25
ENDBRANCH   9  24
BRANCH  12  29
ATOM     29  O   UNL     1       0.027  14.223  21.245  0.00  0.00    +0.000 OA
BRANCH  29  30
ATOM     30  C   UNL     1       1.380  14.217  21.451  0.00  0.00    +0.000 C 
ATOM     31  C   UNL     1       2.095  13.550  20.314  0.00  0.00    +0.000 C 
ATOM     32  O   UNL     1       1.936  14.743  22.402  0.00  0.00    +0.000 OA
ENDBRANCH  29  30
ENDBRANCH  12  29
TORSDOF 8
ENDMDL
MODEL 7
REMARK VINA RESULT:      -5.6      0.831      1.016
REMARK  Name = 
REMARK  12 active torsions:
REMARK  status: ('A' for Active; 'I' for Inactive)
REMARK    1  A    between atoms: C_1  and  O_2
REMARK    2  A    between atoms: O_2  and  C_3
REMARK    3  A    between atoms: C_6  and  C_7
REMARK    4  A    between atoms: C_14  and  N_15
REMARK    5  A    between atoms: N_18  and  C_19
REMARK    6  A    between atoms: C_19  and  C_20
REMARK    7  A    between atoms: C_20  and  N_21
REMARK    8  A    between atoms: N_21  and  C_22
REMARK    9  A    between atoms: N_21  and  C_23
REMARK   10  A    between atoms: C_26  and  O_27
REMARK   11  A    between atoms: O_27  and  C_28
REMARK   12  A    between atoms: C_28  and  C_29
REMARK                            x       y       z     vdW  Elec       q    Type
REMARK                         _______ _______ _______ _____ _____    ______ ____
ROOT
ATOM      1  C   UNL     1      -1.514  12.732  22.612  0.00  0.00    +0.000 C 
ATOM      2  C   UNL     1      -2.978  12.771  23.305  0.00  0.00    +0.000 C 
ATOM      3  C   UNL     1      -3.889  13.991  23.555  0.00  0.00    +0.000 A 
ATOM      4  C   UNL     1      -3.350  15.232  23.949  0.00  0.00    +0.000 A 
ATOM      5  C   UNL     1      -4.125  16.355  24.279  0.00  0.00    +0.000 A 
ATOM      6  C   UNL     1      -5.506  16.273  24.280  0.00  0.00    +0.000 A 
ATOM      7  C   UNL     1      -6.099  15.062  23.958  0.00  0.00    +0.000 A 
ATOM      8  C   UNL     1      -5.303  13.941  23.612  0.00  0.00    +0.000 A 
ATOM      9  N   UNL     1      -1.974  15.426  23.841  0.00  0.00    +0.000 N 
ATOM     10  C   UNL     1      -1.518  15.209  22.559  0.00  0.00    +0.000 C 
ATOM     11  O   UNL     1      -2.015  15.756  21.570  0.00  0.00    +0.000 OA
ATOM     12  C   UNL     1      -0.615  14.017  22.438  0.00  0.00    +0.000 C 
ENDROOT
BRANCH   1  16
ATOM     13  C   UNL     1      -0.937  10.523  18.930  0.00  0.00    +0.000 A 
ATOM     14  C   UNL     1      -1.965  11.461  19.019  0.00  0.00    +0.000 A 
ATOM     15  C   UNL     1      -2.203  12.149  20.212  0.00  0.00    +0.000 A 
ATOM     16  C   UNL     1      -1.438  11.872  21.348  0.00  0.00    +0.000 A 
ATOM     17  C   UNL     1      -0.466  10.853  21.273  0.00  0.00    +0.000 A 
ATOM     18  C   UNL     1      -0.214  10.187  20.072  0.00  0.00    +0.000 A 
BRANCH  13  20
ATOM     19  C   UNL     1      -1.885   9.860  16.884  0.00  0.00    +0.000 C 
ATOM     20  O   UNL     1      -0.715   9.996  17.689  0.00  0.00    +0.000 OA
ENDBRANCH  13  20
ENDBRANCH   1  16
BRANCH   8  21
ATOM     21  N   UNL     1      -6.049  12.724  23.335  0.00  0.00    +0.000 N 
ATOM     22  O   UNL     1      -6.384  12.026  24.297  0.00  0.00    +0.000 OA
ATOM     23  O   UNL     1      -6.239  12.443  22.141  0.00  0.00    +0.000 OA
ENDBRANCH   8  21
BRANCH   9  24
ATOM     24  C   UNL     1      -1.117  15.539  25.027  0.00  0.00    +0.000 C 
BRANCH  24  25
ATOM     25  C   UNL     1      -0.371  16.879  25.224  0.00  0.00    +0.000 C 
BRANCH  25  26
ATOM     26  N   UNL     1       1.046  16.871  24.808  0.00  0.00    +0.000 NA
ATOM     27  C   UNL     1       1.232  17.517  23.506  0.00  0.00    +0.000 C 
ATOM     28  C   UNL     1       1.842  17.578  25.821  0.00  0.00    +0.000 C 
ENDBRANCH  25  26
ENDBRANCH  24  25
ENDBRANCH   9  24
BRANCH  12  29
ATOM     29  O   UNL     1       0.041  14.114  21.153  0.00  0.00    +0.000 OA
BRANCH  29  30
ATOM     30  C   UNL     1       1.364  14.459  21.207  0.00  0.00    +0.000 C 
ATOM     31  C   UNL     1       1.834  15.002  19.891  0.00  0.00    +0.000 C 
ATOM     32  O   UNL     1       2.053  14.396  22.213  0.00  0.00    +0.000 OA
ENDBRANCH  29  30
ENDBRANCH  12  29
TORSDOF 8
ENDMDL
MODEL 8
REMARK VINA RESULT:      -5.5      2.872      6.618
REMARK  Name = 
REMARK  12 active torsions:
REMARK  status: ('A' for Active; 'I' for Inactive)
REMARK    1  A    between atoms: C_1  and  O_2
REMARK    2  A    between atoms: O_2  and  C_3
REMARK    3  A    between atoms: C_6  and  C_7
REMARK    4  A    between atoms: C_14  and  N_15
REMARK    5  A    between atoms: N_18  and  C_19
REMARK    6  A    between atoms: C_19  and  C_20
REMARK    7  A    between atoms: C_20  and  N_21
REMARK    8  A    between atoms: N_21  and  C_22
REMARK    9  A    between atoms: N_21  and  C_23
REMARK   10  A    between atoms: C_26  and  O_27
REMARK   11  A    between atoms: O_27  and  C_28
REMARK   12  A    between atoms: C_28  and  C_29
REMARK                            x       y       z     vdW  Elec       q    Type
REMARK                         _______ _______ _______ _____ _____    ______ ____
ROOT
ATOM      1  C   UNL     1      -2.333  13.754  20.687  0.00  0.00    +0.000 C 
ATOM      2  C   UNL     1      -2.006  12.919  19.338  0.00  0.00    +0.000 C 
ATOM      3  C   UNL     1      -1.090  11.689  19.169  0.00  0.00    +0.000 A 
ATOM      4  C   UNL     1       0.126  11.586  19.874  0.00  0.00    +0.000 A 
ATOM      5  C   UNL     1       1.047  10.540  19.702  0.00  0.00    +0.000 A 
ATOM      6  C   UNL     1       0.815   9.555  18.760  0.00  0.00    +0.000 A 
ATOM      7  C   UNL     1      -0.336   9.631  17.990  0.00  0.00    +0.000 A 
ATOM      8  C   UNL     1      -1.264  10.684  18.187  0.00  0.00    +0.000 A 
ATOM      9  N   UNL     1       0.361  12.465  20.930  0.00  0.00    +0.000 N 
ATOM     10  C   UNL     1      -0.631  12.409  21.884  0.00  0.00    +0.000 C 
ATOM     11  O   UNL     1      -1.003  11.351  22.401  0.00  0.00    +0.000 OA
ATOM     12  C   UNL     1      -1.438  13.669  21.984  0.00  0.00    +0.000 C 
ENDROOT
BRANCH   1  16
ATOM     13  C   UNL     1      -6.389  13.855  22.207  0.00  0.00    +0.000 A 
ATOM     14  C   UNL     1      -5.826  12.638  21.820  0.00  0.00    +0.000 A 
ATOM     15  C   UNL     1      -4.538  12.587  21.279  0.00  0.00    +0.000 A 
ATOM     16  C   UNL     1      -3.813  13.765  21.078  0.00  0.00    +0.000 A 
ATOM     17  C   UNL     1      -4.430  14.996  21.384  0.00  0.00    +0.000 A 
ATOM     18  C   UNL     1      -5.706  15.040  21.948  0.00  0.00    +0.000 A 
BRANCH  13  20
ATOM     19  C   UNL     1      -7.542  13.381  24.200  0.00  0.00    +0.000 C 
ATOM     20  O   UNL     1      -7.602  13.779  22.831  0.00  0.00    +0.000 OA
ENDBRANCH  13  20
ENDBRANCH   1  16
BRANCH   8  21
ATOM     21  N   UNL     1      -2.408  10.666  17.289  0.00  0.00    +0.000 N 
ATOM     22  O   UNL     1      -3.384   9.983  17.617  0.00  0.00    +0.000 OA
ATOM     23  O   UNL     1      -2.292  11.289  16.221  0.00  0.00    +0.000 OA
ENDBRANCH   8  21
BRANCH   9  24
ATOM     24  C   UNL     1       1.381  13.517  20.843  0.00  0.00    +0.000 C 
BRANCH  24  25
ATOM     25  C   UNL     1       1.749  14.018  19.428  0.00  0.00    +0.000 C 
BRANCH  25  26
ATOM     26  N   UNL     1       1.609  15.475  19.227  0.00  0.00    +0.000 NA
ATOM     27  C   UNL     1       0.220  15.852  18.950  0.00  0.00    +0.000 C 
ATOM     28  C   UNL     1       2.070  16.168  20.437  0.00  0.00    +0.000 C 
ENDBRANCH  25  26
ENDBRANCH  24  25
ENDBRANCH   9  24
BRANCH  12  29
ATOM     29  O   UNL     1      -2.188  13.594  23.219  0.00  0.00    +0.000 OA
BRANCH  29  30
ATOM     30  C   UNL     1      -1.852  14.535  24.153  0.00  0.00    +0.000 C 
ATOM     31  C   UNL     1      -3.051  14.956  24.950  0.00  0.00    +0.000 C 
ATOM     32  O   UNL     1      -0.715  14.931  24.356  0.00  0.00    +0.000 OA
ENDBRANCH  29  30
ENDBRANCH  12  29
TORSDOF 8
ENDMDL
MODEL 9
REMARK VINA RESULT:      -5.5      3.525      6.655
REMARK  Name = 
REMARK  12 active torsions:
REMARK  status: ('A' for Active; 'I' for Inactive)
REMARK    1  A    between atoms: C_1  and  O_2
REMARK    2  A    between atoms: O_2  and  C_3
REMARK    3  A    between atoms: C_6  and  C_7
REMARK    4  A    between atoms: C_14  and  N_15
REMARK    5  A    between atoms: N_18  and  C_19
REMARK    6  A    between atoms: C_19  and  C_20
REMARK    7  A    between atoms: C_20  and  N_21
REMARK    8  A    between atoms: N_21  and  C_22
REMARK    9  A    between atoms: N_21  and  C_23
REMARK   10  A    between atoms: C_26  and  O_27
REMARK   11  A    between atoms: O_27  and  C_28
REMARK   12  A    between atoms: C_28  and  C_29
REMARK                            x       y       z     vdW  Elec       q    Type
REMARK                         _______ _______ _______ _____ _____    ______ ____
ROOT
ATOM      1  C   UNL     1       1.711  13.668  20.574  0.00  0.00    +0.000 C 
ATOM      2  C   UNL     1       1.281  12.148  20.213  0.00  0.00    +0.000 C 
ATOM      3  C   UNL     1       0.076  11.664  19.380  0.00  0.00    +0.000 A 
ATOM      4  C   UNL     1      -1.177  12.304  19.474  0.00  0.00    +0.000 A 
ATOM      5  C   UNL     1      -2.335  11.863  18.815  0.00  0.00    +0.000 A 
ATOM      6  C   UNL     1      -2.308  10.707  18.056  0.00  0.00    +0.000 A 
ATOM      7  C   UNL     1      -1.119   9.997  17.970  0.00  0.00    +0.000 A 
ATOM      8  C   UNL     1       0.046  10.465  18.629  0.00  0.00    +0.000 A 
ATOM      9  N   UNL     1      -1.246  13.542  20.109  0.00  0.00    +0.000 N 
ATOM     10  C   UNL     1      -0.395  14.466  19.543  0.00  0.00    +0.000 C 
ATOM     11  O   UNL     1      -0.380  14.707  18.332  0.00  0.00    +0.000 OA
ATOM     12  C   UNL     1       0.720  14.889  20.452  0.00  0.00    +0.000 C 
ENDROOT
BRANCH   1  16
ATOM     13  C   UNL     1       5.501  15.223  19.164  0.00  0.00    +0.000 A 
ATOM     14  C   UNL     1       4.612  14.644  18.258  0.00  0.00    +0.000 A 
ATOM     15  C   UNL     1       3.406  14.089  18.697  0.00  0.00    +0.000 A 
ATOM     16  C   UNL     1       3.096  14.070  20.059  0.00  0.00    +0.000 A 
ATOM     17  C   UNL     1       4.045  14.572  20.974  0.00  0.00    +0.000 A 
ATOM     18  C   UNL     1       5.236  15.148  20.529  0.00  0.00    +0.000 A 
BRANCH  13  20
ATOM     19  C   UNL     1       7.824  15.564  19.283  0.00  0.00    +0.000 C 
ATOM     20  O   UNL     1       6.592  15.839  18.618  0.00  0.00    +0.000 OA
ENDBRANCH  13  20
ENDBRANCH   1  16
BRANCH   8  21
ATOM     21  N   UNL     1       1.211   9.606  18.489  0.00  0.00    +0.000 N 
ATOM     22  O   UNL     1       1.433   8.790  19.390  0.00  0.00    +0.000 OA
ATOM     23  O   UNL     1       1.938   9.803  17.502  0.00  0.00    +0.000 OA
ENDBRANCH   8  21
BRANCH   9  24
ATOM     24  C   UNL     1      -1.919  13.708  21.403  0.00  0.00    +0.000 C 
BRANCH  24  25
ATOM     25  C   UNL     1      -2.080  12.441  22.274  0.00  0.00    +0.000 C 
BRANCH  25  26
ATOM     26  N   UNL     1      -3.455  12.181  22.748  0.00  0.00    +0.000 NA
ATOM     27  C   UNL     1      -3.675  12.720  24.093  0.00  0.00    +0.000 C 
ATOM     28  C   UNL     1      -4.404  12.801  21.814  0.00  0.00    +0.000 C 
ENDBRANCH  25  26
ENDBRANCH  24  25
ENDBRANCH   9  24
BRANCH  12  29
ATOM     29  O   UNL     1       1.310  16.077  19.872  0.00  0.00    +0.000 OA
BRANCH  29  30
ATOM     30  C   UNL     1       1.027  17.241  20.534  0.00  0.00    +0.000 C 
ATOM     31  C   UNL     1       1.507  17.183  21.953  0.00  0.00    +0.000 C 
ATOM     32  O   UNL     1       0.513  18.220  20.019  0.00  0.00    +0.000 OA
ENDBRANCH  29  30
ENDBRANCH  12  29
TORSDOF 8
ENDMDL
