MODEL 1
REMARK VINA RESULT:      -7.4      0.000      0.000
REMARK  Name = 
REMARK  6 active torsions:
REMARK  status: ('A' for Active; 'I' for Inactive)
REMARK    1  A    between atoms: C_1  and  C_2
REMARK    2  A    between atoms: C_2  and  N_3
REMARK    3  A    between atoms: N_15  and  C_16
REMARK    4  A    between atoms: C_19  and  C_20
REMARK    5  A    between atoms: C_25  and  N_26
REMARK    6  A    between atoms: N_26  and  C_27
REMARK                            x       y       z     vdW  Elec       q    Type
REMARK                         _______ _______ _______ _____ _____    ______ ____
ROOT
ATOM      1  N   UNL     1      -0.869  13.854  21.994  0.00  0.00    +0.000 N 
ATOM      2  C   UNL     1       0.348  14.580  22.038  0.00  0.00    +0.000 A 
ATOM      3  O   UNL     1       0.770  15.182  23.018  0.00  0.00    +0.000 OA
ATOM      4  C   UNL     1       1.050  14.442  20.711  0.00  0.00    +0.000 A 
ATOM      5  C   UNL     1       2.330  14.653  20.318  0.00  0.00    +0.000 C 
ATOM      6  S   UNL     1       3.493  15.481  21.403  0.00  0.00    +0.000 S 
ATOM      7  C   UNL     1       4.716  15.449  20.091  0.00  0.00    +0.000 A 
ATOM      8  C   UNL     1       5.990  16.009  20.133  0.00  0.00    +0.000 A 
ATOM      9  C   UNL     1       6.833  15.841  19.032  0.00  0.00    +0.000 A 
ATOM     10  C   UNL     1       6.399  15.128  17.914  0.00  0.00    +0.000 A 
ATOM     11  C   UNL     1       5.110  14.597  17.871  0.00  0.00    +0.000 A 
ATOM     12  C   UNL     1       4.251  14.761  18.955  0.00  0.00    +0.000 A 
ATOM     13  N   UNL     1       2.921  14.314  19.062  0.00  0.00    +0.000 N 
ATOM     14  C   UNL     1       2.382  13.438  18.027  0.00  0.00    +0.000 C 
ATOM     15  S   UNL     1      -0.133  13.931  19.562  0.00  0.00    +0.000 S 
ATOM     16  C   UNL     1      -1.158  13.286  20.774  0.00  0.00    +0.000 A 
ATOM     17  C   UNL     1      -2.068  12.335  20.480  0.00  0.00    +0.000 C 
ENDROOT
BRANCH  17  18
ATOM     18  C   UNL     1      -2.095  11.710  19.125  0.00  0.00    +0.000 A 
ATOM     19  C   UNL     1      -3.310  11.804  18.422  0.00  0.00    +0.000 A 
ATOM     20  C   UNL     1      -3.521  10.980  17.327  0.00  0.00    +0.000 A 
ATOM     21  N   UNL     1      -2.614  10.098  16.869  0.00  0.00    +0.000 NA
ATOM     22  C   UNL     1      -1.446  10.031  17.551  0.00  0.00    +0.000 A 
ATOM     23  C   UNL     1      -1.119  10.791  18.681  0.00  0.00    +0.000 A 
BRANCH  23  24
ATOM     24  N   UNL     1       0.097  10.535  19.341  0.00  0.00    +0.000 N 
ATOM     25  H   UNL     1       0.255  11.094  20.174  0.00  0.00    +0.000 HD
BRANCH  24  26
ATOM     26  C   UNL     1       0.968   9.430  19.303  0.00  0.00    +0.000 A 
ATOM     27  C   UNL     1       1.771   9.180  18.186  0.00  0.00    +0.000 A 
ATOM     28  C   UNL     1       2.575   8.040  18.124  0.00  0.00    +0.000 A 
ATOM     29  C   UNL     1       2.609   7.145  19.189  0.00  0.00    +0.000 A 
ATOM     30  C   UNL     1       1.858   7.395  20.331  0.00  0.00    +0.000 A 
ATOM     31  C   UNL     1       1.047   8.535  20.391  0.00  0.00    +0.000 A 
ATOM     32 CL   UNL     1       0.137   8.817  21.838  0.00  0.00    +0.000 Cl
ENDBRANCH  24  26
ENDBRANCH  23  24
ENDBRANCH  17  18
BRANCH   1  34
ATOM     33  C   UNL     1      -2.816  14.939  23.042  0.00  0.00    +0.000 C 
ATOM     34  C   UNL     1      -1.781  13.823  23.130  0.00  0.00    +0.000 C 
ENDBRANCH   1  34
TORSDOF 4
ENDMDL
MODEL 2
REMARK VINA RESULT:      -7.1      1.057      1.432
REMARK  Name = 
REMARK  6 active torsions:
REMARK  status: ('A' for Active; 'I' for Inactive)
REMARK    1  A    between atoms: C_1  and  C_2
REMARK    2  A    between atoms: C_2  and  N_3
REMARK    3  A    between atoms: N_15  and  C_16
REMARK    4  A    between atoms: C_19  and  C_20
REMARK    5  A    between atoms: C_25  and  N_26
REMARK    6  A    between atoms: N_26  and  C_27
REMARK                            x       y       z     vdW  Elec       q    Type
REMARK                         _______ _______ _______ _____ _____    ______ ____
ROOT
ATOM      1  N   UNL     1      -1.393  13.691  21.867  0.00  0.00    +0.000 N 
ATOM      2  C   UNL     1      -0.169  14.389  22.008  0.00  0.00    +0.000 A 
ATOM      3  O   UNL     1       0.224  14.914  23.044  0.00  0.00    +0.000 OA
ATOM      4  C   UNL     1       0.583  14.331  20.702  0.00  0.00    +0.000 A 
ATOM      5  C   UNL     1       1.881  14.546  20.374  0.00  0.00    +0.000 C 
ATOM      6  S   UNL     1       3.014  15.275  21.558  0.00  0.00    +0.000 S 
ATOM      7  C   UNL     1       4.286  15.311  20.295  0.00  0.00    +0.000 A 
ATOM      8  C   UNL     1       5.566  15.843  20.425  0.00  0.00    +0.000 A 
ATOM      9  C   UNL     1       6.449  15.738  19.348  0.00  0.00    +0.000 A 
ATOM     10  C   UNL     1       6.049  15.113  18.167  0.00  0.00    +0.000 A 
ATOM     11  C   UNL     1       4.754  14.610  18.037  0.00  0.00    +0.000 A 
ATOM     12  C   UNL     1       3.856  14.713  19.096  0.00  0.00    +0.000 A 
ATOM     13  N   UNL     1       2.516  14.284  19.121  0.00  0.00    +0.000 N 
ATOM     14  C   UNL     1       2.004  13.493  18.007  0.00  0.00    +0.000 C 
ATOM     15  S   UNL     1      -0.561  13.924  19.476  0.00  0.00    +0.000 S 
ATOM     16  C   UNL     1      -1.644  13.215  20.599  0.00  0.00    +0.000 A 
ATOM     17  C   UNL     1      -2.556  12.304  20.204  0.00  0.00    +0.000 C 
ENDROOT
BRANCH  17  18
ATOM     18  C   UNL     1      -2.539  11.775  18.808  0.00  0.00    +0.000 A 
ATOM     19  C   UNL     1      -3.764  11.810  18.118  0.00  0.00    +0.000 A 
ATOM     20  C   UNL     1      -3.911  11.050  16.967  0.00  0.00    +0.000 A 
ATOM     21  N   UNL     1      -2.934  10.287  16.446  0.00  0.00    +0.000 NA
ATOM     22  C   UNL     1      -1.759  10.276  17.118  0.00  0.00    +0.000 A 
ATOM     23  C   UNL     1      -1.490  10.981  18.299  0.00  0.00    +0.000 A 
BRANCH  23  24
ATOM     24  N   UNL     1      -0.250  10.787  18.936  0.00  0.00    +0.000 N 
ATOM     25  H   UNL     1       0.278  11.638  19.106  0.00  0.00    +0.000 HD
BRANCH  24  26
ATOM     26  C   UNL     1       0.250   9.721  19.706  0.00  0.00    +0.000 A 
ATOM     27  C   UNL     1      -0.302   9.406  20.951  0.00  0.00    +0.000 A 
ATOM     28  C   UNL     1       0.249   8.397  21.744  0.00  0.00    +0.000 A 
ATOM     29  C   UNL     1       1.345   7.668  21.292  0.00  0.00    +0.000 A 
ATOM     30  C   UNL     1       1.884   7.929  20.037  0.00  0.00    +0.000 A 
ATOM     31  C   UNL     1       1.335   8.945  19.245  0.00  0.00    +0.000 A 
ATOM     32 CL   UNL     1       2.026   9.229  17.683  0.00  0.00    +0.000 Cl
ENDBRANCH  24  26
ENDBRANCH  23  24
ENDBRANCH  17  18
BRANCH   1  34
ATOM     33  C   UNL     1      -3.341  14.756  22.935  0.00  0.00    +0.000 C 
ATOM     34  C   UNL     1      -2.350  13.598  22.962  0.00  0.00    +0.000 C 
ENDBRANCH   1  34
TORSDOF 4
ENDMDL
MODEL 3
REMARK VINA RESULT:      -7.0      3.429      5.809
REMARK  Name = 
REMARK  6 active torsions:
REMARK  status: ('A' for Active; 'I' for Inactive)
REMARK    1  A    between atoms: C_1  and  C_2
REMARK    2  A    between atoms: C_2  and  N_3
REMARK    3  A    between atoms: N_15  and  C_16
REMARK    4  A    between atoms: C_19  and  C_20
REMARK    5  A    between atoms: C_25  and  N_26
REMARK    6  A    between atoms: N_26  and  C_27
REMARK                            x       y       z     vdW  Elec       q    Type
REMARK                         _______ _______ _______ _____ _____    ______ ____
ROOT
ATOM      1  N   UNL     1      -0.650  11.131  21.986  0.00  0.00    +0.000 N 
ATOM      2  C   UNL     1       0.446  11.578  21.206  0.00  0.00    +0.000 A 
ATOM      3  O   UNL     1       1.355  10.863  20.799  0.00  0.00    +0.000 OA
ATOM      4  C   UNL     1       0.278  13.049  20.920  0.00  0.00    +0.000 A 
ATOM      5  C   UNL     1       0.833  13.880  20.004  0.00  0.00    +0.000 C 
ATOM      6  S   UNL     1       2.228  13.345  19.012  0.00  0.00    +0.000 S 
ATOM      7  C   UNL     1       2.341  14.992  18.311  0.00  0.00    +0.000 A 
ATOM      8  C   UNL     1       3.305  15.445  17.416  0.00  0.00    +0.000 A 
ATOM      9  C   UNL     1       3.209  16.751  16.930  0.00  0.00    +0.000 A 
ATOM     10  C   UNL     1       2.166  17.581  17.342  0.00  0.00    +0.000 A 
ATOM     11  C   UNL     1       1.222  17.126  18.264  0.00  0.00    +0.000 A 
ATOM     12  C   UNL     1       1.306  15.830  18.765  0.00  0.00    +0.000 A 
ATOM     13  N   UNL     1       0.458  15.228  19.713  0.00  0.00    +0.000 N 
ATOM     14  C   UNL     1      -0.753  15.928  20.127  0.00  0.00    +0.000 C 
ATOM     15  S   UNL     1      -0.849  13.664  22.073  0.00  0.00    +0.000 S 
ATOM     16  C   UNL     1      -1.532  12.119  22.360  0.00  0.00    +0.000 A 
ATOM     17  C   UNL     1      -2.780  11.993  22.855  0.00  0.00    +0.000 C 
ENDROOT
BRANCH  17  18
ATOM     18  C   UNL     1      -3.653  13.194  23.016  0.00  0.00    +0.000 A 
ATOM     19  C   UNL     1      -3.158  14.214  23.847  0.00  0.00    +0.000 A 
ATOM     20  C   UNL     1      -4.027  15.190  24.309  0.00  0.00    +0.000 A 
ATOM     21  N   UNL     1      -5.333  15.240  23.988  0.00  0.00    +0.000 NA
ATOM     22  C   UNL     1      -5.789  14.256  23.177  0.00  0.00    +0.000 A 
ATOM     23  C   UNL     1      -5.020  13.205  22.662  0.00  0.00    +0.000 A 
BRANCH  23  24
ATOM     24  N   UNL     1      -5.661  12.200  21.913  0.00  0.00    +0.000 N 
ATOM     25  H   UNL     1      -6.426  11.736  22.393  0.00  0.00    +0.000 HD
BRANCH  24  26
ATOM     26  C   UNL     1      -5.706  11.948  20.529  0.00  0.00    +0.000 A 
ATOM     27  C   UNL     1      -4.746  12.484  19.665  0.00  0.00    +0.000 A 
ATOM     28  C   UNL     1      -4.841  12.294  18.285  0.00  0.00    +0.000 A 
ATOM     29  C   UNL     1      -5.883  11.543  17.749  0.00  0.00    +0.000 A 
ATOM     30  C   UNL     1      -6.823  10.959  18.589  0.00  0.00    +0.000 A 
ATOM     31  C   UNL     1      -6.731  11.155  19.973  0.00  0.00    +0.000 A 
ATOM     32 CL   UNL     1      -7.914  10.398  20.987  0.00  0.00    +0.000 Cl
ENDBRANCH  24  26
ENDBRANCH  23  24
ENDBRANCH  17  18
BRANCH   1  34
ATOM     33  C   UNL     1       0.113   9.508  23.675  0.00  0.00    +0.000 C 
ATOM     34  C   UNL     1      -0.750   9.751  22.441  0.00  0.00    +0.000 C 
ENDBRANCH   1  34
TORSDOF 4
ENDMDL
MODEL 4
REMARK VINA RESULT:      -7.0      2.016      4.150
REMARK  Name = 
REMARK  6 active torsions:
REMARK  status: ('A' for Active; 'I' for Inactive)
REMARK    1  A    between atoms: C_1  and  C_2
REMARK    2  A    between atoms: C_2  and  N_3
REMARK    3  A    between atoms: N_15  and  C_16
REMARK    4  A    between atoms: C_19  and  C_20
REMARK    5  A    between atoms: C_25  and  N_26
REMARK    6  A    between atoms: N_26  and  C_27
REMARK                            x       y       z     vdW  Elec       q    Type
REMARK                         _______ _______ _______ _____ _____    ______ ____
ROOT
ATOM      1  N   UNL     1      -0.267  14.053  22.267  0.00  0.00    +0.000 N 
ATOM      2  C   UNL     1       0.861  14.898  22.117  0.00  0.00    +0.000 A 
ATOM      3  O   UNL     1       1.234  15.724  22.943  0.00  0.00    +0.000 OA
ATOM      4  C   UNL     1       1.546  14.575  20.813  0.00  0.00    +0.000 A 
ATOM      5  C   UNL     1       2.785  14.839  20.332  0.00  0.00    +0.000 C 
ATOM      6  S   UNL     1       3.871  15.983  21.184  0.00  0.00    +0.000 S 
ATOM      7  C   UNL     1       5.062  15.821  19.852  0.00  0.00    +0.000 A 
ATOM      8  C   UNL     1       6.265  16.510  19.730  0.00  0.00    +0.000 A 
ATOM      9  C   UNL     1       7.098  16.219  18.648  0.00  0.00    +0.000 A 
ATOM     10  C   UNL     1       6.723  15.257  17.709  0.00  0.00    +0.000 A 
ATOM     11  C   UNL     1       5.501  14.594  17.825  0.00  0.00    +0.000 A 
ATOM     12  C   UNL     1       4.653  14.877  18.893  0.00  0.00    +0.000 A 
ATOM     13  N   UNL     1       3.384  14.322  19.142  0.00  0.00    +0.000 N 
ATOM     14  C   UNL     1       2.925  13.207  18.321  0.00  0.00    +0.000 C 
ATOM     15  S   UNL     1       0.404  13.725  19.837  0.00  0.00    +0.000 S 
ATOM     16  C   UNL     1      -0.517  13.228  21.195  0.00  0.00    +0.000 A 
ATOM     17  C   UNL     1      -1.320  12.146  21.130  0.00  0.00    +0.000 C 
ENDROOT
BRANCH  17  18
ATOM     18  C   UNL     1      -1.306  11.266  19.925  0.00  0.00    +0.000 A 
ATOM     19  C   UNL     1      -0.144  10.497  19.733  0.00  0.00    +0.000 A 
ATOM     20  C   UNL     1       0.086   9.921  18.492  0.00  0.00    +0.000 A 
ATOM     21  N   UNL     1      -0.756  10.032  17.449  0.00  0.00    +0.000 NA
ATOM     22  C   UNL     1      -1.874  10.766  17.658  0.00  0.00    +0.000 A 
ATOM     23  C   UNL     1      -2.212  11.414  18.853  0.00  0.00    +0.000 A 
BRANCH  23  24
ATOM     24  N   UNL     1      -3.362  12.225  18.883  0.00  0.00    +0.000 N 
ATOM     25  H   UNL     1      -3.277  13.101  18.376  0.00  0.00    +0.000 HD
BRANCH  24  26
ATOM     26  C   UNL     1      -4.710  11.927  19.155  0.00  0.00    +0.000 A 
ATOM     27  C   UNL     1      -5.434  11.047  18.346  0.00  0.00    +0.000 A 
ATOM     28  C   UNL     1      -6.792  10.816  18.577  0.00  0.00    +0.000 A 
ATOM     29  C   UNL     1      -7.442  11.443  19.636  0.00  0.00    +0.000 A 
ATOM     30  C   UNL     1      -6.733  12.286  20.484  0.00  0.00    +0.000 A 
ATOM     31  C   UNL     1      -5.373  12.522  20.249  0.00  0.00    +0.000 A 
ATOM     32 CL   UNL     1      -4.524  13.568  21.338  0.00  0.00    +0.000 Cl
ENDBRANCH  24  26
ENDBRANCH  23  24
ENDBRANCH  17  18
BRANCH   1  34
ATOM     33  C   UNL     1      -2.113  15.322  23.292  0.00  0.00    +0.000 C 
ATOM     34  C   UNL     1      -1.145  14.151  23.426  0.00  0.00    +0.000 C 
ENDBRANCH   1  34
TORSDOF 4
ENDMDL
MODEL 5
REMARK VINA RESULT:      -6.9      2.194      4.320
REMARK  Name = 
REMARK  6 active torsions:
REMARK  status: ('A' for Active; 'I' for Inactive)
REMARK    1  A    between atoms: C_1  and  C_2
REMARK    2  A    between atoms: C_2  and  N_3
REMARK    3  A    between atoms: N_15  and  C_16
REMARK    4  A    between atoms: C_19  and  C_20
REMARK    5  A    between atoms: C_25  and  N_26
REMARK    6  A    between atoms: N_26  and  C_27
REMARK                            x       y       z     vdW  Elec       q    Type
REMARK                         _______ _______ _______ _____ _____    ______ ____
ROOT
ATOM      1  N   UNL     1      -0.243  14.204  22.425  0.00  0.00    +0.000 N 
ATOM      2  C   UNL     1       0.893  15.031  22.248  0.00  0.00    +0.000 A 
ATOM      3  O   UNL     1       1.290  15.861  23.059  0.00  0.00    +0.000 OA
ATOM      4  C   UNL     1       1.553  14.686  20.937  0.00  0.00    +0.000 A 
ATOM      5  C   UNL     1       2.789  14.928  20.433  0.00  0.00    +0.000 C 
ATOM      6  S   UNL     1       3.903  16.066  21.256  0.00  0.00    +0.000 S 
ATOM      7  C   UNL     1       5.070  15.874  19.908  0.00  0.00    +0.000 A 
ATOM      8  C   UNL     1       6.280  16.545  19.759  0.00  0.00    +0.000 A 
ATOM      9  C   UNL     1       7.093  16.231  18.668  0.00  0.00    +0.000 A 
ATOM     10  C   UNL     1       6.690  15.265  17.745  0.00  0.00    +0.000 A 
ATOM     11  C   UNL     1       5.461  14.620  17.887  0.00  0.00    +0.000 A 
ATOM     12  C   UNL     1       4.634  14.926  18.965  0.00  0.00    +0.000 A 
ATOM     13  N   UNL     1       3.362  14.390  19.240  0.00  0.00    +0.000 N 
ATOM     14  C   UNL     1       2.874  13.273  18.438  0.00  0.00    +0.000 C 
ATOM     15  S   UNL     1       0.385  13.841  19.988  0.00  0.00    +0.000 S 
ATOM     16  C   UNL     1      -0.521  13.371  21.365  0.00  0.00    +0.000 A 
ATOM     17  C   UNL     1      -1.340  12.300  21.325  0.00  0.00    +0.000 C 
ENDROOT
BRANCH  17  18
ATOM     18  C   UNL     1      -1.356  11.407  20.129  0.00  0.00    +0.000 A 
ATOM     19  C   UNL     1      -0.237  10.571  19.964  0.00  0.00    +0.000 A 
ATOM     20  C   UNL     1      -0.020   9.969  18.734  0.00  0.00    +0.000 A 
ATOM     21  N   UNL     1      -0.838  10.116  17.675  0.00  0.00    +0.000 NA
ATOM     22  C   UNL     1      -1.916  10.915  17.857  0.00  0.00    +0.000 A 
ATOM     23  C   UNL     1      -2.235  11.594  19.040  0.00  0.00    +0.000 A 
BRANCH  23  24
ATOM     24  N   UNL     1      -3.337  12.470  19.042  0.00  0.00    +0.000 N 
ATOM     25  H   UNL     1      -3.207  13.318  18.498  0.00  0.00    +0.000 HD
BRANCH  24  26
ATOM     26  C   UNL     1      -4.698  12.262  19.336  0.00  0.00    +0.000 A 
ATOM     27  C   UNL     1      -5.191  12.433  20.633  0.00  0.00    +0.000 A 
ATOM     28  C   UNL     1      -6.526  12.150  20.933  0.00  0.00    +0.000 A 
ATOM     29  C   UNL     1      -7.394  11.717  19.935  0.00  0.00    +0.000 A 
ATOM     30  C   UNL     1      -6.940  11.585  18.628  0.00  0.00    +0.000 A 
ATOM     31  C   UNL     1      -5.600  11.862  18.329  0.00  0.00    +0.000 A 
ATOM     32 CL   UNL     1      -5.078  11.698  16.685  0.00  0.00    +0.000 Cl
ENDBRANCH  24  26
ENDBRANCH  23  24
ENDBRANCH  17  18
BRANCH   1  34
ATOM     33  C   UNL     1      -2.250  15.298  23.344  0.00  0.00    +0.000 C 
ATOM     34  C   UNL     1      -1.102  14.327  23.596  0.00  0.00    +0.000 C 
ENDBRANCH   1  34
TORSDOF 4
ENDMDL
MODEL 6
REMARK VINA RESULT:      -6.9      3.155      5.628
REMARK  Name = 
REMARK  6 active torsions:
REMARK  status: ('A' for Active; 'I' for Inactive)
REMARK    1  A    between atoms: C_1  and  C_2
REMARK    2  A    between atoms: C_2  and  N_3
REMARK    3  A    between atoms: N_15  and  C_16
REMARK    4  A    between atoms: C_19  and  C_20
REMARK    5  A    between atoms: C_25  and  N_26
REMARK    6  A    between atoms: N_26  and  C_27
REMARK                            x       y       z     vdW  Elec       q    Type
REMARK                         _______ _______ _______ _____ _____    ______ ____
ROOT
ATOM      1  N   UNL     1      -0.578  11.143  21.716  0.00  0.00    +0.000 N 
ATOM      2  C   UNL     1       0.512  11.565  20.917  0.00  0.00    +0.000 A 
ATOM      3  O   UNL     1       1.367  10.822  20.448  0.00  0.00    +0.000 OA
ATOM      4  C   UNL     1       0.414  13.054  20.699  0.00  0.00    +0.000 A 
ATOM      5  C   UNL     1       0.981  13.894  19.798  0.00  0.00    +0.000 C 
ATOM      6  S   UNL     1       2.311  13.331  18.736  0.00  0.00    +0.000 S 
ATOM      7  C   UNL     1       2.488  14.999  18.100  0.00  0.00    +0.000 A 
ATOM      8  C   UNL     1       3.445  15.440  17.190  0.00  0.00    +0.000 A 
ATOM      9  C   UNL     1       3.402  16.769  16.763  0.00  0.00    +0.000 A 
ATOM     10  C   UNL     1       2.419  17.633  17.246  0.00  0.00    +0.000 A 
ATOM     11  C   UNL     1       1.484  17.189  18.182  0.00  0.00    +0.000 A 
ATOM     12  C   UNL     1       1.516  15.869  18.626  0.00  0.00    +0.000 A 
ATOM     13  N   UNL     1       0.668  15.271  19.577  0.00  0.00    +0.000 N 
ATOM     14  C   UNL     1      -0.488  16.015  20.064  0.00  0.00    +0.000 C 
ATOM     15  S   UNL     1      -0.639  13.677  21.916  0.00  0.00    +0.000 S 
ATOM     16  C   UNL     1      -1.394  12.158  22.163  0.00  0.00    +0.000 A 
ATOM     17  C   UNL     1      -2.630  12.076  22.696  0.00  0.00    +0.000 C 
ENDROOT
BRANCH  17  18
ATOM     18  C   UNL     1      -3.431  13.312  22.938  0.00  0.00    +0.000 A 
ATOM     19  C   UNL     1      -3.622  13.673  24.284  0.00  0.00    +0.000 A 
ATOM     20  C   UNL     1      -4.610  14.593  24.602  0.00  0.00    +0.000 A 
ATOM     21  N   UNL     1      -5.396  15.190  23.688  0.00  0.00    +0.000 NA
ATOM     22  C   UNL     1      -5.189  14.838  22.397  0.00  0.00    +0.000 A 
ATOM     23  C   UNL     1      -4.241  13.910  21.949  0.00  0.00    +0.000 A 
BRANCH  23  24
ATOM     24  N   UNL     1      -4.215  13.574  20.583  0.00  0.00    +0.000 N 
ATOM     25  H   UNL     1      -3.345  13.797  20.107  0.00  0.00    +0.000 HD
BRANCH  24  26
ATOM     26  C   UNL     1      -4.990  12.678  19.824  0.00  0.00    +0.000 A 
ATOM     27  C   UNL     1      -6.379  12.620  19.971  0.00  0.00    +0.000 A 
ATOM     28  C   UNL     1      -7.133  11.676  19.271  0.00  0.00    +0.000 A 
ATOM     29  C   UNL     1      -6.513  10.791  18.394  0.00  0.00    +0.000 A 
ATOM     30  C   UNL     1      -5.140  10.859  18.194  0.00  0.00    +0.000 A 
ATOM     31  C   UNL     1      -4.383  11.802  18.900  0.00  0.00    +0.000 A 
ATOM     32 CL   UNL     1      -2.676  11.863  18.611  0.00  0.00    +0.000 Cl
ENDBRANCH  24  26
ENDBRANCH  23  24
ENDBRANCH  17  18
BRANCH   1  34
ATOM     33  C   UNL     1      -0.047   9.474  23.449  0.00  0.00    +0.000 C 
ATOM     34  C   UNL     1      -0.737   9.751  22.118  0.00  0.00    +0.000 C 
ENDBRANCH   1  34
TORSDOF 4
ENDMDL
MODEL 7
REMARK VINA RESULT:      -6.8      1.373      1.936
REMARK  Name = 
REMARK  6 active torsions:
REMARK  status: ('A' for Active; 'I' for Inactive)
REMARK    1  A    between atoms: C_1  and  C_2
REMARK    2  A    between atoms: C_2  and  N_3
REMARK    3  A    between atoms: N_15  and  C_16
REMARK    4  A    between atoms: C_19  and  C_20
REMARK    5  A    between atoms: C_25  and  N_26
REMARK    6  A    between atoms: N_26  and  C_27
REMARK                            x       y       z     vdW  Elec       q    Type
REMARK                         _______ _______ _______ _____ _____    ______ ____
ROOT
ATOM      1  N   UNL     1      -1.515  14.520  21.069  0.00  0.00    +0.000 N 
ATOM      2  C   UNL     1      -0.322  15.278  21.170  0.00  0.00    +0.000 A 
ATOM      3  O   UNL     1      -0.076  16.083  22.062  0.00  0.00    +0.000 OA
ATOM      4  C   UNL     1       0.601  14.894  20.042  0.00  0.00    +0.000 A 
ATOM      5  C   UNL     1       1.931  15.062  19.840  0.00  0.00    +0.000 C 
ATOM      6  S   UNL     1       2.890  16.132  20.914  0.00  0.00    +0.000 S 
ATOM      7  C   UNL     1       4.323  15.870  19.868  0.00  0.00    +0.000 A 
ATOM      8  C   UNL     1       5.572  16.467  20.012  0.00  0.00    +0.000 A 
ATOM      9  C   UNL     1       6.595  16.105  19.132  0.00  0.00    +0.000 A 
ATOM     10  C   UNL     1       6.361  15.164  18.129  0.00  0.00    +0.000 A 
ATOM     11  C   UNL     1       5.097  14.594  17.975  0.00  0.00    +0.000 A 
ATOM     12  C   UNL     1       4.062  14.949  18.837  0.00  0.00    +0.000 A 
ATOM     13  N   UNL     1       2.732  14.490  18.804  0.00  0.00    +0.000 N 
ATOM     14  C   UNL     1       2.379  13.404  17.896  0.00  0.00    +0.000 C 
ATOM     15  S   UNL     1      -0.364  14.120  18.838  0.00  0.00    +0.000 S 
ATOM     16  C   UNL     1      -1.589  13.705  19.963  0.00  0.00    +0.000 A 
ATOM     17  C   UNL     1      -2.437  12.685  19.720  0.00  0.00    +0.000 C 
ENDROOT
BRANCH  17  18
ATOM     18  C   UNL     1      -2.229  11.794  18.541  0.00  0.00    +0.000 A 
ATOM     19  C   UNL     1      -3.303  11.698  17.638  0.00  0.00    +0.000 A 
ATOM     20  C   UNL     1      -3.321  10.661  16.719  0.00  0.00    +0.000 A 
ATOM     21  N   UNL     1      -2.349   9.737  16.616  0.00  0.00    +0.000 NA
ATOM     22  C   UNL     1      -1.317   9.853  17.484  0.00  0.00    +0.000 A 
ATOM     23  C   UNL     1      -1.191  10.840  18.470  0.00  0.00    +0.000 A 
BRANCH  23  24
ATOM     24  N   UNL     1      -0.108  10.768  19.366  0.00  0.00    +0.000 N 
ATOM     25  H   UNL     1       0.652  11.413  19.167  0.00  0.00    +0.000 HD
BRANCH  24  26
ATOM     26  C   UNL     1      -0.006  10.257  20.673  0.00  0.00    +0.000 A 
ATOM     27  C   UNL     1      -0.737  10.814  21.726  0.00  0.00    +0.000 A 
ATOM     28  C   UNL     1      -0.573  10.352  23.034  0.00  0.00    +0.000 A 
ATOM     29  C   UNL     1       0.306   9.307  23.305  0.00  0.00    +0.000 A 
ATOM     30  C   UNL     1       1.009   8.703  22.269  0.00  0.00    +0.000 A 
ATOM     31  C   UNL     1       0.849   9.171  20.959  0.00  0.00    +0.000 A 
ATOM     32 CL   UNL     1       1.733   8.383  19.695  0.00  0.00    +0.000 Cl
ENDBRANCH  24  26
ENDBRANCH  23  24
ENDBRANCH  17  18
BRANCH   1  34
ATOM     33  C   UNL     1      -2.450  13.786  23.227  0.00  0.00    +0.000 C 
ATOM     34  C   UNL     1      -2.612  14.694  22.013  0.00  0.00    +0.000 C 
ENDBRANCH   1  34
TORSDOF 4
ENDMDL
MODEL 8
REMARK VINA RESULT:      -6.8      3.066      4.996
REMARK  Name = 
REMARK  6 active torsions:
REMARK  status: ('A' for Active; 'I' for Inactive)
REMARK    1  A    between atoms: C_1  and  C_2
REMARK    2  A    between atoms: C_2  and  N_3
REMARK    3  A    between atoms: N_15  and  C_16
REMARK    4  A    between atoms: C_19  and  C_20
REMARK    5  A    between atoms: C_25  and  N_26
REMARK    6  A    between atoms: N_26  and  C_27
REMARK                            x       y       z     vdW  Elec       q    Type
REMARK                         _______ _______ _______ _____ _____    ______ ____
ROOT
ATOM      1  N   UNL     1      -0.350  11.460  22.131  0.00  0.00    +0.000 N 
ATOM      2  C   UNL     1       0.725  12.039  21.413  0.00  0.00    +0.000 A 
ATOM      3  O   UNL     1       1.789  11.480  21.170  0.00  0.00    +0.000 OA
ATOM      4  C   UNL     1       0.325  13.420  20.959  0.00  0.00    +0.000 A 
ATOM      5  C   UNL     1       0.817  14.260  20.015  0.00  0.00    +0.000 C 
ATOM      6  S   UNL     1       2.388  13.920  19.219  0.00  0.00    +0.000 S 
ATOM      7  C   UNL     1       2.276  15.491  18.362  0.00  0.00    +0.000 A 
ATOM      8  C   UNL     1       3.234  16.042  17.516  0.00  0.00    +0.000 A 
ATOM      9  C   UNL     1       2.956  17.258  16.888  0.00  0.00    +0.000 A 
ATOM     10  C   UNL     1       1.740  17.904  17.112  0.00  0.00    +0.000 A 
ATOM     11  C   UNL     1       0.799  17.358  17.985  0.00  0.00    +0.000 A 
ATOM     12  C   UNL     1       1.062  16.150  18.627  0.00  0.00    +0.000 A 
ATOM     13  N   UNL     1       0.237  15.481  19.550  0.00  0.00    +0.000 N 
ATOM     14  C   UNL     1      -1.119  15.969  19.774  0.00  0.00    +0.000 C 
ATOM     15  S   UNL     1      -1.016  13.905  21.931  0.00  0.00    +0.000 S 
ATOM     16  C   UNL     1      -1.434  12.288  22.315  0.00  0.00    +0.000 A 
ATOM     17  C   UNL     1      -2.685  11.968  22.703  0.00  0.00    +0.000 C 
ENDROOT
BRANCH  17  18
ATOM     18  C   UNL     1      -3.774  12.988  22.655  0.00  0.00    +0.000 A 
ATOM     19  C   UNL     1      -4.515  13.160  23.837  0.00  0.00    +0.000 A 
ATOM     20  C   UNL     1      -5.730  13.827  23.782  0.00  0.00    +0.000 A 
ATOM     21  N   UNL     1      -6.244  14.349  22.654  0.00  0.00    +0.000 NA
ATOM     22  C   UNL     1      -5.511  14.184  21.528  0.00  0.00    +0.000 A 
ATOM     23  C   UNL     1      -4.282  13.515  21.448  0.00  0.00    +0.000 A 
BRANCH  23  24
ATOM     24  N   UNL     1      -3.689  13.337  20.184  0.00  0.00    +0.000 N 
ATOM     25  H   UNL     1      -2.994  14.037  19.938  0.00  0.00    +0.000 HD
BRANCH  24  26
ATOM     26  C   UNL     1      -3.588  12.210  19.347  0.00  0.00    +0.000 A 
ATOM     27  C   UNL     1      -2.360  11.577  19.133  0.00  0.00    +0.000 A 
ATOM     28  C   UNL     1      -2.253  10.507  18.242  0.00  0.00    +0.000 A 
ATOM     29  C   UNL     1      -3.378  10.037  17.570  0.00  0.00    +0.000 A 
ATOM     30  C   UNL     1      -4.619  10.618  17.802  0.00  0.00    +0.000 A 
ATOM     31  C   UNL     1      -4.725  11.694  18.691  0.00  0.00    +0.000 A 
ATOM     32 CL   UNL     1      -6.292  12.381  18.962  0.00  0.00    +0.000 Cl
ENDBRANCH  24  26
ENDBRANCH  23  24
ENDBRANCH  17  18
BRANCH   1  34
ATOM     33  C   UNL     1      -0.450   9.042  21.670  0.00  0.00    +0.000 C 
ATOM     34  C   UNL     1      -0.247  10.130  22.719  0.00  0.00    +0.000 C 
ENDBRANCH   1  34
TORSDOF 4
ENDMDL
MODEL 9
REMARK VINA RESULT:      -6.8      6.525      9.598
REMARK  Name = 
REMARK  6 active torsions:
REMARK  status: ('A' for Active; 'I' for Inactive)
REMARK    1  A    between atoms: C_1  and  C_2
REMARK    2  A    between atoms: C_2  and  N_3
REMARK    3  A    between atoms: N_15  and  C_16
REMARK    4  A    between atoms: C_19  and  C_20
REMARK    5  A    between atoms: C_25  and  N_26
REMARK    6  A    between atoms: N_26  and  C_27
REMARK                            x       y       z     vdW  Elec       q    Type
REMARK                         _______ _______ _______ _____ _____    ______ ____
ROOT
ATOM      1  N   UNL     1       5.782  15.067  19.352  0.00  0.00    +0.000 N 
ATOM      2  C   UNL     1       5.477  14.844  20.717  0.00  0.00    +0.000 A 
ATOM      3  O   UNL     1       4.431  14.358  21.132  0.00  0.00    +0.000 OA
ATOM      4  C   UNL     1       6.662  15.250  21.557  0.00  0.00    +0.000 A 
ATOM      5  C   UNL     1       7.026  14.973  22.834  0.00  0.00    +0.000 C 
ATOM      6  S   UNL     1       5.879  14.176  23.958  0.00  0.00    +0.000 S 
ATOM      7  C   UNL     1       7.071  14.369  25.285  0.00  0.00    +0.000 A 
ATOM      8  C   UNL     1       6.885  14.022  26.620  0.00  0.00    +0.000 A 
ATOM      9  C   UNL     1       7.946  14.195  27.512  0.00  0.00    +0.000 A 
ATOM     10  C   UNL     1       9.164  14.710  27.067  0.00  0.00    +0.000 A 
ATOM     11  C   UNL     1       9.329  15.084  25.733  0.00  0.00    +0.000 A 
ATOM     12  C   UNL     1       8.280  14.926  24.830  0.00  0.00    +0.000 A 
ATOM     13  N   UNL     1       8.272  15.273  23.466  0.00  0.00    +0.000 N 
ATOM     14  C   UNL     1       9.517  15.694  22.834  0.00  0.00    +0.000 C 
ATOM     15  S   UNL     1       7.644  16.283  20.584  0.00  0.00    +0.000 S 
ATOM     16  C   UNL     1       7.004  15.658  19.122  0.00  0.00    +0.000 A 
ATOM     17  C   UNL     1       7.692  15.754  17.966  0.00  0.00    +0.000 C 
ENDROOT
BRANCH  17  18
ATOM     18  C   UNL     1       9.095  16.264  17.963  0.00  0.00    +0.000 A 
ATOM     19  C   UNL     1       9.247  17.660  18.034  0.00  0.00    +0.000 A 
ATOM     20  C   UNL     1      10.471  18.223  17.706  0.00  0.00    +0.000 A 
ATOM     21  N   UNL     1      11.549  17.506  17.339  0.00  0.00    +0.000 NA
ATOM     22  C   UNL     1      11.386  16.163  17.288  0.00  0.00    +0.000 A 
ATOM     23  C   UNL     1      10.200  15.475  17.575  0.00  0.00    +0.000 A 
BRANCH  23  24
ATOM     24  N   UNL     1      10.159  14.083  17.379  0.00  0.00    +0.000 N 
ATOM     25  H   UNL     1      10.540  13.767  16.491  0.00  0.00    +0.000 HD
BRANCH  24  26
ATOM     26  C   UNL     1      10.037  13.012  18.284  0.00  0.00    +0.000 A 
ATOM     27  C   UNL     1       9.356  11.843  17.933  0.00  0.00    +0.000 A 
ATOM     28  C   UNL     1       9.172  10.816  18.862  0.00  0.00    +0.000 A 
ATOM     29  C   UNL     1       9.689  10.932  20.149  0.00  0.00    +0.000 A 
ATOM     30  C   UNL     1      10.412  12.064  20.509  0.00  0.00    +0.000 A 
ATOM     31  C   UNL     1      10.591  13.095  19.579  0.00  0.00    +0.000 A 
ATOM     32 CL   UNL     1      11.509  14.482  20.062  0.00  0.00    +0.000 Cl
ENDBRANCH  24  26
ENDBRANCH  23  24
ENDBRANCH  17  18
BRANCH   1  34
ATOM     33  C   UNL     1       3.938  16.007  18.015  0.00  0.00    +0.000 C 
ATOM     34  C   UNL     1       4.814  14.791  18.298  0.00  0.00    +0.000 C 
ENDBRANCH   1  34
TORSDOF 4
ENDMDL
