MODEL 1
REMARK VINA RESULT:      -8.6      0.000      0.000
REMARK  Name = 
REMARK  6 active torsions:
REMARK  status: ('A' for Active; 'I' for Inactive)
REMARK    1  A    between atoms: C_7  and  O_8
REMARK    2  A    between atoms: O_8  and  C_9
REMARK    3  A    between atoms: C_9  and  C_10
REMARK    4  A    between atoms: C_10  and  C_11
REMARK    5  A    between atoms: C_11  and  N_12
REMARK    6  A    between atoms: N_15  and  C_16
REMARK                            x       y       z     vdW  Elec       q    Type
REMARK                         _______ _______ _______ _____ _____    ______ ____
ROOT
ATOM      1  C   UNL     1       7.602   7.123  16.697  0.00  0.00    +0.000 C 
ENDROOT
BRANCH   1   2
ATOM      2  N   UNL     1       7.438   5.646  16.707  0.00  0.00    +0.000 NA
ATOM      3  C   UNL     1       7.388   5.000  18.044  0.00  0.00    +0.000 C 
ATOM      4  C   UNL     1       6.047   5.230  18.784  0.00  0.00    +0.000 C 
ATOM      5  N   UNL     1       4.951   4.900  17.867  0.00  0.00    +0.000 N 
ATOM      6  C   UNL     1       4.972   5.591  16.593  0.00  0.00    +0.000 C 
ATOM      7  C   UNL     1       6.276   5.231  15.889  0.00  0.00    +0.000 C 
BRANCH   5   8
ATOM      8  C   UNL     1       3.927   3.935  18.168  0.00  0.00    +0.000 A 
ATOM      9  C   UNL     1       3.969   2.621  17.670  0.00  0.00    +0.000 A 
ATOM     10  C   UNL     1       3.011   1.670  18.036  0.00  0.00    +0.000 A 
ATOM     11  C   UNL     1       1.935   2.052  18.869  0.00  0.00    +0.000 A 
ATOM     12  C   UNL     1       1.860   3.355  19.357  0.00  0.00    +0.000 A 
ATOM     13 CL   UNL     1       0.536   3.835  20.404  0.00  0.00    +0.000 Cl
ATOM     14  C   UNL     1       2.839   4.288  19.014  0.00  0.00    +0.000 A 
ENDBRANCH   5   8
ENDBRANCH   1   2
BRANCH   1  15
ATOM     15  C   UNL     1       7.982   7.694  18.076  0.00  0.00    +0.000 C 
BRANCH  15  16
ATOM     16  C   UNL     1       8.244   9.216  17.963  0.00  0.00    +0.000 C 
BRANCH  16  17
ATOM     17  O   UNL     1       8.903   9.747  19.068  0.00  0.00    +0.000 OA
BRANCH  17  24
ATOM     18  F   UNL     1       9.631  11.083  21.544  0.00  0.00    +0.000 F 
ATOM     19  C   UNL     1      10.065  11.504  20.331  0.00  0.00    +0.000 A 
ATOM     20  C   UNL     1      10.807  12.693  20.282  0.00  0.00    +0.000 A 
ATOM     21  C   UNL     1      11.208  13.164  19.040  0.00  0.00    +0.000 A 
ATOM     22  C   UNL     1      10.949  12.466  17.875  0.00  0.00    +0.000 A 
ATOM     23  C   UNL     1      10.212  11.297  17.894  0.00  0.00    +0.000 A 
ATOM     24  C   UNL     1       9.727  10.817  19.126  0.00  0.00    +0.000 A 
ATOM     25  C   UNL     1      11.372  13.287  16.709  0.00  0.00    +0.000 C 
ATOM     26  C   UNL     1      11.044  14.643  17.319  0.00  0.00    +0.000 C 
ATOM     27  C   UNL     1      11.696  14.527  18.705  0.00  0.00    +0.000 C 
ENDBRANCH  17  24
ENDBRANCH  16  17
ENDBRANCH  15  16
ENDBRANCH   1  15
TORSDOF 6
ENDMDL
MODEL 2
REMARK VINA RESULT:      -8.4      5.908      7.810
REMARK  Name = 
REMARK  6 active torsions:
REMARK  status: ('A' for Active; 'I' for Inactive)
REMARK    1  A    between atoms: C_7  and  O_8
REMARK    2  A    between atoms: O_8  and  C_9
REMARK    3  A    between atoms: C_9  and  C_10
REMARK    4  A    between atoms: C_10  and  C_11
REMARK    5  A    between atoms: C_11  and  N_12
REMARK    6  A    between atoms: N_15  and  C_16
REMARK                            x       y       z     vdW  Elec       q    Type
REMARK                         _______ _______ _______ _____ _____    ______ ____
ROOT
ATOM      1  C   UNL     1       2.200   2.953  20.647  0.00  0.00    +0.000 C 
ENDROOT
BRANCH   1   2
ATOM      2  N   UNL     1       2.831   2.278  19.483  0.00  0.00    +0.000 NA
ATOM      3  C   UNL     1       2.343   2.690  18.142  0.00  0.00    +0.000 C 
ATOM      4  C   UNL     1       2.857   4.086  17.707  0.00  0.00    +0.000 C 
ATOM      5  N   UNL     1       4.309   4.126  17.906  0.00  0.00    +0.000 N 
ATOM      6  C   UNL     1       4.767   3.791  19.239  0.00  0.00    +0.000 C 
ATOM      7  C   UNL     1       4.307   2.369  19.547  0.00  0.00    +0.000 C 
BRANCH   5   8
ATOM      8  C   UNL     1       5.245   4.440  16.859  0.00  0.00    +0.000 A 
ATOM      9  C   UNL     1       6.377   5.243  17.086  0.00  0.00    +0.000 A 
ATOM     10  C   UNL     1       7.321   5.474  16.081  0.00  0.00    +0.000 A 
ATOM     11  C   UNL     1       7.103   4.949  14.787  0.00  0.00    +0.000 A 
ATOM     12  C   UNL     1       5.977   4.168  14.533  0.00  0.00    +0.000 A 
ATOM     13 CL   UNL     1       5.705   3.498  12.934  0.00  0.00    +0.000 Cl
ATOM     14  C   UNL     1       5.057   3.914  15.551  0.00  0.00    +0.000 A 
ENDBRANCH   5   8
ENDBRANCH   1   2
BRANCH   1  15
ATOM     15  C   UNL     1       1.263   4.105  20.238  0.00  0.00    +0.000 C 
BRANCH  15  16
ATOM     16  C   UNL     1       1.718   5.421  20.915  0.00  0.00    +0.000 C 
BRANCH  16  17
ATOM     17  O   UNL     1       2.345   6.304  20.041  0.00  0.00    +0.000 OA
BRANCH  17  24
ATOM     18  F   UNL     1       3.010   7.427  17.445  0.00  0.00    +0.000 F 
ATOM     19  C   UNL     1       2.271   8.096  18.363  0.00  0.00    +0.000 A 
ATOM     20  C   UNL     1       1.913   9.420  18.071  0.00  0.00    +0.000 A 
ATOM     21  C   UNL     1       1.206  10.134  19.028  0.00  0.00    +0.000 A 
ATOM     22  C   UNL     1       0.801   9.558  20.218  0.00  0.00    +0.000 A 
ATOM     23  C   UNL     1       1.148   8.258  20.534  0.00  0.00    +0.000 A 
ATOM     24  C   UNL     1       1.924   7.518  19.621  0.00  0.00    +0.000 A 
ATOM     25  C   UNL     1       0.196  10.603  21.086  0.00  0.00    +0.000 C 
ATOM     26  C   UNL     1       1.081  11.752  20.622  0.00  0.00    +0.000 C 
ATOM     27  C   UNL     1       1.008  11.606  19.095  0.00  0.00    +0.000 C 
ENDBRANCH  17  24
ENDBRANCH  16  17
ENDBRANCH  15  16
ENDBRANCH   1  15
TORSDOF 6
ENDMDL
MODEL 3
REMARK VINA RESULT:      -8.3      1.233      1.348
REMARK  Name = 
REMARK  6 active torsions:
REMARK  status: ('A' for Active; 'I' for Inactive)
REMARK    1  A    between atoms: C_7  and  O_8
REMARK    2  A    between atoms: O_8  and  C_9
REMARK    3  A    between atoms: C_9  and  C_10
REMARK    4  A    between atoms: C_10  and  C_11
REMARK    5  A    between atoms: C_11  and  N_12
REMARK    6  A    between atoms: N_15  and  C_16
REMARK                            x       y       z     vdW  Elec       q    Type
REMARK                         _______ _______ _______ _____ _____    ______ ____
ROOT
ATOM      1  C   UNL     1       7.818   7.136  18.150  0.00  0.00    +0.000 C 
ENDROOT
BRANCH   1   2
ATOM      2  N   UNL     1       7.068   6.110  17.380  0.00  0.00    +0.000 NA
ATOM      3  C   UNL     1       6.968   4.765  18.002  0.00  0.00    +0.000 C 
ATOM      4  C   UNL     1       5.972   4.713  19.187  0.00  0.00    +0.000 C 
ATOM      5  N   UNL     1       4.708   5.320  18.756  0.00  0.00    +0.000 N 
ATOM      6  C   UNL     1       4.811   6.661  18.216  0.00  0.00    +0.000 C 
ATOM      7  C   UNL     1       5.726   6.603  16.997  0.00  0.00    +0.000 C 
BRANCH   5   8
ATOM      8  C   UNL     1       3.440   4.644  18.820  0.00  0.00    +0.000 A 
ATOM      9  C   UNL     1       2.590   4.542  17.705  0.00  0.00    +0.000 A 
ATOM     10  C   UNL     1       1.399   3.812  17.758  0.00  0.00    +0.000 A 
ATOM     11  C   UNL     1       0.999   3.220  18.978  0.00  0.00    +0.000 A 
ATOM     12  C   UNL     1       1.815   3.326  20.103  0.00  0.00    +0.000 A 
ATOM     13 CL   UNL     1       1.337   2.581  21.618  0.00  0.00    +0.000 Cl
ATOM     14  C   UNL     1       3.020   4.027  20.031  0.00  0.00    +0.000 A 
ENDBRANCH   5   8
ENDBRANCH   1   2
BRANCH   1  15
ATOM     15  C   UNL     1       7.946   8.475  17.401  0.00  0.00    +0.000 C 
BRANCH  15  16
ATOM     16  C   UNL     1       8.444   9.576  18.369  0.00  0.00    +0.000 C 
BRANCH  16  17
ATOM     17  O   UNL     1       9.410  10.408  17.810  0.00  0.00    +0.000 OA
BRANCH  17  24
ATOM     18  F   UNL     1       9.742  10.614  20.690  0.00  0.00    +0.000 F 
ATOM     19  C   UNL     1      10.292  11.502  19.825  0.00  0.00    +0.000 A 
ATOM     20  C   UNL     1      10.953  12.613  20.365  0.00  0.00    +0.000 A 
ATOM     21  C   UNL     1      11.469  13.558  19.491  0.00  0.00    +0.000 A 
ATOM     22  C   UNL     1      11.400  13.398  18.119  0.00  0.00    +0.000 A 
ATOM     23  C   UNL     1      10.746  12.317  17.560  0.00  0.00    +0.000 A 
ATOM     24  C   UNL     1      10.148  11.368  18.411  0.00  0.00    +0.000 A 
ATOM     25  C   UNL     1      11.906  14.631  17.457  0.00  0.00    +0.000 C 
ATOM     26  C   UNL     1      11.418  15.612  18.513  0.00  0.00    +0.000 C 
ATOM     27  C   UNL     1      11.903  14.944  19.808  0.00  0.00    +0.000 C 
ENDBRANCH  17  24
ENDBRANCH  16  17
ENDBRANCH  15  16
ENDBRANCH   1  15
TORSDOF 6
ENDMDL
MODEL 4
REMARK VINA RESULT:      -8.0      5.948      8.266
REMARK  Name = 
REMARK  6 active torsions:
REMARK  status: ('A' for Active; 'I' for Inactive)
REMARK    1  A    between atoms: C_7  and  O_8
REMARK    2  A    between atoms: O_8  and  C_9
REMARK    3  A    between atoms: C_9  and  C_10
REMARK    4  A    between atoms: C_10  and  C_11
REMARK    5  A    between atoms: C_11  and  N_12
REMARK    6  A    between atoms: N_15  and  C_16
REMARK                            x       y       z     vdW  Elec       q    Type
REMARK                         _______ _______ _______ _____ _____    ______ ____
ROOT
ATOM      1  C   UNL     1       5.248   5.417  19.358  0.00  0.00    +0.000 C 
ENDROOT
BRANCH   1   2
ATOM      2  N   UNL     1       5.821   4.299  18.565  0.00  0.00    +0.000 NA
ATOM      3  C   UNL     1       4.903   3.643  17.599  0.00  0.00    +0.000 C 
ATOM      4  C   UNL     1       4.632   4.499  16.336  0.00  0.00    +0.000 C 
ATOM      5  N   UNL     1       5.920   4.951  15.799  0.00  0.00    +0.000 N 
ATOM      6  C   UNL     1       6.776   5.653  16.735  0.00  0.00    +0.000 C 
ATOM      7  C   UNL     1       7.075   4.706  17.893  0.00  0.00    +0.000 C 
BRANCH   5   8
ATOM      8  C   UNL     1       6.348   4.701  14.448  0.00  0.00    +0.000 A 
ATOM      9  C   UNL     1       7.414   5.404  13.860  0.00  0.00    +0.000 A 
ATOM     10  C   UNL     1       7.872   5.095  12.576  0.00  0.00    +0.000 A 
ATOM     11  C   UNL     1       7.208   4.103  11.820  0.00  0.00    +0.000 A 
ATOM     12  C   UNL     1       6.136   3.407  12.374  0.00  0.00    +0.000 A 
ATOM     13 CL   UNL     1       5.314   2.162  11.450  0.00  0.00    +0.000 Cl
ATOM     14  C   UNL     1       5.706   3.699  13.670  0.00  0.00    +0.000 A 
ENDBRANCH   5   8
ENDBRANCH   1   2
BRANCH   1  15
ATOM     15  C   UNL     1       3.767   5.201  19.720  0.00  0.00    +0.000 C 
BRANCH  15  16
ATOM     16  C   UNL     1       2.925   6.410  19.244  0.00  0.00    +0.000 C 
BRANCH  16  17
ATOM     17  O   UNL     1       2.393   7.158  20.290  0.00  0.00    +0.000 OA
BRANCH  17  24
ATOM     18  F   UNL     1       2.048   8.854  17.956  0.00  0.00    +0.000 F 
ATOM     19  C   UNL     1       1.356   9.044  19.106  0.00  0.00    +0.000 A 
ATOM     20  C   UNL     1       0.526  10.170  19.188  0.00  0.00    +0.000 A 
ATOM     21  C   UNL     1      -0.142  10.407  20.381  0.00  0.00    +0.000 A 
ATOM     22  C   UNL     1      -0.055   9.537  21.452  0.00  0.00    +0.000 A 
ATOM     23  C   UNL     1       0.763   8.425  21.401  0.00  0.00    +0.000 A 
ATOM     24  C   UNL     1       1.512   8.182  20.233  0.00  0.00    +0.000 A 
ATOM     25  C   UNL     1      -0.758  10.130  22.621  0.00  0.00    +0.000 C 
ATOM     26  C   UNL     1      -0.430  11.583  22.308  0.00  0.00    +0.000 C 
ATOM     27  C   UNL     1      -0.793  11.670  20.817  0.00  0.00    +0.000 C 
ENDBRANCH  17  24
ENDBRANCH  16  17
ENDBRANCH  15  16
ENDBRANCH   1  15
TORSDOF 6
ENDMDL
MODEL 5
REMARK VINA RESULT:      -8.0      7.498     11.087
REMARK  Name = 
REMARK  6 active torsions:
REMARK  status: ('A' for Active; 'I' for Inactive)
REMARK    1  A    between atoms: C_7  and  O_8
REMARK    2  A    between atoms: O_8  and  C_9
REMARK    3  A    between atoms: C_9  and  C_10
REMARK    4  A    between atoms: C_10  and  C_11
REMARK    5  A    between atoms: C_11  and  N_12
REMARK    6  A    between atoms: N_15  and  C_16
REMARK                            x       y       z     vdW  Elec       q    Type
REMARK                         _______ _______ _______ _____ _____    ______ ____
ROOT
ATOM      1  C   UNL     1       1.350   9.948  19.405  0.00  0.00    +0.000 C 
ENDROOT
BRANCH   1   2
ATOM      2  N   UNL     1      -0.072   9.958  19.835  0.00  0.00    +0.000 NA
ATOM      3  C   UNL     1      -0.341   9.498  21.221  0.00  0.00    +0.000 C 
ATOM      4  C   UNL     1       0.070  10.532  22.299  0.00  0.00    +0.000 C 
ATOM      5  N   UNL     1      -0.495  11.834  21.930  0.00  0.00    +0.000 N 
ATOM      6  C   UNL     1      -0.165  12.304  20.600  0.00  0.00    +0.000 C 
ATOM      7  C   UNL     1      -0.693  11.281  19.600  0.00  0.00    +0.000 C 
BRANCH   5   8
ATOM      8  C   UNL     1      -1.350  12.602  22.795  0.00  0.00    +0.000 A 
ATOM      9  C   UNL     1      -1.009  13.896  23.226  0.00  0.00    +0.000 A 
ATOM     10  C   UNL     1      -1.885  14.663  24.000  0.00  0.00    +0.000 A 
ATOM     11  C   UNL     1      -3.114  14.104  24.421  0.00  0.00    +0.000 A 
ATOM     12  C   UNL     1      -3.464  12.815  24.023  0.00  0.00    +0.000 A 
ATOM     13 CL   UNL     1      -4.993  12.117  24.527  0.00  0.00    +0.000 Cl
ATOM     14  C   UNL     1      -2.598  12.069  23.223  0.00  0.00    +0.000 A 
ENDBRANCH   5   8
ENDBRANCH   1   2
BRANCH   1  15
ATOM     15  C   UNL     1       1.532   9.513  17.939  0.00  0.00    +0.000 C 
BRANCH  15  16
ATOM     16  C   UNL     1       2.588   8.385  17.849  0.00  0.00    +0.000 C 
BRANCH  16  17
ATOM     17  O   UNL     1       2.657   7.601  18.998  0.00  0.00    +0.000 OA
BRANCH  17  24
ATOM     18  F   UNL     1       1.433   6.647  21.455  0.00  0.00    +0.000 F 
ATOM     19  C   UNL     1       1.665   5.839  20.392  0.00  0.00    +0.000 A 
ATOM     20  C   UNL     1       1.392   4.472  20.542  0.00  0.00    +0.000 A 
ATOM     21  C   UNL     1       1.679   3.626  19.480  0.00  0.00    +0.000 A 
ATOM     22  C   UNL     1       2.162   4.103  18.276  0.00  0.00    +0.000 A 
ATOM     23  C   UNL     1       2.448   5.444  18.104  0.00  0.00    +0.000 A 
ATOM     24  C   UNL     1       2.236   6.330  19.179  0.00  0.00    +0.000 A 
ATOM     25  C   UNL     1       2.503   2.953  17.396  0.00  0.00    +0.000 C 
ATOM     26  C   UNL     1       2.946   2.007  18.504  0.00  0.00    +0.000 C 
ATOM     27  C   UNL     1       1.793   2.144  19.510  0.00  0.00    +0.000 C 
ENDBRANCH  17  24
ENDBRANCH  16  17
ENDBRANCH  15  16
ENDBRANCH   1  15
TORSDOF 6
ENDMDL
MODEL 6
REMARK VINA RESULT:      -7.9      1.598      1.754
REMARK  Name = 
REMARK  6 active torsions:
REMARK  status: ('A' for Active; 'I' for Inactive)
REMARK    1  A    between atoms: C_7  and  O_8
REMARK    2  A    between atoms: O_8  and  C_9
REMARK    3  A    between atoms: C_9  and  C_10
REMARK    4  A    between atoms: C_10  and  C_11
REMARK    5  A    between atoms: C_11  and  N_12
REMARK    6  A    between atoms: N_15  and  C_16
REMARK                            x       y       z     vdW  Elec       q    Type
REMARK                         _______ _______ _______ _____ _____    ______ ____
ROOT
ATOM      1  C   UNL     1       6.960   8.058  17.679  0.00  0.00    +0.000 C 
ENDROOT
BRANCH   1   2
ATOM      2  N   UNL     1       6.829   6.677  17.144  0.00  0.00    +0.000 NA
ATOM      3  C   UNL     1       7.170   5.576  18.081  0.00  0.00    +0.000 C 
ATOM      4  C   UNL     1       6.089   5.340  19.165  0.00  0.00    +0.000 C 
ATOM      5  N   UNL     1       4.784   5.243  18.503  0.00  0.00    +0.000 N 
ATOM      6  C   UNL     1       4.433   6.359  17.647  0.00  0.00    +0.000 C 
ATOM      7  C   UNL     1       5.491   6.457  16.552  0.00  0.00    +0.000 C 
BRANCH   5   8
ATOM      8  C   UNL     1       3.902   4.115  18.646  0.00  0.00    +0.000 A 
ATOM      9  C   UNL     1       3.829   3.096  17.680  0.00  0.00    +0.000 A 
ATOM     10  C   UNL     1       3.030   1.966  17.870  0.00  0.00    +0.000 A 
ATOM     11  C   UNL     1       2.220   1.872  19.025  0.00  0.00    +0.000 A 
ATOM     12  C   UNL     1       2.259   2.879  19.986  0.00  0.00    +0.000 A 
ATOM     13 CL   UNL     1       1.269   2.765  21.431  0.00  0.00    +0.000 Cl
ATOM     14  C   UNL     1       3.086   3.989  19.804  0.00  0.00    +0.000 A 
ENDBRANCH   5   8
ENDBRANCH   1   2
BRANCH   1  15
ATOM     15  C   UNL     1       8.362   8.656  17.461  0.00  0.00    +0.000 C 
BRANCH  15  16
ATOM     16  C   UNL     1       8.623   9.780  18.494  0.00  0.00    +0.000 C 
BRANCH  16  17
ATOM     17  O   UNL     1       9.654  10.640  18.126  0.00  0.00    +0.000 OA
BRANCH  17  24
ATOM     18  F   UNL     1      11.602  11.505  20.101  0.00  0.00    +0.000 F 
ATOM     19  C   UNL     1      10.770  12.367  19.469  0.00  0.00    +0.000 A 
ATOM     20  C   UNL     1      10.793  13.710  19.874  0.00  0.00    +0.000 A 
ATOM     21  C   UNL     1       9.904  14.590  19.275  0.00  0.00    +0.000 A 
ATOM     22  C   UNL     1       9.054  14.192  18.260  0.00  0.00    +0.000 A 
ATOM     23  C   UNL     1       9.004  12.875  17.848  0.00  0.00    +0.000 A 
ATOM     24  C   UNL     1       9.841  11.932  18.476  0.00  0.00    +0.000 A 
ATOM     25  C   UNL     1       8.134  15.313  17.925  0.00  0.00    +0.000 C 
ATOM     26  C   UNL     1       8.036  15.888  19.331  0.00  0.00    +0.000 C 
ATOM     27  C   UNL     1       9.513  15.943  19.750  0.00  0.00    +0.000 C 
ENDBRANCH  17  24
ENDBRANCH  16  17
ENDBRANCH  15  16
ENDBRANCH   1  15
TORSDOF 6
ENDMDL
MODEL 7
REMARK VINA RESULT:      -7.8      2.054      3.181
REMARK  Name = 
REMARK  6 active torsions:
REMARK  status: ('A' for Active; 'I' for Inactive)
REMARK    1  A    between atoms: C_7  and  O_8
REMARK    2  A    between atoms: O_8  and  C_9
REMARK    3  A    between atoms: C_9  and  C_10
REMARK    4  A    between atoms: C_10  and  C_11
REMARK    5  A    between atoms: C_11  and  N_12
REMARK    6  A    between atoms: N_15  and  C_16
REMARK                            x       y       z     vdW  Elec       q    Type
REMARK                         _______ _______ _______ _____ _____    ______ ____
ROOT
ATOM      1  C   UNL     1       7.295   8.292  17.578  0.00  0.00    +0.000 C 
ENDROOT
BRANCH   1   2
ATOM      2  N   UNL     1       7.177   6.895  17.086  0.00  0.00    +0.000 NA
ATOM      3  C   UNL     1       7.474   5.826  18.073  0.00  0.00    +0.000 C 
ATOM      4  C   UNL     1       6.349   5.632  19.121  0.00  0.00    +0.000 C 
ATOM      5  N   UNL     1       5.071   5.518  18.411  0.00  0.00    +0.000 N 
ATOM      6  C   UNL     1       4.761   6.606  17.504  0.00  0.00    +0.000 C 
ATOM      7  C   UNL     1       5.862   6.661  16.449  0.00  0.00    +0.000 C 
BRANCH   5   8
ATOM      8  C   UNL     1       4.178   4.400  18.557  0.00  0.00    +0.000 A 
ATOM      9  C   UNL     1       4.183   3.317  17.661  0.00  0.00    +0.000 A 
ATOM     10  C   UNL     1       3.367   2.199  17.861  0.00  0.00    +0.000 A 
ATOM     11  C   UNL     1       2.463   2.183  18.948  0.00  0.00    +0.000 A 
ATOM     12  C   UNL     1       2.425   3.255  19.837  0.00  0.00    +0.000 A 
ATOM     13 CL   UNL     1       1.318   3.238  21.199  0.00  0.00    +0.000 Cl
ATOM     14  C   UNL     1       3.267   4.351  19.649  0.00  0.00    +0.000 A 
ENDBRANCH   5   8
ENDBRANCH   1   2
BRANCH   1  15
ATOM     15  C   UNL     1       8.545   8.520  18.448  0.00  0.00    +0.000 C 
BRANCH  15  16
ATOM     16  C   UNL     1       8.878  10.031  18.509  0.00  0.00    +0.000 C 
BRANCH  16  17
ATOM     17  O   UNL     1       9.612  10.390  19.636  0.00  0.00    +0.000 OA
BRANCH  17  24
ATOM     18  F   UNL     1      10.818  13.033  19.580  0.00  0.00    +0.000 F 
ATOM     19  C   UNL     1       9.955  12.644  20.550  0.00  0.00    +0.000 A 
ATOM     20  C   UNL     1       9.731  13.527  21.616  0.00  0.00    +0.000 A 
ATOM     21  C   UNL     1       8.896  13.116  22.644  0.00  0.00    +0.000 A 
ATOM     22  C   UNL     1       8.242  11.898  22.610  0.00  0.00    +0.000 A 
ATOM     23  C   UNL     1       8.452  11.005  21.577  0.00  0.00    +0.000 A 
ATOM     24  C   UNL     1       9.345  11.353  20.546  0.00  0.00    +0.000 A 
ATOM     25  C   UNL     1       7.542  11.684  23.905  0.00  0.00    +0.000 C 
ATOM     26  C   UNL     1       8.560  12.405  24.779  0.00  0.00    +0.000 C 
ATOM     27  C   UNL     1       8.769  13.712  24.000  0.00  0.00    +0.000 C 
ENDBRANCH  17  24
ENDBRANCH  16  17
ENDBRANCH  15  16
ENDBRANCH   1  15
TORSDOF 6
ENDMDL
MODEL 8
REMARK VINA RESULT:      -7.8      1.667      1.965
REMARK  Name = 
REMARK  6 active torsions:
REMARK  status: ('A' for Active; 'I' for Inactive)
REMARK    1  A    between atoms: C_7  and  O_8
REMARK    2  A    between atoms: O_8  and  C_9
REMARK    3  A    between atoms: C_9  and  C_10
REMARK    4  A    between atoms: C_10  and  C_11
REMARK    5  A    between atoms: C_11  and  N_12
REMARK    6  A    between atoms: N_15  and  C_16
REMARK                            x       y       z     vdW  Elec       q    Type
REMARK                         _______ _______ _______ _____ _____    ______ ____
ROOT
ATOM      1  C   UNL     1       7.749   7.288  18.268  0.00  0.00    +0.000 C 
ENDROOT
BRANCH   1   2
ATOM      2  N   UNL     1       7.244   6.136  17.476  0.00  0.00    +0.000 NA
ATOM      3  C   UNL     1       7.311   4.807  18.136  0.00  0.00    +0.000 C 
ATOM      4  C   UNL     1       6.237   4.617  19.236  0.00  0.00    +0.000 C 
ATOM      5  N   UNL     1       4.934   4.997  18.681  0.00  0.00    +0.000 N 
ATOM      6  C   UNL     1       4.864   6.325  18.104  0.00  0.00    +0.000 C 
ATOM      7  C   UNL     1       5.879   6.393  16.967  0.00  0.00    +0.000 C 
BRANCH   5   8
ATOM      8  C   UNL     1       3.792   4.123  18.665  0.00  0.00    +0.000 A 
ATOM      9  C   UNL     1       3.318   3.534  17.480  0.00  0.00    +0.000 A 
ATOM     10  C   UNL     1       2.258   2.623  17.490  0.00  0.00    +0.000 A 
ATOM     11  C   UNL     1       1.598   2.336  18.706  0.00  0.00    +0.000 A 
ATOM     12  C   UNL     1       2.036   2.924  19.891  0.00  0.00    +0.000 A 
ATOM     13 CL   UNL     1       1.234   2.563  21.410  0.00  0.00    +0.000 Cl
ATOM     14  C   UNL     1       3.117   3.807  19.877  0.00  0.00    +0.000 A 
ENDBRANCH   5   8
ENDBRANCH   1   2
BRANCH   1  15
ATOM     15  C   UNL     1       8.147   8.490  17.393  0.00  0.00    +0.000 C 
BRANCH  15  16
ATOM     16  C   UNL     1       8.581   9.676  18.290  0.00  0.00    +0.000 C 
BRANCH  16  17
ATOM     17  O   UNL     1       8.469  10.913  17.663  0.00  0.00    +0.000 OA
BRANCH  17  24
ATOM     18  F   UNL     1       7.018  13.391  17.218  0.00  0.00    +0.000 F 
ATOM     19  C   UNL     1       8.216  13.349  17.851  0.00  0.00    +0.000 A 
ATOM     20  C   UNL     1       8.810  14.569  18.204  0.00  0.00    +0.000 A 
ATOM     21  C   UNL     1      10.062  14.541  18.800  0.00  0.00    +0.000 A 
ATOM     22  C   UNL     1      10.699  13.352  19.105  0.00  0.00    +0.000 A 
ATOM     23  C   UNL     1      10.140  12.136  18.761  0.00  0.00    +0.000 A 
ATOM     24  C   UNL     1       8.900  12.120  18.092  0.00  0.00    +0.000 A 
ATOM     25  C   UNL     1      12.070  13.645  19.600  0.00  0.00    +0.000 C 
ATOM     26  C   UNL     1      12.311  14.875  18.736  0.00  0.00    +0.000 C 
ATOM     27  C   UNL     1      11.015  15.670  18.956  0.00  0.00    +0.000 C 
ENDBRANCH  17  24
ENDBRANCH  16  17
ENDBRANCH  15  16
ENDBRANCH   1  15
TORSDOF 6
ENDMDL
MODEL 9
REMARK VINA RESULT:      -7.7      5.575      7.895
REMARK  Name = 
REMARK  6 active torsions:
REMARK  status: ('A' for Active; 'I' for Inactive)
REMARK    1  A    between atoms: C_7  and  O_8
REMARK    2  A    between atoms: O_8  and  C_9
REMARK    3  A    between atoms: C_9  and  C_10
REMARK    4  A    between atoms: C_10  and  C_11
REMARK    5  A    between atoms: C_11  and  N_12
REMARK    6  A    between atoms: N_15  and  C_16
REMARK                            x       y       z     vdW  Elec       q    Type
REMARK                         _______ _______ _______ _____ _____    ______ ____
ROOT
ATOM      1  C   UNL     1       1.556   2.579  20.027  0.00  0.00    +0.000 C 
ENDROOT
BRANCH   1   2
ATOM      2  N   UNL     1       2.761   2.026  19.356  0.00  0.00    +0.000 NA
ATOM      3  C   UNL     1       2.736   2.008  17.872  0.00  0.00    +0.000 C 
ATOM      4  C   UNL     1       2.934   3.409  17.240  0.00  0.00    +0.000 C 
ATOM      5  N   UNL     1       4.110   4.032  17.858  0.00  0.00    +0.000 N 
ATOM      6  C   UNL     1       4.089   4.107  19.305  0.00  0.00    +0.000 C 
ATOM      7  C   UNL     1       3.994   2.684  19.844  0.00  0.00    +0.000 C 
BRANCH   5   8
ATOM      8  C   UNL     1       5.239   4.515  17.108  0.00  0.00    +0.000 A 
ATOM      9  C   UNL     1       5.694   3.871  15.944  0.00  0.00    +0.000 A 
ATOM     10  C   UNL     1       6.740   4.397  15.180  0.00  0.00    +0.000 A 
ATOM     11  C   UNL     1       7.405   5.564  15.620  0.00  0.00    +0.000 A 
ATOM     12  C   UNL     1       6.985   6.208  16.782  0.00  0.00    +0.000 A 
ATOM     13 CL   UNL     1       7.794   7.666  17.329  0.00  0.00    +0.000 Cl
ATOM     14  C   UNL     1       5.918   5.695  17.521  0.00  0.00    +0.000 A 
ENDBRANCH   5   8
ENDBRANCH   1   2
BRANCH   1  15
ATOM     15  C   UNL     1       1.895   3.619  21.111  0.00  0.00    +0.000 C 
BRANCH  15  16
ATOM     16  C   UNL     1       1.139   4.941  20.830  0.00  0.00    +0.000 C 
BRANCH  16  17
ATOM     17  O   UNL     1       1.984   6.024  20.606  0.00  0.00    +0.000 OA
BRANCH  17  24
ATOM     18  F   UNL     1       2.792   6.858  17.943  0.00  0.00    +0.000 F 
ATOM     19  C   UNL     1       2.106   7.668  18.786  0.00  0.00    +0.000 A 
ATOM     20  C   UNL     1       1.880   8.991  18.378  0.00  0.00    +0.000 A 
ATOM     21  C   UNL     1       1.230   9.845  19.257  0.00  0.00    +0.000 A 
ATOM     22  C   UNL     1       0.754   9.411  20.481  0.00  0.00    +0.000 A 
ATOM     23  C   UNL     1       0.971   8.116  20.910  0.00  0.00    +0.000 A 
ATOM     24  C   UNL     1       1.687   7.232  20.079  0.00  0.00    +0.000 A 
ATOM     25  C   UNL     1       0.239  10.577  21.247  0.00  0.00    +0.000 C 
ATOM     26  C   UNL     1       1.236  11.596  20.711  0.00  0.00    +0.000 C 
ATOM     27  C   UNL     1       1.172  11.329  19.199  0.00  0.00    +0.000 C 
ENDBRANCH  17  24
ENDBRANCH  16  17
ENDBRANCH  15  16
ENDBRANCH   1  15
TORSDOF 6
ENDMDL
