MODEL 1
REMARK VINA RESULT:      -8.1      0.000      0.000
REMARK  Name = 
REMARK  6 active torsions:
REMARK  status: ('A' for Active; 'I' for Inactive)
REMARK    1  A    between atoms: C_2  and  C_22
REMARK    2  A    between atoms: N_3  and  C_4
REMARK    3  A    between atoms: C_4  and  C_5
REMARK    4  A    between atoms: C_8  and  C_9
REMARK    5  A    between atoms: C_9  and  S_10
REMARK    6  A    between atoms: S_10  and  C_11
REMARK                            x       y       z     vdW  Elec       q    Type
REMARK                         _______ _______ _______ _____ _____    ______ ____
ROOT
ATOM      1  C   UNL     1       1.836   6.892  19.965  0.00  0.00    +0.000 A 
ATOM      2  C   UNL     1       2.101   6.749  18.598  0.00  0.00    +0.000 A 
ATOM      3  C   UNL     1       2.128   5.482  18.003  0.00  0.00    +0.000 A 
ATOM      4  C   UNL     1       1.902   4.323  18.761  0.00  0.00    +0.000 A 
ATOM      5  C   UNL     1       1.602   4.472  20.123  0.00  0.00    +0.000 A 
ATOM      6  C   UNL     1       1.565   5.741  20.718  0.00  0.00    +0.000 A 
ENDROOT
BRANCH   1   7
ATOM      7  C   UNL     1       1.833   8.258  20.604  0.00  0.00    +0.000 C 
BRANCH   7  10
ATOM      8  O   UNL     1       1.529  10.205  18.624  0.00  0.00    +0.000 OA
ATOM      9  C   UNL     1       0.562   9.912  19.318  0.00  0.00    +0.000 C 
ATOM     10  N   UNL     1       0.609   8.975  20.329  0.00  0.00    +0.000 N 
ATOM     11  H   UNL     1      -0.249   8.603  20.711  0.00  0.00    +0.000 HD
BRANCH   9  12
ATOM     12  C   UNL     1      -0.753  10.546  19.072  0.00  0.00    +0.000 A 
ATOM     13  C   UNL     1      -1.572  10.197  17.998  0.00  0.00    +0.000 A 
ATOM     14  C   UNL     1      -2.799  10.837  17.838  0.00  0.00    +0.000 A 
ATOM     15  C   UNL     1      -3.166  11.803  18.762  0.00  0.00    +0.000 A 
ATOM     16  N   UNL     1      -2.405  12.154  19.822  0.00  0.00    +0.000 NA
ATOM     17  C   UNL     1      -1.218  11.510  19.961  0.00  0.00    +0.000 A 
ENDBRANCH   9  12
ENDBRANCH   7  10
ENDBRANCH   1   7
BRANCH   4  18
ATOM     18  C   UNL     1       1.957   2.947  18.120  0.00  0.00    +0.000 C 
BRANCH  18  19
ATOM     19  S   UNL     1       3.489   2.056  18.532  0.00  0.00    +0.000 S 
BRANCH  19  20
ATOM     20  C   UNL     1       4.714   3.267  18.214  0.00  0.00    +0.000 A 
ATOM     21  N   UNL     1       5.477   3.772  19.154  0.00  0.00    +0.000 NA
ATOM     22  C   UNL     1       6.259   4.790  18.619  0.00  0.00    +0.000 A 
ATOM     23  C   UNL     1       7.158   5.609  19.333  0.00  0.00    +0.000 A 
ATOM     24  C   UNL     1       7.830   6.649  18.677  0.00  0.00    +0.000 A 
ATOM     25  C   UNL     1       7.638   6.863  17.317  0.00  0.00    +0.000 A 
ATOM     26  C   UNL     1       6.782   6.043  16.577  0.00  0.00    +0.000 A 
ATOM     27  C   UNL     1       6.096   5.017  17.251  0.00  0.00    +0.000 A 
ATOM     28  S   UNL     1       4.960   3.882  16.633  0.00  0.00    +0.000 S 
ENDBRANCH  19  20
ENDBRANCH  18  19
ENDBRANCH   4  18
TORSDOF 6
ENDMDL
MODEL 2
REMARK VINA RESULT:      -8.1      0.597      1.321
REMARK  Name = 
REMARK  6 active torsions:
REMARK  status: ('A' for Active; 'I' for Inactive)
REMARK    1  A    between atoms: C_2  and  C_22
REMARK    2  A    between atoms: N_3  and  C_4
REMARK    3  A    between atoms: C_4  and  C_5
REMARK    4  A    between atoms: C_8  and  C_9
REMARK    5  A    between atoms: C_9  and  S_10
REMARK    6  A    between atoms: S_10  and  C_11
REMARK                            x       y       z     vdW  Elec       q    Type
REMARK                         _______ _______ _______ _____ _____    ______ ____
ROOT
ATOM      1  C   UNL     1       1.860   7.035  19.996  0.00  0.00    +0.000 A 
ATOM      2  C   UNL     1       1.525   5.906  20.752  0.00  0.00    +0.000 A 
ATOM      3  C   UNL     1       1.551   4.628  20.182  0.00  0.00    +0.000 A 
ATOM      4  C   UNL     1       1.902   4.445  18.835  0.00  0.00    +0.000 A 
ATOM      5  C   UNL     1       2.271   5.575  18.089  0.00  0.00    +0.000 A 
ATOM      6  C   UNL     1       2.255   6.853  18.663  0.00  0.00    +0.000 A 
ENDROOT
BRANCH   1   7
ATOM      7  C   UNL     1       1.806   8.410  20.610  0.00  0.00    +0.000 C 
BRANCH   7  10
ATOM      8  O   UNL     1       1.511  10.280  18.555  0.00  0.00    +0.000 OA
ATOM      9  C   UNL     1       0.534   9.994  19.238  0.00  0.00    +0.000 C 
ATOM     10  N   UNL     1       0.575   9.095  20.283  0.00  0.00    +0.000 N 
ATOM     11  H   UNL     1      -0.284   8.722  20.661  0.00  0.00    +0.000 HD
BRANCH   9  12
ATOM     12  C   UNL     1      -0.786  10.595  18.942  0.00  0.00    +0.000 A 
ATOM     13  C   UNL     1      -1.382  11.552  19.764  0.00  0.00    +0.000 A 
ATOM     14  C   UNL     1      -2.626  12.074  19.415  0.00  0.00    +0.000 A 
ATOM     15  C   UNL     1      -3.229  11.622  18.251  0.00  0.00    +0.000 A 
ATOM     16  N   UNL     1      -2.672  10.709  17.424  0.00  0.00    +0.000 NA
ATOM     17  C   UNL     1      -1.456  10.223  17.782  0.00  0.00    +0.000 A 
ENDBRANCH   9  12
ENDBRANCH   7  10
ENDBRANCH   1   7
BRANCH   4  18
ATOM     18  C   UNL     1       1.905   3.061  18.209  0.00  0.00    +0.000 C 
BRANCH  18  19
ATOM     19  S   UNL     1       3.427   2.138  18.583  0.00  0.00    +0.000 S 
BRANCH  19  20
ATOM     20  C   UNL     1       4.669   3.328  18.246  0.00  0.00    +0.000 A 
ATOM     21  N   UNL     1       5.444   3.832  19.176  0.00  0.00    +0.000 NA
ATOM     22  C   UNL     1       6.238   4.833  18.627  0.00  0.00    +0.000 A 
ATOM     23  C   UNL     1       7.152   5.646  19.328  0.00  0.00    +0.000 A 
ATOM     24  C   UNL     1       7.836   6.668  18.656  0.00  0.00    +0.000 A 
ATOM     25  C   UNL     1       7.641   6.871  17.295  0.00  0.00    +0.000 A 
ATOM     26  C   UNL     1       6.768   6.055  16.568  0.00  0.00    +0.000 A 
ATOM     27  C   UNL     1       6.071   5.047  17.257  0.00  0.00    +0.000 A 
ATOM     28  S   UNL     1       4.916   3.922  16.657  0.00  0.00    +0.000 S 
ENDBRANCH  19  20
ENDBRANCH  18  19
ENDBRANCH   4  18
TORSDOF 6
ENDMDL
MODEL 3
REMARK VINA RESULT:      -7.9      2.371      3.156
REMARK  Name = 
REMARK  6 active torsions:
REMARK  status: ('A' for Active; 'I' for Inactive)
REMARK    1  A    between atoms: C_2  and  C_22
REMARK    2  A    between atoms: N_3  and  C_4
REMARK    3  A    between atoms: C_4  and  C_5
REMARK    4  A    between atoms: C_8  and  C_9
REMARK    5  A    between atoms: C_9  and  S_10
REMARK    6  A    between atoms: S_10  and  C_11
REMARK                            x       y       z     vdW  Elec       q    Type
REMARK                         _______ _______ _______ _____ _____    ______ ____
ROOT
ATOM      1  C   UNL     1       1.941   8.611  18.869  0.00  0.00    +0.000 A 
ATOM      2  C   UNL     1       2.572   8.130  17.716  0.00  0.00    +0.000 A 
ATOM      3  C   UNL     1       3.107   6.837  17.679  0.00  0.00    +0.000 A 
ATOM      4  C   UNL     1       3.035   5.993  18.798  0.00  0.00    +0.000 A 
ATOM      5  C   UNL     1       2.371   6.465  19.940  0.00  0.00    +0.000 A 
ATOM      6  C   UNL     1       1.826   7.756  19.974  0.00  0.00    +0.000 A 
ENDROOT
BRANCH   1   7
ATOM      7  C   UNL     1       1.389  10.013  18.910  0.00  0.00    +0.000 C 
BRANCH   7  10
ATOM      8  O   UNL     1      -1.130  10.742  19.876  0.00  0.00    +0.000 OA
ATOM      9  C   UNL     1      -0.998  10.522  18.677  0.00  0.00    +0.000 C 
ATOM     10  N   UNL     1       0.197  10.144  18.101  0.00  0.00    +0.000 N 
ATOM     11  H   UNL     1       0.314  10.200  17.099  0.00  0.00    +0.000 HD
BRANCH   9  12
ATOM     12  C   UNL     1      -2.145  10.690  17.756  0.00  0.00    +0.000 A 
ATOM     13  C   UNL     1      -2.233  10.029  16.531  0.00  0.00    +0.000 A 
ATOM     14  C   UNL     1      -3.348  10.236  15.721  0.00  0.00    +0.000 A 
ATOM     15  C   UNL     1      -4.338  11.097  16.169  0.00  0.00    +0.000 A 
ATOM     16  N   UNL     1      -4.292  11.740  17.355  0.00  0.00    +0.000 NA
ATOM     17  C   UNL     1      -3.201  11.514  18.130  0.00  0.00    +0.000 A 
ENDBRANCH   9  12
ENDBRANCH   7  10
ENDBRANCH   1   7
BRANCH   4  18
ATOM     18  C   UNL     1       3.639   4.599  18.767  0.00  0.00    +0.000 C 
BRANCH  18  19
ATOM     19  S   UNL     1       5.457   4.636  18.782  0.00  0.00    +0.000 S 
BRANCH  19  20
ATOM     20  C   UNL     1       5.838   4.679  17.073  0.00  0.00    +0.000 A 
ATOM     21  N   UNL     1       5.190   3.970  16.180  0.00  0.00    +0.000 NA
ATOM     22  C   UNL     1       5.796   4.121  14.938  0.00  0.00    +0.000 A 
ATOM     23  C   UNL     1       5.422   3.466  13.746  0.00  0.00    +0.000 A 
ATOM     24  C   UNL     1       6.171   3.658  12.578  0.00  0.00    +0.000 A 
ATOM     25  C   UNL     1       7.268   4.512  12.576  0.00  0.00    +0.000 A 
ATOM     26  C   UNL     1       7.639   5.203  13.734  0.00  0.00    +0.000 A 
ATOM     27  C   UNL     1       6.893   4.985  14.906  0.00  0.00    +0.000 A 
ATOM     28  S   UNL     1       7.121   5.648  16.477  0.00  0.00    +0.000 S 
ENDBRANCH  19  20
ENDBRANCH  18  19
ENDBRANCH   4  18
TORSDOF 6
ENDMDL
MODEL 4
REMARK VINA RESULT:      -7.8      1.616      2.377
REMARK  Name = 
REMARK  6 active torsions:
REMARK  status: ('A' for Active; 'I' for Inactive)
REMARK    1  A    between atoms: C_2  and  C_22
REMARK    2  A    between atoms: N_3  and  C_4
REMARK    3  A    between atoms: C_4  and  C_5
REMARK    4  A    between atoms: C_8  and  C_9
REMARK    5  A    between atoms: C_9  and  S_10
REMARK    6  A    between atoms: S_10  and  C_11
REMARK                            x       y       z     vdW  Elec       q    Type
REMARK                         _______ _______ _______ _____ _____    ______ ____
ROOT
ATOM      1  C   UNL     1       1.985   7.861  18.667  0.00  0.00    +0.000 A 
ATOM      2  C   UNL     1       2.046   7.457  20.006  0.00  0.00    +0.000 A 
ATOM      3  C   UNL     1       2.099   6.099  20.343  0.00  0.00    +0.000 A 
ATOM      4  C   UNL     1       2.083   5.108  19.350  0.00  0.00    +0.000 A 
ATOM      5  C   UNL     1       2.059   5.517  18.007  0.00  0.00    +0.000 A 
ATOM      6  C   UNL     1       2.015   6.876  17.670  0.00  0.00    +0.000 A 
ENDROOT
BRANCH   1   7
ATOM      7  C   UNL     1       1.903   9.324  18.313  0.00  0.00    +0.000 C 
BRANCH   7  10
ATOM      8  O   UNL     1      -0.303  10.153  19.814  0.00  0.00    +0.000 OA
ATOM      9  C   UNL     1      -0.412  10.080  18.595  0.00  0.00    +0.000 C 
ATOM     10  N   UNL     1       0.611   9.670  17.765  0.00  0.00    +0.000 N 
ATOM     11  H   UNL     1       0.554   9.846  16.771  0.00  0.00    +0.000 HD
BRANCH   9  12
ATOM     12  C   UNL     1      -1.676  10.474  17.932  0.00  0.00    +0.000 A 
ATOM     13  C   UNL     1      -2.069   9.969  16.692  0.00  0.00    +0.000 A 
ATOM     14  C   UNL     1      -3.276  10.385  16.136  0.00  0.00    +0.000 A 
ATOM     15  C   UNL     1      -4.051  11.292  16.843  0.00  0.00    +0.000 A 
ATOM     16  N   UNL     1      -3.709  11.788  18.052  0.00  0.00    +0.000 NA
ATOM     17  C   UNL     1      -2.533  11.360  18.577  0.00  0.00    +0.000 A 
ENDBRANCH   9  12
ENDBRANCH   7  10
ENDBRANCH   1   7
BRANCH   4  18
ATOM     18  C   UNL     1       2.116   3.634  19.716  0.00  0.00    +0.000 C 
BRANCH  18  19
ATOM     19  S   UNL     1       3.811   3.022  19.962  0.00  0.00    +0.000 S 
BRANCH  19  20
ATOM     20  C   UNL     1       4.645   3.681  18.570  0.00  0.00    +0.000 A 
ATOM     21  N   UNL     1       4.443   3.249  17.348  0.00  0.00    +0.000 NA
ATOM     22  C   UNL     1       5.332   3.875  16.481  0.00  0.00    +0.000 A 
ATOM     23  C   UNL     1       5.461   3.624  15.099  0.00  0.00    +0.000 A 
ATOM     24  C   UNL     1       6.454   4.280  14.359  0.00  0.00    +0.000 A 
ATOM     25  C   UNL     1       7.298   5.198  14.971  0.00  0.00    +0.000 A 
ATOM     26  C   UNL     1       7.169   5.493  16.332  0.00  0.00    +0.000 A 
ATOM     27  C   UNL     1       6.183   4.813  17.069  0.00  0.00    +0.000 A 
ATOM     28  S   UNL     1       5.809   4.928  18.744  0.00  0.00    +0.000 S 
ENDBRANCH  19  20
ENDBRANCH  18  19
ENDBRANCH   4  18
TORSDOF 6
ENDMDL
MODEL 5
REMARK VINA RESULT:      -7.8      3.656     10.001
REMARK  Name = 
REMARK  6 active torsions:
REMARK  status: ('A' for Active; 'I' for Inactive)
REMARK    1  A    between atoms: C_2  and  C_22
REMARK    2  A    between atoms: N_3  and  C_4
REMARK    3  A    between atoms: C_4  and  C_5
REMARK    4  A    between atoms: C_8  and  C_9
REMARK    5  A    between atoms: C_9  and  S_10
REMARK    6  A    between atoms: S_10  and  C_11
REMARK                            x       y       z     vdW  Elec       q    Type
REMARK                         _______ _______ _______ _____ _____    ______ ____
ROOT
ATOM      1  C   UNL     1       2.156   7.401  19.425  0.00  0.00    +0.000 A 
ATOM      2  C   UNL     1       1.552   8.032  20.519  0.00  0.00    +0.000 A 
ATOM      3  C   UNL     1       1.015   9.319  20.396  0.00  0.00    +0.000 A 
ATOM      4  C   UNL     1       1.078  10.014  19.179  0.00  0.00    +0.000 A 
ATOM      5  C   UNL     1       1.652   9.365  18.075  0.00  0.00    +0.000 A 
ATOM      6  C   UNL     1       2.181   8.072  18.195  0.00  0.00    +0.000 A 
ENDROOT
BRANCH   1   7
ATOM      7  C   UNL     1       2.754   6.024  19.572  0.00  0.00    +0.000 C 
BRANCH   7  10
ATOM      8  O   UNL     1       5.494   5.482  19.635  0.00  0.00    +0.000 OA
ATOM      9  C   UNL     1       4.901   5.403  18.566  0.00  0.00    +0.000 C 
ATOM     10  N   UNL     1       3.554   5.663  18.423  0.00  0.00    +0.000 N 
ATOM     11  H   UNL     1       3.069   5.364  17.588  0.00  0.00    +0.000 HD
BRANCH   9  12
ATOM     12  C   UNL     1       5.620   4.979  17.342  0.00  0.00    +0.000 A 
ATOM     13  C   UNL     1       4.962   4.641  16.159  0.00  0.00    +0.000 A 
ATOM     14  C   UNL     1       5.710   4.255  15.048  0.00  0.00    +0.000 A 
ATOM     15  C   UNL     1       7.092   4.225  15.160  0.00  0.00    +0.000 A 
ATOM     16  N   UNL     1       7.760   4.561  16.284  0.00  0.00    +0.000 NA
ATOM     17  C   UNL     1       7.010   4.942  17.350  0.00  0.00    +0.000 A 
ENDBRANCH   9  12
ENDBRANCH   7  10
ENDBRANCH   1   7
BRANCH   4  18
ATOM     18  C   UNL     1       0.518  11.421  19.052  0.00  0.00    +0.000 C 
BRANCH  18  19
ATOM     19  S   UNL     1      -0.531  11.875  20.467  0.00  0.00    +0.000 S 
BRANCH  19  20
ATOM     20  C   UNL     1      -2.119  11.968  19.731  0.00  0.00    +0.000 A 
ATOM     21  N   UNL     1      -3.153  12.504  20.333  0.00  0.00    +0.000 NA
ATOM     22  C   UNL     1      -4.290  12.320  19.554  0.00  0.00    +0.000 A 
ATOM     23  C   UNL     1      -5.603  12.704  19.898  0.00  0.00    +0.000 A 
ATOM     24  C   UNL     1      -6.670  12.389  19.045  0.00  0.00    +0.000 A 
ATOM     25  C   UNL     1      -6.441  11.723  17.847  0.00  0.00    +0.000 A 
ATOM     26  C   UNL     1      -5.145  11.364  17.464  0.00  0.00    +0.000 A 
ATOM     27  C   UNL     1      -4.086  11.665  18.338  0.00  0.00    +0.000 A 
ATOM     28  S   UNL     1      -2.408  11.322  18.169  0.00  0.00    +0.000 S 
ENDBRANCH  19  20
ENDBRANCH  18  19
ENDBRANCH   4  18
TORSDOF 6
ENDMDL
MODEL 6
REMARK VINA RESULT:      -7.8      1.330      1.711
REMARK  Name = 
REMARK  6 active torsions:
REMARK  status: ('A' for Active; 'I' for Inactive)
REMARK    1  A    between atoms: C_2  and  C_22
REMARK    2  A    between atoms: N_3  and  C_4
REMARK    3  A    between atoms: C_4  and  C_5
REMARK    4  A    between atoms: C_8  and  C_9
REMARK    5  A    between atoms: C_9  and  S_10
REMARK    6  A    between atoms: S_10  and  C_11
REMARK                            x       y       z     vdW  Elec       q    Type
REMARK                         _______ _______ _______ _____ _____    ______ ____
ROOT
ATOM      1  C   UNL     1       1.748   6.622  20.239  0.00  0.00    +0.000 A 
ATOM      2  C   UNL     1       1.478   5.372  20.809  0.00  0.00    +0.000 A 
ATOM      3  C   UNL     1       1.570   4.202  20.047  0.00  0.00    +0.000 A 
ATOM      4  C   UNL     1       1.923   4.250  18.690  0.00  0.00    +0.000 A 
ATOM      5  C   UNL     1       2.228   5.500  18.130  0.00  0.00    +0.000 A 
ATOM      6  C   UNL     1       2.146   6.671  18.896  0.00  0.00    +0.000 A 
ENDROOT
BRANCH   1   7
ATOM      7  C   UNL     1       1.623   7.880  21.060  0.00  0.00    +0.000 C 
BRANCH   7  10
ATOM      8  O   UNL     1       0.231  10.095  22.041  0.00  0.00    +0.000 OA
ATOM      9  C   UNL     1       0.506  10.052  20.847  0.00  0.00    +0.000 C 
ATOM     10  N   UNL     1       1.178   8.999  20.260  0.00  0.00    +0.000 N 
ATOM     11  H   UNL     1       1.582   9.109  19.341  0.00  0.00    +0.000 HD
BRANCH   9  12
ATOM     12  C   UNL     1       0.149  11.179  19.956  0.00  0.00    +0.000 A 
ATOM     13  C   UNL     1      -1.088  11.276  19.318  0.00  0.00    +0.000 A 
ATOM     14  C   UNL     1      -1.351  12.371  18.498  0.00  0.00    +0.000 A 
ATOM     15  C   UNL     1      -0.365  13.335  18.348  0.00  0.00    +0.000 A 
ATOM     16  N   UNL     1       0.836  13.281  18.964  0.00  0.00    +0.000 NA
ATOM     17  C   UNL     1       1.064  12.209  19.764  0.00  0.00    +0.000 A 
ENDBRANCH   9  12
ENDBRANCH   7  10
ENDBRANCH   1   7
BRANCH   4  18
ATOM     18  C   UNL     1       1.998   2.982  17.856  0.00  0.00    +0.000 C 
BRANCH  18  19
ATOM     19  S   UNL     1       3.534   2.054  18.149  0.00  0.00    +0.000 S 
BRANCH  19  20
ATOM     20  C   UNL     1       4.756   3.294  17.949  0.00  0.00    +0.000 A 
ATOM     21  N   UNL     1       5.481   3.746  18.944  0.00  0.00    +0.000 NA
ATOM     22  C   UNL     1       6.268   4.804  18.501  0.00  0.00    +0.000 A 
ATOM     23  C   UNL     1       7.134   5.585  19.296  0.00  0.00    +0.000 A 
ATOM     24  C   UNL     1       7.814   6.670  18.729  0.00  0.00    +0.000 A 
ATOM     25  C   UNL     1       7.665   6.969  17.380  0.00  0.00    +0.000 A 
ATOM     26  C   UNL     1       6.843   6.189  16.561  0.00  0.00    +0.000 A 
ATOM     27  C   UNL     1       6.147   5.116  17.145  0.00  0.00    +0.000 A 
ATOM     28  S   UNL     1       5.046   4.011  16.419  0.00  0.00    +0.000 S 
ENDBRANCH  19  20
ENDBRANCH  18  19
ENDBRANCH   4  18
TORSDOF 6
ENDMDL
MODEL 7
REMARK VINA RESULT:      -7.8      4.357     10.008
REMARK  Name = 
REMARK  6 active torsions:
REMARK  status: ('A' for Active; 'I' for Inactive)
REMARK    1  A    between atoms: C_2  and  C_22
REMARK    2  A    between atoms: N_3  and  C_4
REMARK    3  A    between atoms: C_4  and  C_5
REMARK    4  A    between atoms: C_8  and  C_9
REMARK    5  A    between atoms: C_9  and  S_10
REMARK    6  A    between atoms: S_10  and  C_11
REMARK                            x       y       z     vdW  Elec       q    Type
REMARK                         _______ _______ _______ _____ _____    ______ ____
ROOT
ATOM      1  C   UNL     1       2.295   7.281  19.321  0.00  0.00    +0.000 A 
ATOM      2  C   UNL     1       1.684   7.741  20.494  0.00  0.00    +0.000 A 
ATOM      3  C   UNL     1       1.043   8.984  20.527  0.00  0.00    +0.000 A 
ATOM      4  C   UNL     1       1.002   9.807  19.391  0.00  0.00    +0.000 A 
ATOM      5  C   UNL     1       1.584   9.328  18.207  0.00  0.00    +0.000 A 
ATOM      6  C   UNL     1       2.218   8.078  18.170  0.00  0.00    +0.000 A 
ENDROOT
BRANCH   1   7
ATOM      7  C   UNL     1       3.006   5.952  19.299  0.00  0.00    +0.000 C 
BRANCH   7  10
ATOM      8  O   UNL     1       5.655   5.078  19.142  0.00  0.00    +0.000 OA
ATOM      9  C   UNL     1       5.047   5.310  18.104  0.00  0.00    +0.000 C 
ATOM     10  N   UNL     1       3.742   5.758  18.071  0.00  0.00    +0.000 N 
ATOM     11  H   UNL     1       3.216   5.713  17.210  0.00  0.00    +0.000 HD
BRANCH   9  12
ATOM     12  C   UNL     1       5.694   5.082  16.791  0.00  0.00    +0.000 A 
ATOM     13  C   UNL     1       5.132   4.275  15.802  0.00  0.00    +0.000 A 
ATOM     14  C   UNL     1       5.801   4.113  14.590  0.00  0.00    +0.000 A 
ATOM     15  C   UNL     1       7.009   4.769  14.411  0.00  0.00    +0.000 A 
ATOM     16  N   UNL     1       7.573   5.570  15.340  0.00  0.00    +0.000 NA
ATOM     17  C   UNL     1       6.898   5.719  16.509  0.00  0.00    +0.000 A 
ENDBRANCH   9  12
ENDBRANCH   7  10
ENDBRANCH   1   7
BRANCH   4  18
ATOM     18  C   UNL     1       0.328  11.167  19.434  0.00  0.00    +0.000 C 
BRANCH  18  19
ATOM     19  S   UNL     1       1.172  12.319  20.560  0.00  0.00    +0.000 S 
BRANCH  19  20
ATOM     20  C   UNL     1      -0.150  12.892  21.557  0.00  0.00    +0.000 A 
ATOM     21  N   UNL     1       0.010  13.773  22.515  0.00  0.00    +0.000 NA
ATOM     22  C   UNL     1      -1.188  13.934  23.203  0.00  0.00    +0.000 A 
ATOM     23  C   UNL     1      -1.392  14.750  24.336  0.00  0.00    +0.000 A 
ATOM     24  C   UNL     1      -2.640  14.760  24.974  0.00  0.00    +0.000 A 
ATOM     25  C   UNL     1      -3.689  13.992  24.483  0.00  0.00    +0.000 A 
ATOM     26  C   UNL     1      -3.525  13.203  23.340  0.00  0.00    +0.000 A 
ATOM     27  C   UNL     1      -2.262  13.183  22.721  0.00  0.00    +0.000 A 
ATOM     28  S   UNL     1      -1.743  12.295  21.342  0.00  0.00    +0.000 S 
ENDBRANCH  19  20
ENDBRANCH  18  19
ENDBRANCH   4  18
TORSDOF 6
ENDMDL
MODEL 8
REMARK VINA RESULT:      -7.7      1.495      1.616
REMARK  Name = 
REMARK  6 active torsions:
REMARK  status: ('A' for Active; 'I' for Inactive)
REMARK    1  A    between atoms: C_2  and  C_22
REMARK    2  A    between atoms: N_3  and  C_4
REMARK    3  A    between atoms: C_4  and  C_5
REMARK    4  A    between atoms: C_8  and  C_9
REMARK    5  A    between atoms: C_9  and  S_10
REMARK    6  A    between atoms: S_10  and  C_11
REMARK                            x       y       z     vdW  Elec       q    Type
REMARK                         _______ _______ _______ _____ _____    ______ ____
ROOT
ATOM      1  C   UNL     1       1.762   6.729  20.295  0.00  0.00    +0.000 A 
ATOM      2  C   UNL     1       2.158   6.795  18.954  0.00  0.00    +0.000 A 
ATOM      3  C   UNL     1       2.217   5.638  18.167  0.00  0.00    +0.000 A 
ATOM      4  C   UNL     1       1.891   4.383  18.703  0.00  0.00    +0.000 A 
ATOM      5  C   UNL     1       1.460   4.326  20.038  0.00  0.00    +0.000 A 
ATOM      6  C   UNL     1       1.392   5.485  20.823  0.00  0.00    +0.000 A 
ENDROOT
BRANCH   1   7
ATOM      7  C   UNL     1       1.726   7.976  21.143  0.00  0.00    +0.000 C 
BRANCH   7  10
ATOM      8  O   UNL     1       0.716  10.305  22.309  0.00  0.00    +0.000 OA
ATOM      9  C   UNL     1       0.731  10.215  21.087  0.00  0.00    +0.000 C 
ATOM     10  N   UNL     1       1.195   9.105  20.412  0.00  0.00    +0.000 N 
ATOM     11  H   UNL     1       1.403   9.166  19.426  0.00  0.00    +0.000 HD
BRANCH   9  12
ATOM     12  C   UNL     1       0.267  11.344  20.249  0.00  0.00    +0.000 A 
ATOM     13  C   UNL     1      -0.966  11.970  20.439  0.00  0.00    +0.000 A 
ATOM     14  C   UNL     1      -1.329  13.031  19.611  0.00  0.00    +0.000 A 
ATOM     15  C   UNL     1      -0.442  13.430  18.623  0.00  0.00    +0.000 A 
ATOM     16  N   UNL     1       0.765  12.858  18.423  0.00  0.00    +0.000 NA
ATOM     17  C   UNL     1       1.100  11.833  19.248  0.00  0.00    +0.000 A 
ENDBRANCH   9  12
ENDBRANCH   7  10
ENDBRANCH   1   7
BRANCH   4  18
ATOM     18  C   UNL     1       1.980   3.125  17.857  0.00  0.00    +0.000 C 
BRANCH  18  19
ATOM     19  S   UNL     1       3.494   2.175  18.191  0.00  0.00    +0.000 S 
BRANCH  19  20
ATOM     20  C   UNL     1       4.741   3.388  17.986  0.00  0.00    +0.000 A 
ATOM     21  N   UNL     1       5.481   3.825  18.977  0.00  0.00    +0.000 NA
ATOM     22  C   UNL     1       6.289   4.865  18.530  0.00  0.00    +0.000 A 
ATOM     23  C   UNL     1       7.174   5.627  19.321  0.00  0.00    +0.000 A 
ATOM     24  C   UNL     1       7.876   6.697  18.751  0.00  0.00    +0.000 A 
ATOM     25  C   UNL     1       7.727   6.998  17.402  0.00  0.00    +0.000 A 
ATOM     26  C   UNL     1       6.885   6.236  16.587  0.00  0.00    +0.000 A 
ATOM     27  C   UNL     1       6.169   5.178  17.175  0.00  0.00    +0.000 A 
ATOM     28  S   UNL     1       5.041   4.098  16.454  0.00  0.00    +0.000 S 
ENDBRANCH  19  20
ENDBRANCH  18  19
ENDBRANCH   4  18
TORSDOF 6
ENDMDL
MODEL 9
REMARK VINA RESULT:      -7.7      3.440      9.684
REMARK  Name = 
REMARK  6 active torsions:
REMARK  status: ('A' for Active; 'I' for Inactive)
REMARK    1  A    between atoms: C_2  and  C_22
REMARK    2  A    between atoms: N_3  and  C_4
REMARK    3  A    between atoms: C_4  and  C_5
REMARK    4  A    between atoms: C_8  and  C_9
REMARK    5  A    between atoms: C_9  and  S_10
REMARK    6  A    between atoms: S_10  and  C_11
REMARK                            x       y       z     vdW  Elec       q    Type
REMARK                         _______ _______ _______ _____ _____    ______ ____
ROOT
ATOM      1  C   UNL     1       2.157   6.831  19.906  0.00  0.00    +0.000 A 
ATOM      2  C   UNL     1       2.210   7.766  18.865  0.00  0.00    +0.000 A 
ATOM      3  C   UNL     1       1.602   9.019  18.997  0.00  0.00    +0.000 A 
ATOM      4  C   UNL     1       0.916   9.370  20.170  0.00  0.00    +0.000 A 
ATOM      5  C   UNL     1       0.896   8.445  21.225  0.00  0.00    +0.000 A 
ATOM      6  C   UNL     1       1.513   7.193  21.097  0.00  0.00    +0.000 A 
ENDROOT
BRANCH   1   7
ATOM      7  C   UNL     1       2.792   5.473  19.747  0.00  0.00    +0.000 C 
BRANCH   7  10
ATOM      8  O   UNL     1       5.577   5.273  19.646  0.00  0.00    +0.000 OA
ATOM      9  C   UNL     1       4.947   5.278  18.595  0.00  0.00    +0.000 C 
ATOM     10  N   UNL     1       3.573   5.385  18.533  0.00  0.00    +0.000 N 
ATOM     11  H   UNL     1       3.087   5.154  17.678  0.00  0.00    +0.000 HD
BRANCH   9  12
ATOM     12  C   UNL     1       5.650   5.129  17.300  0.00  0.00    +0.000 A 
ATOM     13  C   UNL     1       5.040   5.392  16.073  0.00  0.00    +0.000 A 
ATOM     14  C   UNL     1       5.771   5.233  14.898  0.00  0.00    +0.000 A 
ATOM     15  C   UNL     1       7.091   4.819  14.992  0.00  0.00    +0.000 A 
ATOM     16  N   UNL     1       7.717   4.572  16.163  0.00  0.00    +0.000 NA
ATOM     17  C   UNL     1       6.987   4.743  17.295  0.00  0.00    +0.000 A 
ENDBRANCH   9  12
ENDBRANCH   7  10
ENDBRANCH   1   7
BRANCH   4  18
ATOM     18  C   UNL     1       0.235  10.721  20.304  0.00  0.00    +0.000 C 
BRANCH  18  19
ATOM     19  S   UNL     1       0.081  11.576  18.706  0.00  0.00    +0.000 S 
BRANCH  19  20
ATOM     20  C   UNL     1      -1.657  11.710  18.527  0.00  0.00    +0.000 A 
ATOM     21  N   UNL     1      -2.431  12.221  19.454  0.00  0.00    +0.000 NA
ATOM     22  C   UNL     1      -3.762  12.078  19.078  0.00  0.00    +0.000 A 
ATOM     23  C   UNL     1      -4.886  12.451  19.845  0.00  0.00    +0.000 A 
ATOM     24  C   UNL     1      -6.177  12.181  19.370  0.00  0.00    +0.000 A 
ATOM     25  C   UNL     1      -6.360  11.572  18.134  0.00  0.00    +0.000 A 
ATOM     26  C   UNL     1      -5.264  11.226  17.337  0.00  0.00    +0.000 A 
ATOM     27  C   UNL     1      -3.974  11.481  17.834  0.00  0.00    +0.000 A 
ATOM     28  S   UNL     1      -2.448  11.141  17.116  0.00  0.00    +0.000 S 
ENDBRANCH  19  20
ENDBRANCH  18  19
ENDBRANCH   4  18
TORSDOF 6
ENDMDL
