MODEL 1
REMARK VINA RESULT:      -8.6      0.000      0.000
REMARK  Name = 
REMARK  6 active torsions:
REMARK  status: ('A' for Active; 'I' for Inactive)
REMARK    1  A    between atoms: C_2  and  O_3
REMARK    2  A    between atoms: C_2  and  C_4
REMARK    3  A    between atoms: C_4  and  C_5
REMARK    4  A    between atoms: C_5  and  C_6
REMARK    5  A    between atoms: N_17  and  C_18
REMARK    6  A    between atoms: C_18  and  C_19
REMARK                            x       y       z     vdW  Elec       q    Type
REMARK                         _______ _______ _______ _____ _____    ______ ____
ROOT
ATOM      1  C   UNL     1       6.627   5.941  16.790  0.00  0.00    +0.000 C 
ATOM      2  C   UNL     1       5.378   6.571  16.139  0.00  0.00    +0.000 C 
ATOM      3  C   UNL     1       4.353   7.016  17.179  0.00  0.00    +0.000 C 
ATOM      4  C   UNL     1       3.983   5.877  18.132  0.00  0.00    +0.000 C 
ATOM      5  N   UNL     1       5.178   5.287  18.781  0.00  0.00    +0.000 NA
ATOM      6  C   UNL     1       6.153   4.818  17.753  0.00  0.00    +0.000 C 
ENDROOT
BRANCH   1   8
ATOM      7  O   UNL     1       7.564   8.174  17.215  0.00  0.00    +0.000 OA
ATOM      8  C   UNL     1       7.415   7.017  17.569  0.00  0.00    +0.000 C 
BRANCH   8   9
ATOM      9  O   UNL     1       7.907   6.620  18.768  0.00  0.00    +0.000 OA
ATOM     10  H   UNL     1       7.444   7.041  19.529  0.00  0.00    +0.000 HD
ENDBRANCH   8   9
ENDBRANCH   1   8
BRANCH   1  11
ATOM     11  C   UNL     1       7.533   5.243  15.715  0.00  0.00    +0.000 C 
BRANCH  11  12
ATOM     12  C   UNL     1       6.866   4.683  14.478  0.00  0.00    +0.000 A 
ATOM     13  C   UNL     1       5.673   3.951  14.588  0.00  0.00    +0.000 A 
ATOM     14  C   UNL     1       5.124   3.314  13.474  0.00  0.00    +0.000 A 
ATOM     15  C   UNL     1       5.739   3.450  12.237  0.00  0.00    +0.000 A 
ATOM     16  F   UNL     1       5.227   2.814  11.174  0.00  0.00    +0.000 F 
ATOM     17  C   UNL     1       6.876   4.229  12.085  0.00  0.00    +0.000 A 
ATOM     18  C   UNL     1       7.428   4.841  13.206  0.00  0.00    +0.000 A 
ATOM     19  F   UNL     1       8.538   5.579  13.054  0.00  0.00    +0.000 F 
ENDBRANCH  11  12
ENDBRANCH   1  11
BRANCH   5  20
ATOM     20  C   UNL     1       4.772   4.094  19.587  0.00  0.00    +0.000 C 
BRANCH  20  21
ATOM     21  C   UNL     1       3.305   3.707  19.538  0.00  0.00    +0.000 A 
ATOM     22  C   UNL     1       2.406   4.181  20.490  0.00  0.00    +0.000 A 
ATOM     23  C   UNL     1       1.093   3.715  20.466  0.00  0.00    +0.000 A 
ATOM     24  C   UNL     1       0.712   2.796  19.495  0.00  0.00    +0.000 A 
ATOM     25  C   UNL     1       1.660   2.389  18.573  0.00  0.00    +0.000 A 
ATOM     26  N   UNL     1       2.940   2.823  18.573  0.00  0.00    +0.000 NA
ENDBRANCH  20  21
ENDBRANCH   5  20
TORSDOF 6
ENDMDL
MODEL 2
REMARK VINA RESULT:      -8.4      4.127      7.094
REMARK  Name = 
REMARK  6 active torsions:
REMARK  status: ('A' for Active; 'I' for Inactive)
REMARK    1  A    between atoms: C_2  and  O_3
REMARK    2  A    between atoms: C_2  and  C_4
REMARK    3  A    between atoms: C_4  and  C_5
REMARK    4  A    between atoms: C_5  and  C_6
REMARK    5  A    between atoms: N_17  and  C_18
REMARK    6  A    between atoms: C_18  and  C_19
REMARK                            x       y       z     vdW  Elec       q    Type
REMARK                         _______ _______ _______ _____ _____    ______ ____
ROOT
ATOM      1  C   UNL     1       2.355   4.203  20.253  0.00  0.00    +0.000 C 
ATOM      2  C   UNL     1       1.036   3.901  19.512  0.00  0.00    +0.000 C 
ATOM      3  C   UNL     1       1.145   2.654  18.636  0.00  0.00    +0.000 C 
ATOM      4  C   UNL     1       2.331   2.741  17.674  0.00  0.00    +0.000 C 
ATOM      5  N   UNL     1       3.605   3.005  18.385  0.00  0.00    +0.000 NA
ATOM      6  C   UNL     1       3.499   4.248  19.204  0.00  0.00    +0.000 C 
ENDROOT
BRANCH   1   8
ATOM      7  O   UNL     1       1.873   2.780  22.200  0.00  0.00    +0.000 OA
ATOM      8  C   UNL     1       2.634   3.105  21.303  0.00  0.00    +0.000 C 
BRANCH   8   9
ATOM      9  O   UNL     1       3.796   2.427  21.138  0.00  0.00    +0.000 OA
ATOM     10  H   UNL     1       3.760   1.783  20.393  0.00  0.00    +0.000 HD
ENDBRANCH   8   9
ENDBRANCH   1   8
BRANCH   1  11
ATOM     11  C   UNL     1       2.314   5.625  20.919  0.00  0.00    +0.000 C 
BRANCH  11  12
ATOM     12  C   UNL     1       2.072   6.821  20.026  0.00  0.00    +0.000 A 
ATOM     13  C   UNL     1       2.547   6.826  18.706  0.00  0.00    +0.000 A 
ATOM     14  C   UNL     1       2.451   7.975  17.919  0.00  0.00    +0.000 A 
ATOM     15  C   UNL     1       1.833   9.106  18.434  0.00  0.00    +0.000 A 
ATOM     16  F   UNL     1       1.767  10.218  17.688  0.00  0.00    +0.000 F 
ATOM     17  C   UNL     1       1.287   9.105  19.710  0.00  0.00    +0.000 A 
ATOM     18  C   UNL     1       1.410   7.963  20.494  0.00  0.00    +0.000 A 
ATOM     19  F   UNL     1       0.895   7.975  21.732  0.00  0.00    +0.000 F 
ENDBRANCH  11  12
ENDBRANCH   1  11
BRANCH   5  20
ATOM     20  C   UNL     1       4.700   3.220  17.389  0.00  0.00    +0.000 C 
BRANCH  20  21
ATOM     21  C   UNL     1       5.543   4.470  17.562  0.00  0.00    +0.000 A 
ATOM     22  C   UNL     1       5.299   5.611  16.803  0.00  0.00    +0.000 A 
ATOM     23  C   UNL     1       6.164   6.696  16.923  0.00  0.00    +0.000 A 
ATOM     24  C   UNL     1       7.243   6.617  17.796  0.00  0.00    +0.000 A 
ATOM     25  C   UNL     1       7.406   5.454  18.529  0.00  0.00    +0.000 A 
ATOM     26  N   UNL     1       6.583   4.386  18.433  0.00  0.00    +0.000 NA
ENDBRANCH  20  21
ENDBRANCH   5  20
TORSDOF 6
ENDMDL
MODEL 3
REMARK VINA RESULT:      -8.4      3.334      7.036
REMARK  Name = 
REMARK  6 active torsions:
REMARK  status: ('A' for Active; 'I' for Inactive)
REMARK    1  A    between atoms: C_2  and  O_3
REMARK    2  A    between atoms: C_2  and  C_4
REMARK    3  A    between atoms: C_4  and  C_5
REMARK    4  A    between atoms: C_5  and  C_6
REMARK    5  A    between atoms: N_17  and  C_18
REMARK    6  A    between atoms: C_18  and  C_19
REMARK                            x       y       z     vdW  Elec       q    Type
REMARK                         _______ _______ _______ _____ _____    ______ ____
ROOT
ATOM      1  C   UNL     1       3.891   5.599  17.753  0.00  0.00    +0.000 C 
ATOM      2  C   UNL     1       4.600   5.470  19.117  0.00  0.00    +0.000 C 
ATOM      3  C   UNL     1       6.113   5.642  18.995  0.00  0.00    +0.000 C 
ATOM      4  C   UNL     1       6.707   4.691  17.953  0.00  0.00    +0.000 C 
ATOM      5  N   UNL     1       6.046   4.831  16.633  0.00  0.00    +0.000 NA
ATOM      6  C   UNL     1       4.575   4.619  16.760  0.00  0.00    +0.000 C 
ENDROOT
BRANCH   1   8
ATOM      7  O   UNL     1       3.543   8.033  17.795  0.00  0.00    +0.000 OA
ATOM      8  C   UNL     1       4.002   7.050  17.236  0.00  0.00    +0.000 C 
BRANCH   8   9
ATOM      9  O   UNL     1       4.733   7.208  16.106  0.00  0.00    +0.000 OA
ATOM     10  H   UNL     1       5.701   7.115  16.261  0.00  0.00    +0.000 HD
ENDBRANCH   8   9
ENDBRANCH   1   8
BRANCH   1  11
ATOM     11  C   UNL     1       2.391   5.147  17.853  0.00  0.00    +0.000 C 
BRANCH  11  12
ATOM     12  C   UNL     1       1.991   4.257  19.009  0.00  0.00    +0.000 A 
ATOM     13  C   UNL     1       1.690   4.817  20.261  0.00  0.00    +0.000 A 
ATOM     14  C   UNL     1       1.456   4.000  21.368  0.00  0.00    +0.000 A 
ATOM     15  C   UNL     1       1.472   2.621  21.215  0.00  0.00    +0.000 A 
ATOM     16  F   UNL     1       1.276   1.837  22.284  0.00  0.00    +0.000 F 
ATOM     17  C   UNL     1       1.692   2.041  19.974  0.00  0.00    +0.000 A 
ATOM     18  C   UNL     1       1.948   2.864  18.882  0.00  0.00    +0.000 A 
ATOM     19  F   UNL     1       2.177   2.296  17.689  0.00  0.00    +0.000 F 
ENDBRANCH  11  12
ENDBRANCH   1  11
BRANCH   5  20
ATOM     20  C   UNL     1       6.568   3.786  15.699  0.00  0.00    +0.000 C 
BRANCH  20  21
ATOM     21  C   UNL     1       6.814   4.216  14.264  0.00  0.00    +0.000 A 
ATOM     22  C   UNL     1       6.229   3.534  13.200  0.00  0.00    +0.000 A 
ATOM     23  C   UNL     1       6.567   3.901  11.900  0.00  0.00    +0.000 A 
ATOM     24  C   UNL     1       7.472   4.937  11.695  0.00  0.00    +0.000 A 
ATOM     25  C   UNL     1       7.994   5.577  12.805  0.00  0.00    +0.000 A 
ATOM     26  N   UNL     1       7.684   5.242  14.078  0.00  0.00    +0.000 NA
ENDBRANCH  20  21
ENDBRANCH   5  20
TORSDOF 6
ENDMDL
MODEL 4
REMARK VINA RESULT:      -8.4      3.807      6.006
REMARK  Name = 
REMARK  6 active torsions:
REMARK  status: ('A' for Active; 'I' for Inactive)
REMARK    1  A    between atoms: C_2  and  O_3
REMARK    2  A    between atoms: C_2  and  C_4
REMARK    3  A    between atoms: C_4  and  C_5
REMARK    4  A    between atoms: C_5  and  C_6
REMARK    5  A    between atoms: N_17  and  C_18
REMARK    6  A    between atoms: C_18  and  C_19
REMARK                            x       y       z     vdW  Elec       q    Type
REMARK                         _______ _______ _______ _____ _____    ______ ____
ROOT
ATOM      1  C   UNL     1       4.751   4.421  17.535  0.00  0.00    +0.000 C 
ATOM      2  C   UNL     1       5.405   4.526  16.141  0.00  0.00    +0.000 C 
ATOM      3  C   UNL     1       5.860   5.950  15.828  0.00  0.00    +0.000 C 
ATOM      4  C   UNL     1       4.721   6.957  15.999  0.00  0.00    +0.000 C 
ATOM      5  N   UNL     1       4.107   6.879  17.345  0.00  0.00    +0.000 NA
ATOM      6  C   UNL     1       3.629   5.492  17.622  0.00  0.00    +0.000 C 
ENDROOT
BRANCH   1   8
ATOM      7  O   UNL     1       6.957   4.253  18.607  0.00  0.00    +0.000 OA
ATOM      8  C   UNL     1       5.809   4.662  18.634  0.00  0.00    +0.000 C 
BRANCH   8   9
ATOM      9  O   UNL     1       5.409   5.453  19.659  0.00  0.00    +0.000 OA
ATOM     10  H   UNL     1       5.893   5.268  20.497  0.00  0.00    +0.000 HD
ENDBRANCH   8   9
ENDBRANCH   1   8
BRANCH   1  11
ATOM     11  C   UNL     1       4.046   3.031  17.723  0.00  0.00    +0.000 C 
BRANCH  11  12
ATOM     12  C   UNL     1       3.149   2.846  18.928  0.00  0.00    +0.000 A 
ATOM     13  C   UNL     1       1.777   3.128  18.838  0.00  0.00    +0.000 A 
ATOM     14  C   UNL     1       0.968   3.094  19.974  0.00  0.00    +0.000 A 
ATOM     15  C   UNL     1       1.518   2.727  21.194  0.00  0.00    +0.000 A 
ATOM     16  F   UNL     1       0.746   2.723  22.290  0.00  0.00    +0.000 F 
ATOM     17  C   UNL     1       2.855   2.370  21.298  0.00  0.00    +0.000 A 
ATOM     18  C   UNL     1       3.658   2.430  20.164  0.00  0.00    +0.000 A 
ATOM     19  F   UNL     1       4.953   2.100  20.275  0.00  0.00    +0.000 F 
ENDBRANCH  11  12
ENDBRANCH   1  11
BRANCH   5  20
ATOM     20  C   UNL     1       2.916   7.781  17.406  0.00  0.00    +0.000 C 
BRANCH  20  21
ATOM     21  C   UNL     1       2.274   7.971  18.768  0.00  0.00    +0.000 A 
ATOM     22  C   UNL     1       2.303   6.958  19.722  0.00  0.00    +0.000 A 
ATOM     23  C   UNL     1       1.610   7.140  20.917  0.00  0.00    +0.000 A 
ATOM     24  C   UNL     1       0.914   8.325  21.131  0.00  0.00    +0.000 A 
ATOM     25  C   UNL     1       0.951   9.291  20.140  0.00  0.00    +0.000 A 
ATOM     26  N   UNL     1       1.613   9.141  18.971  0.00  0.00    +0.000 NA
ENDBRANCH  20  21
ENDBRANCH   5  20
TORSDOF 6
ENDMDL
MODEL 5
REMARK VINA RESULT:      -8.4      3.742      6.110
REMARK  Name = 
REMARK  6 active torsions:
REMARK  status: ('A' for Active; 'I' for Inactive)
REMARK    1  A    between atoms: C_2  and  O_3
REMARK    2  A    between atoms: C_2  and  C_4
REMARK    3  A    between atoms: C_4  and  C_5
REMARK    4  A    between atoms: C_5  and  C_6
REMARK    5  A    between atoms: N_17  and  C_18
REMARK    6  A    between atoms: C_18  and  C_19
REMARK                            x       y       z     vdW  Elec       q    Type
REMARK                         _______ _______ _______ _____ _____    ______ ____
ROOT
ATOM      1  C   UNL     1       4.679   4.471  17.575  0.00  0.00    +0.000 C 
ATOM      2  C   UNL     1       5.259   4.481  16.146  0.00  0.00    +0.000 C 
ATOM      3  C   UNL     1       5.777   5.862  15.748  0.00  0.00    +0.000 C 
ATOM      4  C   UNL     1       4.708   6.941  15.936  0.00  0.00    +0.000 C 
ATOM      5  N   UNL     1       4.167   6.952  17.316  0.00  0.00    +0.000 NA
ATOM      6  C   UNL     1       3.627   5.609  17.676  0.00  0.00    +0.000 C 
ENDROOT
BRANCH   1   8
ATOM      7  O   UNL     1       6.928   4.212  18.535  0.00  0.00    +0.000 OA
ATOM      8  C   UNL     1       5.809   4.691  18.605  0.00  0.00    +0.000 C 
BRANCH   8   9
ATOM      9  O   UNL     1       5.513   5.546  19.614  0.00  0.00    +0.000 OA
ATOM     10  H   UNL     1       4.554   5.769  19.658  0.00  0.00    +0.000 HD
ENDBRANCH   8   9
ENDBRANCH   1   8
BRANCH   1  11
ATOM     11  C   UNL     1       3.907   3.133  17.860  0.00  0.00    +0.000 C 
BRANCH  11  12
ATOM     12  C   UNL     1       3.051   3.057  19.105  0.00  0.00    +0.000 A 
ATOM     13  C   UNL     1       3.623   2.704  20.336  0.00  0.00    +0.000 A 
ATOM     14  C   UNL     1       2.823   2.496  21.460  0.00  0.00    +0.000 A 
ATOM     15  C   UNL     1       1.451   2.691  21.367  0.00  0.00    +0.000 A 
ATOM     16  F   UNL     1       0.680   2.463  22.439  0.00  0.00    +0.000 F 
ATOM     17  C   UNL     1       0.867   3.113  20.182  0.00  0.00    +0.000 A 
ATOM     18  C   UNL     1       1.672   3.295  19.062  0.00  0.00    +0.000 A 
ATOM     19  F   UNL     1       1.098   3.687  17.915  0.00  0.00    +0.000 F 
ENDBRANCH  11  12
ENDBRANCH   1  11
BRANCH   5  20
ATOM     20  C   UNL     1       3.034   7.926  17.402  0.00  0.00    +0.000 C 
BRANCH  20  21
ATOM     21  C   UNL     1       2.335   8.041  18.745  0.00  0.00    +0.000 A 
ATOM     22  C   UNL     1       2.337   6.981  19.648  0.00  0.00    +0.000 A 
ATOM     23  C   UNL     1       1.596   7.098  20.821  0.00  0.00    +0.000 A 
ATOM     24  C   UNL     1       0.878   8.263  21.064  0.00  0.00    +0.000 A 
ATOM     25  C   UNL     1       0.944   9.278  20.125  0.00  0.00    +0.000 A 
ATOM     26  N   UNL     1       1.654   9.193  18.979  0.00  0.00    +0.000 NA
ENDBRANCH  20  21
ENDBRANCH   5  20
TORSDOF 6
ENDMDL
MODEL 6
REMARK VINA RESULT:      -8.3      0.923      1.208
REMARK  Name = 
REMARK  6 active torsions:
REMARK  status: ('A' for Active; 'I' for Inactive)
REMARK    1  A    between atoms: C_2  and  O_3
REMARK    2  A    between atoms: C_2  and  C_4
REMARK    3  A    between atoms: C_4  and  C_5
REMARK    4  A    between atoms: C_5  and  C_6
REMARK    5  A    between atoms: N_17  and  C_18
REMARK    6  A    between atoms: C_18  and  C_19
REMARK                            x       y       z     vdW  Elec       q    Type
REMARK                         _______ _______ _______ _____ _____    ______ ____
ROOT
ATOM      1  C   UNL     1       6.515   5.665  16.789  0.00  0.00    +0.000 C 
ATOM      2  C   UNL     1       5.485   6.775  16.495  0.00  0.00    +0.000 C 
ATOM      3  C   UNL     1       4.405   6.854  17.572  0.00  0.00    +0.000 C 
ATOM      4  C   UNL     1       3.732   5.498  17.797  0.00  0.00    +0.000 C 
ATOM      5  N   UNL     1       4.716   4.434  18.107  0.00  0.00    +0.000 NA
ATOM      6  C   UNL     1       5.741   4.340  17.026  0.00  0.00    +0.000 C 
ENDROOT
BRANCH   1   8
ATOM      7  O   UNL     1       7.835   7.127  18.261  0.00  0.00    +0.000 OA
ATOM      8  C   UNL     1       7.345   6.033  18.039  0.00  0.00    +0.000 C 
BRANCH   8   9
ATOM      9  O   UNL     1       7.454   5.054  18.970  0.00  0.00    +0.000 OA
ATOM     10  H   UNL     1       7.492   4.152  18.574  0.00  0.00    +0.000 HD
ENDBRANCH   8   9
ENDBRANCH   1   8
BRANCH   1  11
ATOM     11  C   UNL     1       7.444   5.414  15.548  0.00  0.00    +0.000 C 
BRANCH  11  12
ATOM     12  C   UNL     1       6.834   4.773  14.321  0.00  0.00    +0.000 A 
ATOM     13  C   UNL     1       5.612   4.089  14.415  0.00  0.00    +0.000 A 
ATOM     14  C   UNL     1       5.109   3.377  13.325  0.00  0.00    +0.000 A 
ATOM     15  C   UNL     1       5.803   3.390  12.122  0.00  0.00    +0.000 A 
ATOM     16  F   UNL     1       5.334   2.682  11.085  0.00  0.00    +0.000 F 
ATOM     17  C   UNL     1       6.974   4.119  11.979  0.00  0.00    +0.000 A 
ATOM     18  C   UNL     1       7.479   4.806  13.079  0.00  0.00    +0.000 A 
ATOM     19  F   UNL     1       8.621   5.494  12.939  0.00  0.00    +0.000 F 
ENDBRANCH  11  12
ENDBRANCH   1  11
BRANCH   5  20
ATOM     20  C   UNL     1       4.019   3.112  18.177  0.00  0.00    +0.000 C 
BRANCH  20  21
ATOM     21  C   UNL     1       2.990   2.943  19.280  0.00  0.00    +0.000 A 
ATOM     22  C   UNL     1       1.627   3.034  19.009  0.00  0.00    +0.000 A 
ATOM     23  C   UNL     1       0.727   2.976  20.070  0.00  0.00    +0.000 A 
ATOM     24  C   UNL     1       1.206   2.824  21.367  0.00  0.00    +0.000 A 
ATOM     25  C   UNL     1       2.574   2.721  21.549  0.00  0.00    +0.000 A 
ATOM     26  N   UNL     1       3.471   2.775  20.539  0.00  0.00    +0.000 NA
ENDBRANCH  20  21
ENDBRANCH   5  20
TORSDOF 6
ENDMDL
MODEL 7
REMARK VINA RESULT:      -8.2      4.071      7.001
REMARK  Name = 
REMARK  6 active torsions:
REMARK  status: ('A' for Active; 'I' for Inactive)
REMARK    1  A    between atoms: C_2  and  O_3
REMARK    2  A    between atoms: C_2  and  C_4
REMARK    3  A    between atoms: C_4  and  C_5
REMARK    4  A    between atoms: C_5  and  C_6
REMARK    5  A    between atoms: N_17  and  C_18
REMARK    6  A    between atoms: C_18  and  C_19
REMARK                            x       y       z     vdW  Elec       q    Type
REMARK                         _______ _______ _______ _____ _____    ______ ____
ROOT
ATOM      1  C   UNL     1       2.203   4.054  20.382  0.00  0.00    +0.000 C 
ATOM      2  C   UNL     1       0.872   3.821  19.636  0.00  0.00    +0.000 C 
ATOM      3  C   UNL     1       0.889   2.527  18.826  0.00  0.00    +0.000 C 
ATOM      4  C   UNL     1       2.089   2.468  17.879  0.00  0.00    +0.000 C 
ATOM      5  N   UNL     1       3.372   2.665  18.595  0.00  0.00    +0.000 NA
ATOM      6  C   UNL     1       3.358   3.953  19.349  0.00  0.00    +0.000 C 
ENDROOT
BRANCH   1   8
ATOM      7  O   UNL     1       1.514   2.646  22.276  0.00  0.00    +0.000 OA
ATOM      8  C   UNL     1       2.379   2.992  21.489  0.00  0.00    +0.000 C 
BRANCH   8   9
ATOM      9  O   UNL     1       3.584   2.371  21.509  0.00  0.00    +0.000 OA
ATOM     10  H   UNL     1       3.847   2.077  22.412  0.00  0.00    +0.000 HD
ENDBRANCH   8   9
ENDBRANCH   1   8
BRANCH   1  11
ATOM     11  C   UNL     1       2.270   5.506  20.974  0.00  0.00    +0.000 C 
BRANCH  11  12
ATOM     12  C   UNL     1       2.088   6.671  20.026  0.00  0.00    +0.000 A 
ATOM     13  C   UNL     1       2.588   6.601  18.717  0.00  0.00    +0.000 A 
ATOM     14  C   UNL     1       2.548   7.716  17.880  0.00  0.00    +0.000 A 
ATOM     15  C   UNL     1       1.962   8.890  18.333  0.00  0.00    +0.000 A 
ATOM     16  F   UNL     1       1.952   9.970  17.538  0.00  0.00    +0.000 F 
ATOM     17  C   UNL     1       1.394   8.965  19.596  0.00  0.00    +0.000 A 
ATOM     18  C   UNL     1       1.459   7.854  20.431  0.00  0.00    +0.000 A 
ATOM     19  F   UNL     1       0.922   7.939  21.657  0.00  0.00    +0.000 F 
ENDBRANCH  11  12
ENDBRANCH   1  11
BRANCH   5  20
ATOM     20  C   UNL     1       4.492   2.739  17.606  0.00  0.00    +0.000 C 
BRANCH  20  21
ATOM     21  C   UNL     1       5.137   4.099  17.409  0.00  0.00    +0.000 A 
ATOM     22  C   UNL     1       6.007   4.625  18.360  0.00  0.00    +0.000 A 
ATOM     23  C   UNL     1       6.491   5.919  18.184  0.00  0.00    +0.000 A 
ATOM     24  C   UNL     1       6.101   6.650  17.067  0.00  0.00    +0.000 A 
ATOM     25  C   UNL     1       5.248   6.047  16.158  0.00  0.00    +0.000 A 
ATOM     26  N   UNL     1       4.762   4.794  16.303  0.00  0.00    +0.000 NA
ENDBRANCH  20  21
ENDBRANCH   5  20
TORSDOF 6
ENDMDL
MODEL 8
REMARK VINA RESULT:      -8.2      3.637      5.644
REMARK  Name = 
REMARK  6 active torsions:
REMARK  status: ('A' for Active; 'I' for Inactive)
REMARK    1  A    between atoms: C_2  and  O_3
REMARK    2  A    between atoms: C_2  and  C_4
REMARK    3  A    between atoms: C_4  and  C_5
REMARK    4  A    between atoms: C_5  and  C_6
REMARK    5  A    between atoms: N_17  and  C_18
REMARK    6  A    between atoms: C_18  and  C_19
REMARK                            x       y       z     vdW  Elec       q    Type
REMARK                         _______ _______ _______ _____ _____    ______ ____
ROOT
ATOM      1  C   UNL     1       3.407   3.885  18.217  0.00  0.00    +0.000 C 
ATOM      2  C   UNL     1       3.920   2.885  19.274  0.00  0.00    +0.000 C 
ATOM      3  C   UNL     1       3.006   2.825  20.496  0.00  0.00    +0.000 C 
ATOM      4  C   UNL     1       2.770   4.214  21.094  0.00  0.00    +0.000 C 
ATOM      5  N   UNL     1       2.252   5.171  20.088  0.00  0.00    +0.000 NA
ATOM      6  C   UNL     1       3.175   5.252  18.918  0.00  0.00    +0.000 C 
ENDROOT
BRANCH   1   8
ATOM      7  O   UNL     1       1.154   4.071  17.249  0.00  0.00    +0.000 OA
ATOM      8  C   UNL     1       2.089   3.370  17.598  0.00  0.00    +0.000 C 
BRANCH   8   9
ATOM      9  O   UNL     1       2.035   2.033  17.380  0.00  0.00    +0.000 OA
ATOM     10  H   UNL     1       2.845   1.685  16.940  0.00  0.00    +0.000 HD
ENDBRANCH   8   9
ENDBRANCH   1   8
BRANCH   1  11
ATOM     11  C   UNL     1       4.490   4.139  17.109  0.00  0.00    +0.000 C 
BRANCH  11  12
ATOM     12  C   UNL     1       5.638   5.068  17.436  0.00  0.00    +0.000 A 
ATOM     13  C   UNL     1       6.666   4.647  18.294  0.00  0.00    +0.000 A 
ATOM     14  C   UNL     1       7.654   5.539  18.711  0.00  0.00    +0.000 A 
ATOM     15  C   UNL     1       7.646   6.842  18.231  0.00  0.00    +0.000 A 
ATOM     16  F   UNL     1       8.579   7.706  18.656  0.00  0.00    +0.000 F 
ATOM     17  C   UNL     1       6.686   7.264  17.324  0.00  0.00    +0.000 A 
ATOM     18  C   UNL     1       5.691   6.373  16.932  0.00  0.00    +0.000 A 
ATOM     19  F   UNL     1       4.756   6.793  16.068  0.00  0.00    +0.000 F 
ENDBRANCH  11  12
ENDBRANCH   1  11
BRANCH   5  20
ATOM     20  C   UNL     1       2.176   6.539  20.690  0.00  0.00    +0.000 C 
BRANCH  20  21
ATOM     21  C   UNL     1       1.894   7.687  19.738  0.00  0.00    +0.000 A 
ATOM     22  C   UNL     1       2.423   7.697  18.450  0.00  0.00    +0.000 A 
ATOM     23  C   UNL     1       2.223   8.821  17.651  0.00  0.00    +0.000 A 
ATOM     24  C   UNL     1       1.502   9.898  18.153  0.00  0.00    +0.000 A 
ATOM     25  C   UNL     1       0.993   9.802  19.437  0.00  0.00    +0.000 A 
ATOM     26  N   UNL     1       1.171   8.725  20.234  0.00  0.00    +0.000 NA
ENDBRANCH  20  21
ENDBRANCH   5  20
TORSDOF 6
ENDMDL
MODEL 9
REMARK VINA RESULT:      -8.2      3.396      5.649
REMARK  Name = 
REMARK  6 active torsions:
REMARK  status: ('A' for Active; 'I' for Inactive)
REMARK    1  A    between atoms: C_2  and  O_3
REMARK    2  A    between atoms: C_2  and  C_4
REMARK    3  A    between atoms: C_4  and  C_5
REMARK    4  A    between atoms: C_5  and  C_6
REMARK    5  A    between atoms: N_17  and  C_18
REMARK    6  A    between atoms: C_18  and  C_19
REMARK                            x       y       z     vdW  Elec       q    Type
REMARK                         _______ _______ _______ _____ _____    ______ ____
ROOT
ATOM      1  C   UNL     1       3.393   3.595  18.942  0.00  0.00    +0.000 C 
ATOM      2  C   UNL     1       2.954   2.624  20.059  0.00  0.00    +0.000 C 
ATOM      3  C   UNL     1       1.630   3.044  20.695  0.00  0.00    +0.000 C 
ATOM      4  C   UNL     1       1.673   4.493  21.185  0.00  0.00    +0.000 C 
ATOM      5  N   UNL     1       2.068   5.432  20.108  0.00  0.00    +0.000 NA
ATOM      6  C   UNL     1       3.383   5.035  19.525  0.00  0.00    +0.000 C 
ENDROOT
BRANCH   1   8
ATOM      7  O   UNL     1       2.191   2.478  17.111  0.00  0.00    +0.000 OA
ATOM      8  C   UNL     1       2.423   3.494  17.745  0.00  0.00    +0.000 C 
BRANCH   8   9
ATOM      9  O   UNL     1       1.744   4.630  17.452  0.00  0.00    +0.000 OA
ATOM     10  H   UNL     1       1.481   4.685  16.504  0.00  0.00    +0.000 HD
ENDBRANCH   8   9
ENDBRANCH   1   8
BRANCH   1  11
ATOM     11  C   UNL     1       4.872   3.311  18.498  0.00  0.00    +0.000 C 
BRANCH  11  12
ATOM     12  C   UNL     1       5.733   4.489  18.101  0.00  0.00    +0.000 A 
ATOM     13  C   UNL     1       6.686   5.002  18.995  0.00  0.00    +0.000 A 
ATOM     14  C   UNL     1       7.388   6.170  18.695  0.00  0.00    +0.000 A 
ATOM     15  C   UNL     1       7.176   6.800  17.476  0.00  0.00    +0.000 A 
ATOM     16  F   UNL     1       7.829   7.938  17.201  0.00  0.00    +0.000 F 
ATOM     17  C   UNL     1       6.296   6.274  16.542  0.00  0.00    +0.000 A 
ATOM     18  C   UNL     1       5.584   5.122  16.861  0.00  0.00    +0.000 A 
ATOM     19  F   UNL     1       4.722   4.629  15.960  0.00  0.00    +0.000 F 
ENDBRANCH  11  12
ENDBRANCH   1  11
BRANCH   5  20
ATOM     20  C   UNL     1       2.230   6.806  20.677  0.00  0.00    +0.000 C 
BRANCH  20  21
ATOM     21  C   UNL     1       1.810   7.964  19.789  0.00  0.00    +0.000 A 
ATOM     22  C   UNL     1       2.252   8.055  18.472  0.00  0.00    +0.000 A 
ATOM     23  C   UNL     1       1.925   9.188  17.731  0.00  0.00    +0.000 A 
ATOM     24  C   UNL     1       1.167  10.195  18.318  0.00  0.00    +0.000 A 
ATOM     25  C   UNL     1       0.751  10.019  19.627  0.00  0.00    +0.000 A 
ATOM     26  N   UNL     1       1.053   8.931  20.370  0.00  0.00    +0.000 NA
ENDBRANCH  20  21
ENDBRANCH   5  20
TORSDOF 6
ENDMDL
