MODEL 1
REMARK VINA RESULT:      -6.6      0.000      0.000
REMARK  Name = 
REMARK  8 active torsions:
REMARK  status: ('A' for Active; 'I' for Inactive)
REMARK    1  A    between atoms: C_1  and  O_2
REMARK    2  A    between atoms: O_2  and  C_3
REMARK    3  A    between atoms: C_3  and  C_4
REMARK    4  A    between atoms: C_4  and  N_5
REMARK    5  A    between atoms: N_5  and  C_6
REMARK    6  A    between atoms: C_11  and  C_12
REMARK    7  A    between atoms: C_12  and  N_13
REMARK    8  A    between atoms: C_14  and  C_16
REMARK                            x       y       z     vdW  Elec       q    Type
REMARK                         _______ _______ _______ _____ _____    ______ ____
ROOT
ATOM      1  C   UNL     1       3.964   3.665  17.959  0.00  0.00    +0.000 A 
ATOM      2  C   UNL     1       3.414   2.367  18.018  0.00  0.00    +0.000 A 
ATOM      3  C   UNL     1       2.053   2.144  18.231  0.00  0.00    +0.000 A 
ATOM      4  C   UNL     1       1.198   3.217  18.427  0.00  0.00    +0.000 A 
ATOM      5  C   UNL     1       1.715   4.511  18.424  0.00  0.00    +0.000 A 
ATOM      6  C   UNL     1       3.090   4.749  18.213  0.00  0.00    +0.000 A 
ENDROOT
BRANCH   1   7
ATOM      7  N   UNL     1       5.345   3.878  17.814  0.00  0.00    +0.000 N 
ATOM      8  H   UNL     1       5.726   4.450  18.583  0.00  0.00    +0.000 HD
BRANCH   7   9
ATOM      9  C   UNL     1       5.886   4.271  16.506  0.00  0.00    +0.000 C 
BRANCH   9  10
ATOM     10  C   UNL     1       7.353   4.724  16.573  0.00  0.00    +0.000 C 
BRANCH  10  12
ATOM     11  C   UNL     1       7.246   6.985  17.356  0.00  0.00    +0.000 C 
ATOM     12  O   UNL     1       7.454   6.114  16.254  0.00  0.00    +0.000 OA
ENDBRANCH  10  12
ENDBRANCH   9  10
ENDBRANCH   7   9
ENDBRANCH   1   7
BRANCH   6  13
ATOM     13  C   UNL     1       3.566   6.182  18.280  0.00  0.00    +0.000 C 
BRANCH  13  14
ATOM     14  N   UNL     1       2.553   7.064  18.824  0.00  0.00    +0.000 N 
ATOM     15  C   UNL     1       2.219   8.249  18.213  0.00  0.00    +0.000 C 
ATOM     16  O   UNL     1       2.755   8.595  17.165  0.00  0.00    +0.000 OA
ATOM     17  H   UNL     1       2.015   6.733  19.613  0.00  0.00    +0.000 HD
BRANCH  15  18
ATOM     18  C   UNL     1       1.162   9.091  18.951  0.00  0.00    +0.000 C 
ATOM     19  C   UNL     1       1.321  10.562  18.598  0.00  0.00    +0.000 C 
ATOM     20  C   UNL     1       0.735  11.528  19.603  0.00  0.00    +0.000 C 
ATOM     21  C   UNL     1       0.836  11.140  21.063  0.00  0.00    +0.000 C 
ATOM     22  O   UNL     1       1.154   9.814  21.402  0.00  0.00    +0.000 OA
ATOM     23  C   UNL     1       1.173   8.773  20.447  0.00  0.00    +0.000 C 
ENDBRANCH  15  18
ENDBRANCH  13  14
ENDBRANCH   6  13
TORSDOF 7
ENDMDL
MODEL 2
REMARK VINA RESULT:      -6.6      1.772      6.323
REMARK  Name = 
REMARK  8 active torsions:
REMARK  status: ('A' for Active; 'I' for Inactive)
REMARK    1  A    between atoms: C_1  and  O_2
REMARK    2  A    between atoms: O_2  and  C_3
REMARK    3  A    between atoms: C_3  and  C_4
REMARK    4  A    between atoms: C_4  and  N_5
REMARK    5  A    between atoms: N_5  and  C_6
REMARK    6  A    between atoms: C_11  and  C_12
REMARK    7  A    between atoms: C_12  and  N_13
REMARK    8  A    between atoms: C_14  and  C_16
REMARK                            x       y       z     vdW  Elec       q    Type
REMARK                         _______ _______ _______ _____ _____    ______ ____
ROOT
ATOM      1  C   UNL     1       2.380   4.441  20.064  0.00  0.00    +0.000 A 
ATOM      2  C   UNL     1       1.017   4.074  20.060  0.00  0.00    +0.000 A 
ATOM      3  C   UNL     1       0.585   2.829  19.600  0.00  0.00    +0.000 A 
ATOM      4  C   UNL     1       1.501   1.920  19.097  0.00  0.00    +0.000 A 
ATOM      5  C   UNL     1       2.848   2.268  19.041  0.00  0.00    +0.000 A 
ATOM      6  C   UNL     1       3.298   3.526  19.499  0.00  0.00    +0.000 A 
ENDROOT
BRANCH   1   7
ATOM      7  N   UNL     1       2.799   5.721  20.463  0.00  0.00    +0.000 N 
ATOM      8  H   UNL     1       2.932   5.779  21.485  0.00  0.00    +0.000 HD
BRANCH   7   9
ATOM      9  C   UNL     1       2.125   6.909  19.921  0.00  0.00    +0.000 C 
BRANCH   9  10
ATOM     10  C   UNL     1       1.641   7.877  21.014  0.00  0.00    +0.000 C 
BRANCH  10  12
ATOM     11  C   UNL     1       1.161   9.441  19.265  0.00  0.00    +0.000 C 
ATOM     12  O   UNL     1       0.718   8.818  20.461  0.00  0.00    +0.000 OA
ENDBRANCH  10  12
ENDBRANCH   9  10
ENDBRANCH   7   9
ENDBRANCH   1   7
BRANCH   6  13
ATOM     13  C   UNL     1       4.771   3.834  19.349  0.00  0.00    +0.000 C 
BRANCH  13  14
ATOM     14  N   UNL     1       5.123   4.142  17.979  0.00  0.00    +0.000 N 
ATOM     15  C   UNL     1       5.154   5.434  17.510  0.00  0.00    +0.000 C 
ATOM     16  O   UNL     1       4.905   6.382  18.248  0.00  0.00    +0.000 OA
ATOM     17  H   UNL     1       5.454   3.385  17.396  0.00  0.00    +0.000 HD
BRANCH  15  18
ATOM     18  C   UNL     1       5.496   5.581  16.016  0.00  0.00    +0.000 C 
ATOM     19  C   UNL     1       5.047   4.345  15.250  0.00  0.00    +0.000 C 
ATOM     20  C   UNL     1       5.756   4.116  13.935  0.00  0.00    +0.000 C 
ATOM     21  C   UNL     1       7.224   4.484  13.876  0.00  0.00    +0.000 C 
ATOM     22  O   UNL     1       7.770   5.294  14.886  0.00  0.00    +0.000 OA
ATOM     23  C   UNL     1       6.968   5.960  15.839  0.00  0.00    +0.000 C 
ENDBRANCH  15  18
ENDBRANCH  13  14
ENDBRANCH   6  13
TORSDOF 7
ENDMDL
MODEL 3
REMARK VINA RESULT:      -6.5      3.599      7.683
REMARK  Name = 
REMARK  8 active torsions:
REMARK  status: ('A' for Active; 'I' for Inactive)
REMARK    1  A    between atoms: C_1  and  O_2
REMARK    2  A    between atoms: O_2  and  C_3
REMARK    3  A    between atoms: C_3  and  C_4
REMARK    4  A    between atoms: C_4  and  N_5
REMARK    5  A    between atoms: N_5  and  C_6
REMARK    6  A    between atoms: C_11  and  C_12
REMARK    7  A    between atoms: C_12  and  N_13
REMARK    8  A    between atoms: C_14  and  C_16
REMARK                            x       y       z     vdW  Elec       q    Type
REMARK                         _______ _______ _______ _____ _____    ______ ____
ROOT
ATOM      1  C   UNL     1       4.647   4.555  18.552  0.00  0.00    +0.000 A 
ATOM      2  C   UNL     1       3.670   5.400  19.119  0.00  0.00    +0.000 A 
ATOM      3  C   UNL     1       3.237   6.567  18.487  0.00  0.00    +0.000 A 
ATOM      4  C   UNL     1       3.794   6.946  17.277  0.00  0.00    +0.000 A 
ATOM      5  C   UNL     1       4.797   6.161  16.711  0.00  0.00    +0.000 A 
ATOM      6  C   UNL     1       5.245   4.980  17.342  0.00  0.00    +0.000 A 
ENDROOT
BRANCH   1   7
ATOM      7  N   UNL     1       5.126   3.420  19.227  0.00  0.00    +0.000 N 
ATOM      8  H   UNL     1       6.032   3.105  18.849  0.00  0.00    +0.000 HD
BRANCH   7   9
ATOM      9  C   UNL     1       4.217   2.300  19.502  0.00  0.00    +0.000 C 
BRANCH   9  10
ATOM     10  C   UNL     1       3.205   2.055  18.370  0.00  0.00    +0.000 C 
BRANCH  10  12
ATOM     11  C   UNL     1       1.100   2.794  19.240  0.00  0.00    +0.000 C 
ATOM     12  O   UNL     1       1.935   1.693  18.917  0.00  0.00    +0.000 OA
ENDBRANCH  10  12
ENDBRANCH   9  10
ENDBRANCH   7   9
ENDBRANCH   1   7
BRANCH   6  13
ATOM     13  C   UNL     1       6.373   4.223  16.679  0.00  0.00    +0.000 C 
BRANCH  13  14
ATOM     14  N   UNL     1       6.106   3.970  15.278  0.00  0.00    +0.000 N 
ATOM     15  C   UNL     1       6.816   4.594  14.280  0.00  0.00    +0.000 C 
ATOM     16  O   UNL     1       7.724   5.377  14.542  0.00  0.00    +0.000 OA
ATOM     17  H   UNL     1       5.452   3.235  15.048  0.00  0.00    +0.000 HD
BRANCH  15  18
ATOM     18  C   UNL     1       6.369   4.252  12.847  0.00  0.00    +0.000 C 
ATOM     19  C   UNL     1       4.915   3.803  12.842  0.00  0.00    +0.000 C 
ATOM     20  C   UNL     1       4.510   2.963  11.652  0.00  0.00    +0.000 C 
ATOM     21  C   UNL     1       5.545   2.000  11.110  0.00  0.00    +0.000 C 
ATOM     22  O   UNL     1       6.888   2.146  11.496  0.00  0.00    +0.000 OA
ATOM     23  C   UNL     1       7.355   3.280  12.196  0.00  0.00    +0.000 C 
ENDBRANCH  15  18
ENDBRANCH  13  14
ENDBRANCH   6  13
TORSDOF 7
ENDMDL
MODEL 4
REMARK VINA RESULT:      -6.5      1.849      2.307
REMARK  Name = 
REMARK  8 active torsions:
REMARK  status: ('A' for Active; 'I' for Inactive)
REMARK    1  A    between atoms: C_1  and  O_2
REMARK    2  A    between atoms: O_2  and  C_3
REMARK    3  A    between atoms: C_3  and  C_4
REMARK    4  A    between atoms: C_4  and  N_5
REMARK    5  A    between atoms: N_5  and  C_6
REMARK    6  A    between atoms: C_11  and  C_12
REMARK    7  A    between atoms: C_12  and  N_13
REMARK    8  A    between atoms: C_14  and  C_16
REMARK                            x       y       z     vdW  Elec       q    Type
REMARK                         _______ _______ _______ _____ _____    ______ ____
ROOT
ATOM      1  C   UNL     1       2.324   5.192  18.403  0.00  0.00    +0.000 A 
ATOM      2  C   UNL     1       1.931   3.962  17.833  0.00  0.00    +0.000 A 
ATOM      3  C   UNL     1       1.201   3.011  18.548  0.00  0.00    +0.000 A 
ATOM      4  C   UNL     1       0.869   3.245  19.872  0.00  0.00    +0.000 A 
ATOM      5  C   UNL     1       1.283   4.427  20.482  0.00  0.00    +0.000 A 
ATOM      6  C   UNL     1       2.025   5.396  19.770  0.00  0.00    +0.000 A 
ENDROOT
BRANCH   1   7
ATOM      7  N   UNL     1       3.118   6.113  17.699  0.00  0.00    +0.000 N 
ATOM      8  H   UNL     1       2.679   6.393  16.809  0.00  0.00    +0.000 HD
BRANCH   7   9
ATOM      9  C   UNL     1       4.560   5.872  17.559  0.00  0.00    +0.000 C 
BRANCH   9  10
ATOM     10  C   UNL     1       5.182   6.624  16.371  0.00  0.00    +0.000 C 
BRANCH  10  12
ATOM     11  C   UNL     1       7.278   7.113  17.421  0.00  0.00    +0.000 C 
ATOM     12  O   UNL     1       6.601   6.447  16.366  0.00  0.00    +0.000 OA
ENDBRANCH  10  12
ENDBRANCH   9  10
ENDBRANCH   7   9
ENDBRANCH   1   7
BRANCH   6  13
ATOM     13  C   UNL     1       2.475   6.622  20.531  0.00  0.00    +0.000 C 
BRANCH  13  14
ATOM     14  N   UNL     1       1.354   7.392  21.030  0.00  0.00    +0.000 N 
ATOM     15  C   UNL     1       0.940   8.552  20.420  0.00  0.00    +0.000 C 
ATOM     16  O   UNL     1       1.496   8.968  19.407  0.00  0.00    +0.000 OA
ATOM     17  H   UNL     1       0.809   6.996  21.783  0.00  0.00    +0.000 HD
BRANCH  15  18
ATOM     18  C   UNL     1      -0.232   9.273  21.109  0.00  0.00    +0.000 C 
ATOM     19  C   UNL     1      -0.482  10.620  20.448  0.00  0.00    +0.000 C 
ATOM     20  C   UNL     1      -1.210  11.629  21.307  0.00  0.00    +0.000 C 
ATOM     21  C   UNL     1      -0.892  11.622  22.788  0.00  0.00    +0.000 C 
ATOM     22  O   UNL     1      -0.220  10.519  23.341  0.00  0.00    +0.000 OA
ATOM     23  C   UNL     1      -0.016   9.319  22.623  0.00  0.00    +0.000 C 
ENDBRANCH  15  18
ENDBRANCH  13  14
ENDBRANCH   6  13
TORSDOF 7
ENDMDL
MODEL 5
REMARK VINA RESULT:      -6.4      1.978      6.684
REMARK  Name = 
REMARK  8 active torsions:
REMARK  status: ('A' for Active; 'I' for Inactive)
REMARK    1  A    between atoms: C_1  and  O_2
REMARK    2  A    between atoms: O_2  and  C_3
REMARK    3  A    between atoms: C_3  and  C_4
REMARK    4  A    between atoms: C_4  and  N_5
REMARK    5  A    between atoms: N_5  and  C_6
REMARK    6  A    between atoms: C_11  and  C_12
REMARK    7  A    between atoms: C_12  and  N_13
REMARK    8  A    between atoms: C_14  and  C_16
REMARK                            x       y       z     vdW  Elec       q    Type
REMARK                         _______ _______ _______ _____ _____    ______ ____
ROOT
ATOM      1  C   UNL     1       2.676   4.990  19.746  0.00  0.00    +0.000 A 
ATOM      2  C   UNL     1       1.419   4.421  20.038  0.00  0.00    +0.000 A 
ATOM      3  C   UNL     1       1.104   3.102  19.706  0.00  0.00    +0.000 A 
ATOM      4  C   UNL     1       2.030   2.317  19.038  0.00  0.00    +0.000 A 
ATOM      5  C   UNL     1       3.264   2.862  18.691  0.00  0.00    +0.000 A 
ATOM      6  C   UNL     1       3.592   4.196  19.018  0.00  0.00    +0.000 A 
ENDROOT
BRANCH   1   7
ATOM      7  N   UNL     1       2.960   6.339  20.020  0.00  0.00    +0.000 N 
ATOM      8  H   UNL     1       2.990   6.524  21.035  0.00  0.00    +0.000 HD
BRANCH   7   9
ATOM      9  C   UNL     1       2.253   7.395  19.283  0.00  0.00    +0.000 C 
BRANCH   9  10
ATOM     10  C   UNL     1       2.960   7.792  17.977  0.00  0.00    +0.000 C 
BRANCH  10  12
ATOM     11  C   UNL     1       1.602   9.751  18.206  0.00  0.00    +0.000 C 
ATOM     12  O   UNL     1       2.234   8.836  17.324  0.00  0.00    +0.000 OA
ENDBRANCH  10  12
ENDBRANCH   9  10
ENDBRANCH   7   9
ENDBRANCH   1   7
BRANCH   6  13
ATOM     13  C   UNL     1       4.934   4.715  18.552  0.00  0.00    +0.000 C 
BRANCH  13  14
ATOM     14  N   UNL     1       4.983   4.876  17.114  0.00  0.00    +0.000 N 
ATOM     15  C   UNL     1       6.128   4.633  16.394  0.00  0.00    +0.000 C 
ATOM     16  O   UNL     1       7.153   4.245  16.947  0.00  0.00    +0.000 OA
ATOM     17  H   UNL     1       4.116   5.070  16.631  0.00  0.00    +0.000 HD
BRANCH  15  18
ATOM     18  C   UNL     1       6.023   4.904  14.882  0.00  0.00    +0.000 C 
ATOM     19  C   UNL     1       5.804   3.601  14.128  0.00  0.00    +0.000 C 
ATOM     20  C   UNL     1       6.198   3.633  12.669  0.00  0.00    +0.000 C 
ATOM     21  C   UNL     1       7.414   4.458  12.306  0.00  0.00    +0.000 C 
ATOM     22  O   UNL     1       7.915   5.388  13.233  0.00  0.00    +0.000 OA
ATOM     23  C   UNL     1       7.210   5.743  14.405  0.00  0.00    +0.000 C 
ENDBRANCH  15  18
ENDBRANCH  13  14
ENDBRANCH   6  13
TORSDOF 7
ENDMDL
MODEL 6
REMARK VINA RESULT:      -6.4      1.192      1.326
REMARK  Name = 
REMARK  8 active torsions:
REMARK  status: ('A' for Active; 'I' for Inactive)
REMARK    1  A    between atoms: C_1  and  O_2
REMARK    2  A    between atoms: O_2  and  C_3
REMARK    3  A    between atoms: C_3  and  C_4
REMARK    4  A    between atoms: C_4  and  N_5
REMARK    5  A    between atoms: N_5  and  C_6
REMARK    6  A    between atoms: C_11  and  C_12
REMARK    7  A    between atoms: C_12  and  N_13
REMARK    8  A    between atoms: C_14  and  C_16
REMARK                            x       y       z     vdW  Elec       q    Type
REMARK                         _______ _______ _______ _____ _____    ______ ____
ROOT
ATOM      1  C   UNL     1       2.646   4.256  18.067  0.00  0.00    +0.000 A 
ATOM      2  C   UNL     1       1.979   3.039  17.809  0.00  0.00    +0.000 A 
ATOM      3  C   UNL     1       1.050   2.497  18.698  0.00  0.00    +0.000 A 
ATOM      4  C   UNL     1       0.780   3.140  19.895  0.00  0.00    +0.000 A 
ATOM      5  C   UNL     1       1.456   4.318  20.205  0.00  0.00    +0.000 A 
ATOM      6  C   UNL     1       2.401   4.875  19.316  0.00  0.00    +0.000 A 
ENDROOT
BRANCH   1   7
ATOM      7  N   UNL     1       3.631   4.758  17.200  0.00  0.00    +0.000 N 
ATOM      8  H   UNL     1       3.229   5.060  16.299  0.00  0.00    +0.000 HD
BRANCH   7   9
ATOM      9  C   UNL     1       4.892   4.025  17.030  0.00  0.00    +0.000 C 
BRANCH   9  10
ATOM     10  C   UNL     1       6.006   4.519  17.967  0.00  0.00    +0.000 C 
BRANCH  10  12
ATOM     11  C   UNL     1       7.547   6.324  18.287  0.00  0.00    +0.000 C 
ATOM     12  O   UNL     1       6.638   5.676  17.412  0.00  0.00    +0.000 OA
ENDBRANCH  10  12
ENDBRANCH   9  10
ENDBRANCH   7   9
ENDBRANCH   1   7
BRANCH   6  13
ATOM     13  C   UNL     1       3.123   6.126  19.762  0.00  0.00    +0.000 C 
BRANCH  13  14
ATOM     14  N   UNL     1       2.276   7.298  19.678  0.00  0.00    +0.000 N 
ATOM     15  C   UNL     1       2.260   8.104  18.564  0.00  0.00    +0.000 C 
ATOM     16  O   UNL     1       2.950   7.843  17.583  0.00  0.00    +0.000 OA
ATOM     17  H   UNL     1       1.610   7.453  20.422  0.00  0.00    +0.000 HD
BRANCH  15  18
ATOM     18  C   UNL     1       1.343   9.337  18.660  0.00  0.00    +0.000 C 
ATOM     19  C   UNL     1       2.056  10.566  18.115  0.00  0.00    +0.000 C 
ATOM     20  C   UNL     1       1.518  11.889  18.609  0.00  0.00    +0.000 C 
ATOM     21  C   UNL     1       1.031  11.937  20.042  0.00  0.00    +0.000 C 
ATOM     22  O   UNL     1       0.796  10.734  20.729  0.00  0.00    +0.000 OA
ATOM     23  C   UNL     1       0.786   9.480  20.078  0.00  0.00    +0.000 C 
ENDBRANCH  15  18
ENDBRANCH  13  14
ENDBRANCH   6  13
TORSDOF 7
ENDMDL
MODEL 7
REMARK VINA RESULT:      -6.4      1.892      2.390
REMARK  Name = 
REMARK  8 active torsions:
REMARK  status: ('A' for Active; 'I' for Inactive)
REMARK    1  A    between atoms: C_1  and  O_2
REMARK    2  A    between atoms: O_2  and  C_3
REMARK    3  A    between atoms: C_3  and  C_4
REMARK    4  A    between atoms: C_4  and  N_5
REMARK    5  A    between atoms: N_5  and  C_6
REMARK    6  A    between atoms: C_11  and  C_12
REMARK    7  A    between atoms: C_12  and  N_13
REMARK    8  A    between atoms: C_14  and  C_16
REMARK                            x       y       z     vdW  Elec       q    Type
REMARK                         _______ _______ _______ _____ _____    ______ ____
ROOT
ATOM      1  C   UNL     1       3.495   4.363  19.504  0.00  0.00    +0.000 A 
ATOM      2  C   UNL     1       3.381   3.042  19.988  0.00  0.00    +0.000 A 
ATOM      3  C   UNL     1       2.240   2.590  20.653  0.00  0.00    +0.000 A 
ATOM      4  C   UNL     1       1.186   3.456  20.887  0.00  0.00    +0.000 A 
ATOM      5  C   UNL     1       1.284   4.781  20.466  0.00  0.00    +0.000 A 
ATOM      6  C   UNL     1       2.434   5.252  19.796  0.00  0.00    +0.000 A 
ENDROOT
BRANCH   1   7
ATOM      7  N   UNL     1       4.673   4.829  18.898  0.00  0.00    +0.000 N 
ATOM      8  H   UNL     1       4.931   5.769  19.236  0.00  0.00    +0.000 HD
BRANCH   7   9
ATOM      9  C   UNL     1       4.847   4.693  17.446  0.00  0.00    +0.000 C 
BRANCH   9  10
ATOM     10  C   UNL     1       4.917   6.045  16.718  0.00  0.00    +0.000 C 
BRANCH  10  12
ATOM     11  C   UNL     1       7.064   6.972  17.230  0.00  0.00    +0.000 C 
ATOM     12  O   UNL     1       6.254   6.298  16.280  0.00  0.00    +0.000 OA
ENDBRANCH  10  12
ENDBRANCH   9  10
ENDBRANCH   7   9
ENDBRANCH   1   7
BRANCH   6  13
ATOM     13  C   UNL     1       2.471   6.717  19.425  0.00  0.00    +0.000 C 
BRANCH  13  14
ATOM     14  N   UNL     1       2.061   7.564  20.525  0.00  0.00    +0.000 N 
ATOM     15  C   UNL     1       1.405   8.755  20.320  0.00  0.00    +0.000 C 
ATOM     16  O   UNL     1       1.122   9.135  19.187  0.00  0.00    +0.000 OA
ATOM     17  H   UNL     1       2.171   7.205  21.464  0.00  0.00    +0.000 HD
BRANCH  15  18
ATOM     18  C   UNL     1       1.088   9.558  21.595  0.00  0.00    +0.000 C 
ATOM     19  C   UNL     1      -0.180   9.027  22.248  0.00  0.00    +0.000 C 
ATOM     20  C   UNL     1      -0.884  10.003  23.163  0.00  0.00    +0.000 C 
ATOM     21  C   UNL     1      -0.861  11.461  22.756  0.00  0.00    +0.000 C 
ATOM     22  O   UNL     1       0.048  11.885  21.772  0.00  0.00    +0.000 OA
ATOM     23  C   UNL     1       1.090  11.058  21.297  0.00  0.00    +0.000 C 
ENDBRANCH  15  18
ENDBRANCH  13  14
ENDBRANCH   6  13
TORSDOF 7
ENDMDL
MODEL 8
REMARK VINA RESULT:      -6.4      1.806      5.753
REMARK  Name = 
REMARK  8 active torsions:
REMARK  status: ('A' for Active; 'I' for Inactive)
REMARK    1  A    between atoms: C_1  and  O_2
REMARK    2  A    between atoms: O_2  and  C_3
REMARK    3  A    between atoms: C_3  and  C_4
REMARK    4  A    between atoms: C_4  and  N_5
REMARK    5  A    between atoms: N_5  and  C_6
REMARK    6  A    between atoms: C_11  and  C_12
REMARK    7  A    between atoms: C_12  and  N_13
REMARK    8  A    between atoms: C_14  and  C_16
REMARK                            x       y       z     vdW  Elec       q    Type
REMARK                         _______ _______ _______ _____ _____    ______ ____
ROOT
ATOM      1  C   UNL     1       2.258   4.474  19.304  0.00  0.00    +0.000 A 
ATOM      2  C   UNL     1       1.375   4.613  20.395  0.00  0.00    +0.000 A 
ATOM      3  C   UNL     1       1.345   3.697  21.448  0.00  0.00    +0.000 A 
ATOM      4  C   UNL     1       2.178   2.590  21.427  0.00  0.00    +0.000 A 
ATOM      5  C   UNL     1       3.029   2.396  20.341  0.00  0.00    +0.000 A 
ATOM      6  C   UNL     1       3.066   3.314  19.268  0.00  0.00    +0.000 A 
ENDROOT
BRANCH   1   7
ATOM      7  N   UNL     1       2.233   5.362  18.215  0.00  0.00    +0.000 N 
ATOM      8  H   UNL     1       2.274   4.862  17.313  0.00  0.00    +0.000 HD
BRANCH   7   9
ATOM      9  C   UNL     1       3.091   6.555  18.230  0.00  0.00    +0.000 C 
BRANCH   9  10
ATOM     10  C   UNL     1       2.302   7.861  18.417  0.00  0.00    +0.000 C 
BRANCH  10  12
ATOM     11  C   UNL     1       1.164   9.179  20.061  0.00  0.00    +0.000 C 
ATOM     12  O   UNL     1       1.831   7.962  19.763  0.00  0.00    +0.000 OA
ENDBRANCH  10  12
ENDBRANCH   9  10
ENDBRANCH   7   9
ENDBRANCH   1   7
BRANCH   6  13
ATOM     13  C   UNL     1       3.982   2.991  18.109  0.00  0.00    +0.000 C 
BRANCH  13  14
ATOM     14  N   UNL     1       5.170   3.820  18.111  0.00  0.00    +0.000 N 
ATOM     15  C   UNL     1       5.714   4.312  16.948  0.00  0.00    +0.000 C 
ATOM     16  O   UNL     1       5.195   4.083  15.860  0.00  0.00    +0.000 OA
ATOM     17  H   UNL     1       5.532   4.123  19.005  0.00  0.00    +0.000 HD
BRANCH  15  18
ATOM     18  C   UNL     1       7.005   5.131  17.124  0.00  0.00    +0.000 C 
ATOM     19  C   UNL     1       7.313   5.316  18.602  0.00  0.00    +0.000 C 
ATOM     20  C   UNL     1       8.206   6.492  18.927  0.00  0.00    +0.000 C 
ATOM     21  C   UNL     1       8.028   7.739  18.085  0.00  0.00    +0.000 C 
ATOM     22  O   UNL     1       7.314   7.656  16.879  0.00  0.00    +0.000 OA
ATOM     23  C   UNL     1       6.936   6.422  16.305  0.00  0.00    +0.000 C 
ENDBRANCH  15  18
ENDBRANCH  13  14
ENDBRANCH   6  13
TORSDOF 7
ENDMDL
MODEL 9
REMARK VINA RESULT:      -6.4      2.378      6.449
REMARK  Name = 
REMARK  8 active torsions:
REMARK  status: ('A' for Active; 'I' for Inactive)
REMARK    1  A    between atoms: C_1  and  O_2
REMARK    2  A    between atoms: O_2  and  C_3
REMARK    3  A    between atoms: C_3  and  C_4
REMARK    4  A    between atoms: C_4  and  N_5
REMARK    5  A    between atoms: N_5  and  C_6
REMARK    6  A    between atoms: C_11  and  C_12
REMARK    7  A    between atoms: C_12  and  N_13
REMARK    8  A    between atoms: C_14  and  C_16
REMARK                            x       y       z     vdW  Elec       q    Type
REMARK                         _______ _______ _______ _____ _____    ______ ____
ROOT
ATOM      1  C   UNL     1       1.944   7.509  20.056  0.00  0.00    +0.000 A 
ATOM      2  C   UNL     1       1.143   8.070  21.074  0.00  0.00    +0.000 A 
ATOM      3  C   UNL     1       0.411   9.243  20.883  0.00  0.00    +0.000 A 
ATOM      4  C   UNL     1       0.483   9.915  19.674  0.00  0.00    +0.000 A 
ATOM      5  C   UNL     1       1.302   9.417  18.663  0.00  0.00    +0.000 A 
ATOM      6  C   UNL     1       2.050   8.233  18.845  0.00  0.00    +0.000 A 
ENDROOT
BRANCH   1   7
ATOM      7  N   UNL     1       2.731   6.367  20.280  0.00  0.00    +0.000 N 
ATOM      8  H   UNL     1       3.276   6.110  19.443  0.00  0.00    +0.000 HD
BRANCH   7   9
ATOM      9  C   UNL     1       2.141   5.196  20.942  0.00  0.00    +0.000 C 
BRANCH   9  10
ATOM     10  C   UNL     1       1.228   4.377  20.015  0.00  0.00    +0.000 C 
BRANCH  10  12
ATOM     11  C   UNL     1       1.671   2.747  21.713  0.00  0.00    +0.000 C 
ATOM     12  O   UNL     1       0.807   3.180  20.674  0.00  0.00    +0.000 OA
ENDBRANCH  10  12
ENDBRANCH   9  10
ENDBRANCH   7   9
ENDBRANCH   1   7
BRANCH   6  13
ATOM     13  C   UNL     1       2.951   7.798  17.712  0.00  0.00    +0.000 C 
BRANCH  13  14
ATOM     14  N   UNL     1       3.348   6.411  17.836  0.00  0.00    +0.000 N 
ATOM     15  C   UNL     1       4.435   5.903  17.165  0.00  0.00    +0.000 C 
ATOM     16  O   UNL     1       5.128   6.619  16.448  0.00  0.00    +0.000 OA
ATOM     17  H   UNL     1       2.866   5.842  18.519  0.00  0.00    +0.000 HD
BRANCH  15  18
ATOM     18  C   UNL     1       4.685   4.398  17.367  0.00  0.00    +0.000 C 
ATOM     19  C   UNL     1       3.392   3.619  17.175  0.00  0.00    +0.000 C 
ATOM     20  C   UNL     1       3.361   2.259  17.834  0.00  0.00    +0.000 C 
ATOM     21  C   UNL     1       4.069   2.127  19.166  0.00  0.00    +0.000 C 
ATOM     22  O   UNL     1       4.968   3.129  19.567  0.00  0.00    +0.000 OA
ATOM     23  C   UNL     1       5.407   4.148  18.692  0.00  0.00    +0.000 C 
ENDBRANCH  15  18
ENDBRANCH  13  14
ENDBRANCH   6  13
TORSDOF 7
ENDMDL
