MODEL 1
REMARK VINA RESULT:      -7.9      0.000      0.000
REMARK  Name = 
REMARK  4 active torsions:
REMARK  status: ('A' for Active; 'I' for Inactive)
REMARK    1  A    between atoms: C_2  and  C_14
REMARK    2  A    between atoms: N_3  and  O_4
REMARK    3  A    between atoms: O_4  and  C_5
REMARK    4  A    between atoms: C_5  and  C_7
REMARK                            x       y       z     vdW  Elec       q    Type
REMARK                         _______ _______ _______ _____ _____    ______ ____
ROOT
ATOM      1  N   UNL     1       7.410   4.420  17.019  0.00  0.00    +0.000 NA
ATOM      2  C   UNL     1       6.553   4.895  16.160  0.00  0.00    +0.000 C 
ATOM      3  N   UNL     1       5.432   5.593  16.558  0.00  0.00    +0.000 N 
ATOM      4  H   UNL     1       7.061   4.698  17.946  0.00  0.00    +0.000 HD
ATOM      5  H   UNL     1       4.718   5.695  15.828  0.00  0.00    +0.000 HD
ENDROOT
BRANCH   2   6
ATOM      6  C   UNL     1       6.774   4.703  14.688  0.00  0.00    +0.000 A 
ATOM      7  C   UNL     1       6.009   3.794  13.967  0.00  0.00    +0.000 A 
ATOM      8  C   UNL     1       6.272   3.643  12.610  0.00  0.00    +0.000 A 
ATOM      9  C   UNL     1       7.284   4.399  12.027  0.00  0.00    +0.000 A 
ATOM     10  C   UNL     1       7.990   5.288  12.824  0.00  0.00    +0.000 A 
ATOM     11  N   UNL     1       7.759   5.468  14.143  0.00  0.00    +0.000 NA
ENDBRANCH   2   6
BRANCH   3  12
ATOM     12  O   UNL     1       4.931   5.158  17.798  0.00  0.00    +0.000 OA
BRANCH  12  13
ATOM     13  C   UNL     1       3.718   5.705  18.086  0.00  0.00    +0.000 C 
ATOM     14  O   UNL     1       3.407   6.872  17.889  0.00  0.00    +0.000 OA
BRANCH  13  15
ATOM     15  C   UNL     1       2.760   4.671  18.541  0.00  0.00    +0.000 A 
ATOM     16  C   UNL     1       2.699   3.495  17.772  0.00  0.00    +0.000 A 
ATOM     17  C   UNL     1       1.827   2.460  18.119  0.00  0.00    +0.000 A 
ATOM     18  C   UNL     1       1.004   2.592  19.233  0.00  0.00    +0.000 A 
ATOM     19  C   UNL     1       1.042   3.763  19.992  0.00  0.00    +0.000 A 
ATOM     20  C   UNL     1       1.909   4.809  19.649  0.00  0.00    +0.000 A 
ATOM     21 CL   UNL     1       1.808   6.244  20.604  0.00  0.00    +0.000 Cl
ENDBRANCH  13  15
ENDBRANCH  12  13
ENDBRANCH   3  12
TORSDOF 4
ENDMDL
MODEL 2
REMARK VINA RESULT:      -7.9      1.557      1.783
REMARK  Name = 
REMARK  4 active torsions:
REMARK  status: ('A' for Active; 'I' for Inactive)
REMARK    1  A    between atoms: C_2  and  C_14
REMARK    2  A    between atoms: N_3  and  O_4
REMARK    3  A    between atoms: O_4  and  C_5
REMARK    4  A    between atoms: C_5  and  C_7
REMARK                            x       y       z     vdW  Elec       q    Type
REMARK                         _______ _______ _______ _____ _____    ______ ____
ROOT
ATOM      1  N   UNL     1       7.342   6.096  16.576  0.00  0.00    +0.000 NA
ATOM      2  C   UNL     1       6.783   5.038  16.063  0.00  0.00    +0.000 C 
ATOM      3  N   UNL     1       6.069   4.144  16.834  0.00  0.00    +0.000 N 
ATOM      4  H   UNL     1       7.110   6.077  17.578  0.00  0.00    +0.000 HD
ATOM      5  H   UNL     1       5.895   3.240  16.378  0.00  0.00    +0.000 HD
ENDROOT
BRANCH   2   6
ATOM      6  C   UNL     1       6.891   4.766  14.591  0.00  0.00    +0.000 A 
ATOM      7  C   UNL     1       6.085   3.809  13.984  0.00  0.00    +0.000 A 
ATOM      8  C   UNL     1       6.244   3.585  12.621  0.00  0.00    +0.000 A 
ATOM      9  C   UNL     1       7.196   4.318  11.918  0.00  0.00    +0.000 A 
ATOM     10  C   UNL     1       7.949   5.258  12.607  0.00  0.00    +0.000 A 
ATOM     11  N   UNL     1       7.819   5.510  13.928  0.00  0.00    +0.000 NA
ENDBRANCH   2   6
BRANCH   3  12
ATOM     12  O   UNL     1       6.562   4.041  18.147  0.00  0.00    +0.000 OA
BRANCH  12  13
ATOM     13  C   UNL     1       5.826   4.768  19.033  0.00  0.00    +0.000 C 
ATOM     14  O   UNL     1       6.246   5.708  19.693  0.00  0.00    +0.000 OA
BRANCH  13  15
ATOM     15  C   UNL     1       4.400   4.367  18.998  0.00  0.00    +0.000 A 
ATOM     16  C   UNL     1       4.099   3.087  19.497  0.00  0.00    +0.000 A 
ATOM     17  C   UNL     1       2.784   2.616  19.506  0.00  0.00    +0.000 A 
ATOM     18  C   UNL     1       1.758   3.417  19.014  0.00  0.00    +0.000 A 
ATOM     19  C   UNL     1       2.048   4.681  18.498  0.00  0.00    +0.000 A 
ATOM     20  C   UNL     1       3.365   5.160  18.478  0.00  0.00    +0.000 A 
ATOM     21 CL   UNL     1       3.619   6.699  17.737  0.00  0.00    +0.000 Cl
ENDBRANCH  13  15
ENDBRANCH  12  13
ENDBRANCH   3  12
TORSDOF 4
ENDMDL
MODEL 3
REMARK VINA RESULT:      -7.8      1.087      1.381
REMARK  Name = 
REMARK  4 active torsions:
REMARK  status: ('A' for Active; 'I' for Inactive)
REMARK    1  A    between atoms: C_2  and  C_14
REMARK    2  A    between atoms: N_3  and  O_4
REMARK    3  A    between atoms: O_4  and  C_5
REMARK    4  A    between atoms: C_5  and  C_7
REMARK                            x       y       z     vdW  Elec       q    Type
REMARK                         _______ _______ _______ _____ _____    ______ ____
ROOT
ATOM      1  N   UNL     1       7.462   6.364  16.566  0.00  0.00    +0.000 NA
ATOM      2  C   UNL     1       6.408   5.841  16.008  0.00  0.00    +0.000 C 
ATOM      3  N   UNL     1       5.159   5.922  16.589  0.00  0.00    +0.000 N 
ATOM      4  H   UNL     1       7.129   6.806  17.433  0.00  0.00    +0.000 HD
ATOM      5  H   UNL     1       4.469   5.271  16.195  0.00  0.00    +0.000 HD
ENDROOT
BRANCH   2   6
ATOM      6  C   UNL     1       6.524   5.137  14.688  0.00  0.00    +0.000 A 
ATOM      7  C   UNL     1       5.580   4.192  14.301  0.00  0.00    +0.000 A 
ATOM      8  C   UNL     1       5.750   3.556  13.076  0.00  0.00    +0.000 A 
ATOM      9  C   UNL     1       6.850   3.883  12.288  0.00  0.00    +0.000 A 
ATOM     10  C   UNL     1       7.735   4.845  12.753  0.00  0.00    +0.000 A 
ATOM     11  N   UNL     1       7.600   5.489  13.933  0.00  0.00    +0.000 NA
ENDBRANCH   2   6
BRANCH   3  12
ATOM     12  O   UNL     1       5.211   5.926  17.994  0.00  0.00    +0.000 OA
BRANCH  12  13
ATOM     13  C   UNL     1       5.207   4.668  18.515  0.00  0.00    +0.000 C 
ATOM     14  O   UNL     1       6.166   4.122  19.045  0.00  0.00    +0.000 OA
BRANCH  13  15
ATOM     15  C   UNL     1       3.846   4.084  18.490  0.00  0.00    +0.000 A 
ATOM     16  C   UNL     1       3.709   2.852  17.826  0.00  0.00    +0.000 A 
ATOM     17  C   UNL     1       2.465   2.219  17.747  0.00  0.00    +0.000 A 
ATOM     18  C   UNL     1       1.347   2.814  18.326  0.00  0.00    +0.000 A 
ATOM     19  C   UNL     1       1.469   4.046  18.970  0.00  0.00    +0.000 A 
ATOM     20  C   UNL     1       2.711   4.691  19.049  0.00  0.00    +0.000 A 
ATOM     21 CL   UNL     1       2.728   6.251  19.790  0.00  0.00    +0.000 Cl
ENDBRANCH  13  15
ENDBRANCH  12  13
ENDBRANCH   3  12
TORSDOF 4
ENDMDL
MODEL 4
REMARK VINA RESULT:      -7.7      1.442      1.867
REMARK  Name = 
REMARK  4 active torsions:
REMARK  status: ('A' for Active; 'I' for Inactive)
REMARK    1  A    between atoms: C_2  and  C_14
REMARK    2  A    between atoms: N_3  and  O_4
REMARK    3  A    between atoms: O_4  and  C_5
REMARK    4  A    between atoms: C_5  and  C_7
REMARK                            x       y       z     vdW  Elec       q    Type
REMARK                         _______ _______ _______ _____ _____    ______ ____
ROOT
ATOM      1  N   UNL     1       7.673   4.505  17.099  0.00  0.00    +0.000 NA
ATOM      2  C   UNL     1       6.633   4.611  16.323  0.00  0.00    +0.000 C 
ATOM      3  N   UNL     1       5.364   4.804  16.826  0.00  0.00    +0.000 N 
ATOM      4  H   UNL     1       7.318   4.611  18.059  0.00  0.00    +0.000 HD
ATOM      5  H   UNL     1       4.611   4.624  16.151  0.00  0.00    +0.000 HD
ENDROOT
BRANCH   2   6
ATOM      6  C   UNL     1       6.794   4.539  14.832  0.00  0.00    +0.000 A 
ATOM      7  C   UNL     1       5.979   3.712  14.068  0.00  0.00    +0.000 A 
ATOM      8  C   UNL     1       6.188   3.670  12.694  0.00  0.00    +0.000 A 
ATOM      9  C   UNL     1       7.196   4.450  12.136  0.00  0.00    +0.000 A 
ATOM     10  C   UNL     1       7.954   5.252  12.976  0.00  0.00    +0.000 A 
ATOM     11  N   UNL     1       7.778   5.325  14.314  0.00  0.00    +0.000 NA
ENDBRANCH   2   6
BRANCH   3  12
ATOM     12  O   UNL     1       5.175   4.193  18.077  0.00  0.00    +0.000 OA
BRANCH  12  13
ATOM     13  C   UNL     1       4.170   3.274  18.057  0.00  0.00    +0.000 C 
ATOM     14  O   UNL     1       4.082   2.343  17.267  0.00  0.00    +0.000 OA
BRANCH  13  15
ATOM     15  C   UNL     1       3.257   3.455  19.210  0.00  0.00    +0.000 A 
ATOM     16  C   UNL     1       3.421   2.559  20.281  0.00  0.00    +0.000 A 
ATOM     17  C   UNL     1       2.608   2.646  21.414  0.00  0.00    +0.000 A 
ATOM     18  C   UNL     1       1.622   3.626  21.486  0.00  0.00    +0.000 A 
ATOM     19  C   UNL     1       1.439   4.508  20.420  0.00  0.00    +0.000 A 
ATOM     20  C   UNL     1       2.245   4.424  19.276  0.00  0.00    +0.000 A 
ATOM     21 CL   UNL     1       1.872   5.507  17.984  0.00  0.00    +0.000 Cl
ENDBRANCH  13  15
ENDBRANCH  12  13
ENDBRANCH   3  12
TORSDOF 4
ENDMDL
MODEL 5
REMARK VINA RESULT:      -7.7      1.619      1.751
REMARK  Name = 
REMARK  4 active torsions:
REMARK  status: ('A' for Active; 'I' for Inactive)
REMARK    1  A    between atoms: C_2  and  C_14
REMARK    2  A    between atoms: N_3  and  O_4
REMARK    3  A    between atoms: O_4  and  C_5
REMARK    4  A    between atoms: C_5  and  C_7
REMARK                            x       y       z     vdW  Elec       q    Type
REMARK                         _______ _______ _______ _____ _____    ______ ____
ROOT
ATOM      1  N   UNL     1       7.352   5.770  16.695  0.00  0.00    +0.000 NA
ATOM      2  C   UNL     1       6.589   4.951  16.030  0.00  0.00    +0.000 C 
ATOM      3  N   UNL     1       5.554   4.266  16.633  0.00  0.00    +0.000 N 
ATOM      4  H   UNL     1       6.992   5.768  17.659  0.00  0.00    +0.000 HD
ATOM      5  H   UNL     1       5.193   3.479  16.082  0.00  0.00    +0.000 HD
ENDROOT
BRANCH   2   6
ATOM      6  C   UNL     1       6.812   4.736  14.562  0.00  0.00    +0.000 A 
ATOM      7  C   UNL     1       6.058   3.804  13.857  0.00  0.00    +0.000 A 
ATOM      8  C   UNL     1       6.322   3.633  12.502  0.00  0.00    +0.000 A 
ATOM      9  C   UNL     1       7.324   4.392  11.905  0.00  0.00    +0.000 A 
ATOM     10  C   UNL     1       8.019   5.305  12.687  0.00  0.00    +0.000 A 
ATOM     11  N   UNL     1       7.786   5.504  14.003  0.00  0.00    +0.000 NA
ENDBRANCH   2   6
BRANCH   3  12
ATOM     12  O   UNL     1       5.816   3.956  17.979  0.00  0.00    +0.000 OA
BRANCH  12  13
ATOM     13  C   UNL     1       4.960   4.584  18.830  0.00  0.00    +0.000 C 
ATOM     14  O   UNL     1       5.190   5.635  19.414  0.00  0.00    +0.000 OA
BRANCH  13  15
ATOM     15  C   UNL     1       3.642   3.908  18.858  0.00  0.00    +0.000 A 
ATOM     16  C   UNL     1       2.605   4.532  18.141  0.00  0.00    +0.000 A 
ATOM     17  C   UNL     1       1.325   3.973  18.106  0.00  0.00    +0.000 A 
ATOM     18  C   UNL     1       1.068   2.788  18.790  0.00  0.00    +0.000 A 
ATOM     19  C   UNL     1       2.084   2.171  19.521  0.00  0.00    +0.000 A 
ATOM     20  C   UNL     1       3.370   2.728  19.567  0.00  0.00    +0.000 A 
ATOM     21 CL   UNL     1       4.524   1.929  20.573  0.00  0.00    +0.000 Cl
ENDBRANCH  13  15
ENDBRANCH  12  13
ENDBRANCH   3  12
TORSDOF 4
ENDMDL
MODEL 6
REMARK VINA RESULT:      -7.7      1.710      2.021
REMARK  Name = 
REMARK  4 active torsions:
REMARK  status: ('A' for Active; 'I' for Inactive)
REMARK    1  A    between atoms: C_2  and  C_14
REMARK    2  A    between atoms: N_3  and  O_4
REMARK    3  A    between atoms: O_4  and  C_5
REMARK    4  A    between atoms: C_5  and  C_7
REMARK                            x       y       z     vdW  Elec       q    Type
REMARK                         _______ _______ _______ _____ _____    ______ ____
ROOT
ATOM      1  N   UNL     1       7.614   4.708  17.026  0.00  0.00    +0.000 NA
ATOM      2  C   UNL     1       6.601   4.508  16.233  0.00  0.00    +0.000 C 
ATOM      3  N   UNL     1       5.326   4.302  16.716  0.00  0.00    +0.000 N 
ATOM      4  H   UNL     1       7.231   4.689  17.980  0.00  0.00    +0.000 HD
ATOM      5  H   UNL     1       4.672   3.912  16.027  0.00  0.00    +0.000 HD
ENDROOT
BRANCH   2   6
ATOM      6  C   UNL     1       6.796   4.509  14.744  0.00  0.00    +0.000 A 
ATOM      7  C   UNL     1       6.073   3.643  13.932  0.00  0.00    +0.000 A 
ATOM      8  C   UNL     1       6.311   3.674  12.562  0.00  0.00    +0.000 A 
ATOM      9  C   UNL     1       7.256   4.561  12.057  0.00  0.00    +0.000 A 
ATOM     10  C   UNL     1       7.923   5.395  12.944  0.00  0.00    +0.000 A 
ATOM     11  N   UNL     1       7.715   5.399  14.279  0.00  0.00    +0.000 NA
ENDBRANCH   2   6
BRANCH   3  12
ATOM     12  O   UNL     1       5.313   3.643  17.958  0.00  0.00    +0.000 OA
BRANCH  12  13
ATOM     13  C   UNL     1       4.886   4.451  18.967  0.00  0.00    +0.000 C 
ATOM     14  O   UNL     1       5.500   5.413  19.408  0.00  0.00    +0.000 OA
BRANCH  13  15
ATOM     15  C   UNL     1       3.504   4.107  19.378  0.00  0.00    +0.000 A 
ATOM     16  C   UNL     1       2.780   5.117  20.036  0.00  0.00    +0.000 A 
ATOM     17  C   UNL     1       1.469   4.890  20.464  0.00  0.00    +0.000 A 
ATOM     18  C   UNL     1       0.872   3.653  20.243  0.00  0.00    +0.000 A 
ATOM     19  C   UNL     1       1.590   2.637  19.608  0.00  0.00    +0.000 A 
ATOM     20  C   UNL     1       2.907   2.853  19.181  0.00  0.00    +0.000 A 
ATOM     21 CL   UNL     1       3.728   1.500  18.489  0.00  0.00    +0.000 Cl
ENDBRANCH  13  15
ENDBRANCH  12  13
ENDBRANCH   3  12
TORSDOF 4
ENDMDL
MODEL 7
REMARK VINA RESULT:      -7.6      1.306      1.699
REMARK  Name = 
REMARK  4 active torsions:
REMARK  status: ('A' for Active; 'I' for Inactive)
REMARK    1  A    between atoms: C_2  and  C_14
REMARK    2  A    between atoms: N_3  and  O_4
REMARK    3  A    between atoms: O_4  and  C_5
REMARK    4  A    between atoms: C_5  and  C_7
REMARK                            x       y       z     vdW  Elec       q    Type
REMARK                         _______ _______ _______ _____ _____    ______ ____
ROOT
ATOM      1  N   UNL     1       7.532   4.938  17.119  0.00  0.00    +0.000 NA
ATOM      2  C   UNL     1       6.565   5.180  16.281  0.00  0.00    +0.000 C 
ATOM      3  N   UNL     1       5.381   5.763  16.681  0.00  0.00    +0.000 N 
ATOM      4  H   UNL     1       7.203   5.279  18.032  0.00  0.00    +0.000 HD
ATOM      5  H   UNL     1       4.617   5.675  16.002  0.00  0.00    +0.000 HD
ENDROOT
BRANCH   2   6
ATOM      6  C   UNL     1       6.723   4.838  14.828  0.00  0.00    +0.000 A 
ATOM      7  C   UNL     1       5.893   3.900  14.225  0.00  0.00    +0.000 A 
ATOM      8  C   UNL     1       6.100   3.608  12.880  0.00  0.00    +0.000 A 
ATOM      9  C   UNL     1       7.120   4.258  12.193  0.00  0.00    +0.000 A 
ATOM     10  C   UNL     1       7.893   5.186  12.877  0.00  0.00    +0.000 A 
ATOM     11  N   UNL     1       7.719   5.502  14.179  0.00  0.00    +0.000 NA
ENDBRANCH   2   6
BRANCH   3  12
ATOM     12  O   UNL     1       5.024   5.422  17.998  0.00  0.00    +0.000 OA
BRANCH  12  13
ATOM     13  C   UNL     1       3.776   5.859  18.324  0.00  0.00    +0.000 C 
ATOM     14  O   UNL     1       3.302   6.940  18.003  0.00  0.00    +0.000 OA
BRANCH  13  15
ATOM     15  C   UNL     1       2.999   4.797  19.005  0.00  0.00    +0.000 A 
ATOM     16  C   UNL     1       2.745   4.990  20.374  0.00  0.00    +0.000 A 
ATOM     17  C   UNL     1       2.021   4.045  21.106  0.00  0.00    +0.000 A 
ATOM     18  C   UNL     1       1.548   2.896  20.477  0.00  0.00    +0.000 A 
ATOM     19  C   UNL     1       1.812   2.686  19.122  0.00  0.00    +0.000 A 
ATOM     20  C   UNL     1       2.543   3.625  18.382  0.00  0.00    +0.000 A 
ATOM     21 CL   UNL     1       2.885   3.219  16.739  0.00  0.00    +0.000 Cl
ENDBRANCH  13  15
ENDBRANCH  12  13
ENDBRANCH   3  12
TORSDOF 4
ENDMDL
MODEL 8
REMARK VINA RESULT:      -7.6      1.746      2.295
REMARK  Name = 
REMARK  4 active torsions:
REMARK  status: ('A' for Active; 'I' for Inactive)
REMARK    1  A    between atoms: C_2  and  C_14
REMARK    2  A    between atoms: N_3  and  O_4
REMARK    3  A    between atoms: O_4  and  C_5
REMARK    4  A    between atoms: C_5  and  C_7
REMARK                            x       y       z     vdW  Elec       q    Type
REMARK                         _______ _______ _______ _____ _____    ______ ____
ROOT
ATOM      1  N   UNL     1       5.148   6.882  15.654  0.00  0.00    +0.000 NA
ATOM      2  C   UNL     1       5.281   5.590  15.566  0.00  0.00    +0.000 C 
ATOM      3  N   UNL     1       4.827   4.740  16.553  0.00  0.00    +0.000 N 
ATOM      4  H   UNL     1       4.658   7.053  16.542  0.00  0.00    +0.000 HD
ATOM      5  H   UNL     1       5.205   3.787  16.495  0.00  0.00    +0.000 HD
ENDROOT
BRANCH   2   6
ATOM      6  C   UNL     1       5.932   4.979  14.359  0.00  0.00    +0.000 A 
ATOM      7  C   UNL     1       5.309   3.952  13.659  0.00  0.00    +0.000 A 
ATOM      8  C   UNL     1       5.969   3.410  12.561  0.00  0.00    +0.000 A 
ATOM      9  C   UNL     1       7.218   3.909  12.206  0.00  0.00    +0.000 A 
ATOM     10  C   UNL     1       7.758   4.941  12.959  0.00  0.00    +0.000 A 
ATOM     11  N   UNL     1       7.146   5.498  14.027  0.00  0.00    +0.000 NA
ENDBRANCH   2   6
BRANCH   3  12
ATOM     12  O   UNL     1       4.897   5.310  17.837  0.00  0.00    +0.000 OA
BRANCH  12  13
ATOM     13  C   UNL     1       4.867   4.371  18.821  0.00  0.00    +0.000 C 
ATOM     14  O   UNL     1       5.851   3.879  19.357  0.00  0.00    +0.000 OA
BRANCH  13  15
ATOM     15  C   UNL     1       3.479   4.114  19.272  0.00  0.00    +0.000 A 
ATOM     16  C   UNL     1       2.886   5.111  20.067  0.00  0.00    +0.000 A 
ATOM     17  C   UNL     1       1.581   4.962  20.542  0.00  0.00    +0.000 A 
ATOM     18  C   UNL     1       0.857   3.815  20.232  0.00  0.00    +0.000 A 
ATOM     19  C   UNL     1       1.443   2.810  19.459  0.00  0.00    +0.000 A 
ATOM     20  C   UNL     1       2.754   2.947  18.983  0.00  0.00    +0.000 A 
ATOM     21 CL   UNL     1       3.407   1.605  18.115  0.00  0.00    +0.000 Cl
ENDBRANCH  13  15
ENDBRANCH  12  13
ENDBRANCH   3  12
TORSDOF 4
ENDMDL
MODEL 9
REMARK VINA RESULT:      -7.5      2.696      3.608
REMARK  Name = 
REMARK  4 active torsions:
REMARK  status: ('A' for Active; 'I' for Inactive)
REMARK    1  A    between atoms: C_2  and  C_14
REMARK    2  A    between atoms: N_3  and  O_4
REMARK    3  A    between atoms: O_4  and  C_5
REMARK    4  A    between atoms: C_5  and  C_7
REMARK                            x       y       z     vdW  Elec       q    Type
REMARK                         _______ _______ _______ _____ _____    ______ ____
ROOT
ATOM      1  N   UNL     1       5.183   3.913  15.533  0.00  0.00    +0.000 NA
ATOM      2  C   UNL     1       5.266   4.040  16.827  0.00  0.00    +0.000 C 
ATOM      3  N   UNL     1       4.535   3.246  17.686  0.00  0.00    +0.000 N 
ATOM      4  H   UNL     1       4.520   3.143  15.370  0.00  0.00    +0.000 HD
ATOM      5  H   UNL     1       4.491   3.598  18.649  0.00  0.00    +0.000 HD
ENDROOT
BRANCH   2   6
ATOM      6  C   UNL     1       6.185   5.063  17.427  0.00  0.00    +0.000 A 
ATOM      7  C   UNL     1       6.360   6.303  16.823  0.00  0.00    +0.000 A 
ATOM      8  C   UNL     1       7.240   7.203  17.413  0.00  0.00    +0.000 A 
ATOM      9  C   UNL     1       7.911   6.835  18.575  0.00  0.00    +0.000 A 
ATOM     10  C   UNL     1       7.666   5.579  19.112  0.00  0.00    +0.000 A 
ATOM     11  N   UNL     1       6.814   4.680  18.572  0.00  0.00    +0.000 NA
ENDBRANCH   2   6
BRANCH   3  12
ATOM     12  O   UNL     1       3.290   2.867  17.153  0.00  0.00    +0.000 OA
BRANCH  12  13
ATOM     13  C   UNL     1       2.272   3.645  17.615  0.00  0.00    +0.000 C 
ATOM     14  O   UNL     1       1.436   4.199  16.915  0.00  0.00    +0.000 OA
BRANCH  13  15
ATOM     15  C   UNL     1       2.214   3.625  19.095  0.00  0.00    +0.000 A 
ATOM     16  C   UNL     1       1.707   2.452  19.683  0.00  0.00    +0.000 A 
ATOM     17  C   UNL     1       1.611   2.335  21.072  0.00  0.00    +0.000 A 
ATOM     18  C   UNL     1       2.015   3.390  21.886  0.00  0.00    +0.000 A 
ATOM     19  C   UNL     1       2.501   4.566  21.311  0.00  0.00    +0.000 A 
ATOM     20  C   UNL     1       2.596   4.695  19.919  0.00  0.00    +0.000 A 
ATOM     21 CL   UNL     1       3.126   6.224  19.317  0.00  0.00    +0.000 Cl
ENDBRANCH  13  15
ENDBRANCH  12  13
ENDBRANCH   3  12
TORSDOF 4
ENDMDL
