MODEL 1
REMARK VINA RESULT:      -7.2      0.000      0.000
REMARK  Name = 
REMARK  6 active torsions:
REMARK  status: ('A' for Active; 'I' for Inactive)
REMARK    1  A    between atoms: C_1  and  C_2
REMARK    2  A    between atoms: C_2  and  O_4
REMARK    3  A    between atoms: O_4  and  C_5
REMARK    4  A    between atoms: C_7  and  C_8
REMARK    5  A    between atoms: C_14  and  C_15
REMARK    6  A    between atoms: C_15  and  O_17
REMARK                            x       y       z     vdW  Elec       q    Type
REMARK                         _______ _______ _______ _____ _____    ______ ____
ROOT
ATOM      1  C   UNL     1       5.330   4.153  16.978  0.00  0.00    +0.000 A 
ATOM      2  C   UNL     1       3.964   3.851  17.048  0.00  0.00    +0.000 A 
ATOM      3  C   UNL     1       3.212   4.180  18.183  0.00  0.00    +0.000 A 
ATOM      4  C   UNL     1       3.868   4.749  19.283  0.00  0.00    +0.000 A 
ATOM      5  C   UNL     1       5.241   5.014  19.233  0.00  0.00    +0.000 A 
ATOM      6  C   UNL     1       5.980   4.736  18.072  0.00  0.00    +0.000 A 
ENDROOT
BRANCH   3   7
ATOM      7  C   UNL     1       1.723   3.934  18.209  0.00  0.00    +0.000 C 
ATOM      8  F   UNL     1       1.387   2.627  18.021  0.00  0.00    +0.000 F 
ATOM      9  F   UNL     1       1.153   4.300  19.388  0.00  0.00    +0.000 F 
ATOM     10  F   UNL     1       1.068   4.630  17.239  0.00  0.00    +0.000 F 
ENDBRANCH   3   7
BRANCH   6  11
ATOM     11  C   UNL     1       7.426   5.060  18.099  0.00  0.00    +0.000 C 
ATOM     12  O   UNL     1       7.846   6.164  18.403  0.00  0.00    +0.000 OA
BRANCH  11  13
ATOM     13  O   UNL     1       8.222   4.060  17.673  0.00  0.00    +0.000 OA
ATOM     14  H   UNL     1       9.032   4.354  17.216  0.00  0.00    +0.000 HD
ENDBRANCH  11  13
ENDBRANCH   6  11
BRANCH   1  15
ATOM     15  O   UNL     1       6.057   3.732  15.848  0.00  0.00    +0.000 OA
BRANCH  15  17
ATOM     16  C   UNL     1       6.042   3.818  13.480  0.00  0.00    +0.000 C 
ATOM     17  C   UNL     1       6.048   4.601  14.758  0.00  0.00    +0.000 C 
ATOM     18  O   UNL     1       6.063   5.823  14.825  0.00  0.00    +0.000 OA
ENDBRANCH  15  17
ENDBRANCH   1  15
TORSDOF 5
ENDMDL
MODEL 2
REMARK VINA RESULT:      -6.8      1.438      3.487
REMARK  Name = 
REMARK  6 active torsions:
REMARK  status: ('A' for Active; 'I' for Inactive)
REMARK    1  A    between atoms: C_1  and  C_2
REMARK    2  A    between atoms: C_2  and  O_4
REMARK    3  A    between atoms: O_4  and  C_5
REMARK    4  A    between atoms: C_7  and  C_8
REMARK    5  A    between atoms: C_14  and  C_15
REMARK    6  A    between atoms: C_15  and  O_17
REMARK                            x       y       z     vdW  Elec       q    Type
REMARK                         _______ _______ _______ _____ _____    ______ ____
ROOT
ATOM      1  C   UNL     1       6.136   4.391  17.939  0.00  0.00    +0.000 A 
ATOM      2  C   UNL     1       5.229   4.299  19.004  0.00  0.00    +0.000 A 
ATOM      3  C   UNL     1       3.856   4.158  18.768  0.00  0.00    +0.000 A 
ATOM      4  C   UNL     1       3.394   4.188  17.444  0.00  0.00    +0.000 A 
ATOM      5  C   UNL     1       4.292   4.322  16.380  0.00  0.00    +0.000 A 
ATOM      6  C   UNL     1       5.673   4.405  16.618  0.00  0.00    +0.000 A 
ENDROOT
BRANCH   3   7
ATOM      7  C   UNL     1       2.900   3.966  19.920  0.00  0.00    +0.000 C 
ATOM      8  F   UNL     1       2.782   5.067  20.714  0.00  0.00    +0.000 F 
ATOM      9  F   UNL     1       1.639   3.665  19.509  0.00  0.00    +0.000 F 
ATOM     10  F   UNL     1       3.283   2.952  20.744  0.00  0.00    +0.000 F 
ENDBRANCH   3   7
BRANCH   6  11
ATOM     11  C   UNL     1       6.556   4.531  15.434  0.00  0.00    +0.000 C 
ATOM     12  O   UNL     1       6.506   3.756  14.493  0.00  0.00    +0.000 OA
BRANCH  11  13
ATOM     13  O   UNL     1       7.470   5.516  15.531  0.00  0.00    +0.000 OA
ATOM     14  H   UNL     1       7.202   6.261  16.101  0.00  0.00    +0.000 HD
ENDBRANCH  11  13
ENDBRANCH   6  11
BRANCH   1  15
ATOM     15  O   UNL     1       7.496   4.609  18.229  0.00  0.00    +0.000 OA
BRANCH  15  17
ATOM     16  C   UNL     1       7.930   6.924  18.487  0.00  0.00    +0.000 C 
ATOM     17  C   UNL     1       7.770   5.600  19.170  0.00  0.00    +0.000 C 
ATOM     18  O   UNL     1       7.884   5.421  20.376  0.00  0.00    +0.000 OA
ENDBRANCH  15  17
ENDBRANCH   1  15
TORSDOF 5
ENDMDL
MODEL 3
REMARK VINA RESULT:      -6.7      1.033      1.181
REMARK  Name = 
REMARK  6 active torsions:
REMARK  status: ('A' for Active; 'I' for Inactive)
REMARK    1  A    between atoms: C_1  and  C_2
REMARK    2  A    between atoms: C_2  and  O_4
REMARK    3  A    between atoms: O_4  and  C_5
REMARK    4  A    between atoms: C_7  and  C_8
REMARK    5  A    between atoms: C_14  and  C_15
REMARK    6  A    between atoms: C_15  and  O_17
REMARK                            x       y       z     vdW  Elec       q    Type
REMARK                         _______ _______ _______ _____ _____    ______ ____
ROOT
ATOM      1  C   UNL     1       5.885   4.539  16.943  0.00  0.00    +0.000 A 
ATOM      2  C   UNL     1       4.659   3.861  16.962  0.00  0.00    +0.000 A 
ATOM      3  C   UNL     1       3.649   4.229  17.859  0.00  0.00    +0.000 A 
ATOM      4  C   UNL     1       3.913   5.240  18.794  0.00  0.00    +0.000 A 
ATOM      5  C   UNL     1       5.151   5.891  18.805  0.00  0.00    +0.000 A 
ATOM      6  C   UNL     1       6.141   5.559  17.867  0.00  0.00    +0.000 A 
ENDROOT
BRANCH   3   7
ATOM      7  C   UNL     1       2.300   3.553  17.807  0.00  0.00    +0.000 C 
ATOM      8  F   UNL     1       2.306   2.387  17.102  0.00  0.00    +0.000 F 
ATOM      9  F   UNL     1       1.823   3.239  19.042  0.00  0.00    +0.000 F 
ATOM     10  F   UNL     1       1.352   4.337  17.222  0.00  0.00    +0.000 F 
ENDBRANCH   3   7
BRANCH   6  11
ATOM     11  C   UNL     1       7.419   6.307  17.941  0.00  0.00    +0.000 C 
ATOM     12  O   UNL     1       8.109   6.330  18.947  0.00  0.00    +0.000 OA
BRANCH  11  13
ATOM     13  O   UNL     1       7.700   7.026  16.837  0.00  0.00    +0.000 OA
ATOM     14  H   UNL     1       7.107   7.786  16.688  0.00  0.00    +0.000 HD
ENDBRANCH  11  13
ENDBRANCH   6  11
BRANCH   1  15
ATOM     15  O   UNL     1       6.895   4.082  16.076  0.00  0.00    +0.000 OA
BRANCH  15  17
ATOM     16  C   UNL     1       5.969   3.876  13.905  0.00  0.00    +0.000 C 
ATOM     17  C   UNL     1       6.901   4.637  14.797  0.00  0.00    +0.000 C 
ATOM     18  O   UNL     1       7.580   5.593  14.443  0.00  0.00    +0.000 OA
ENDBRANCH  15  17
ENDBRANCH   1  15
TORSDOF 5
ENDMDL
MODEL 4
REMARK VINA RESULT:      -6.7      4.109      5.830
REMARK  Name = 
REMARK  6 active torsions:
REMARK  status: ('A' for Active; 'I' for Inactive)
REMARK    1  A    between atoms: C_1  and  C_2
REMARK    2  A    between atoms: C_2  and  O_4
REMARK    3  A    between atoms: O_4  and  C_5
REMARK    4  A    between atoms: C_7  and  C_8
REMARK    5  A    between atoms: C_14  and  C_15
REMARK    6  A    between atoms: C_15  and  O_17
REMARK                            x       y       z     vdW  Elec       q    Type
REMARK                         _______ _______ _______ _____ _____    ______ ____
ROOT
ATOM      1  C   UNL     1       4.091   3.580  19.146  0.00  0.00    +0.000 A 
ATOM      2  C   UNL     1       5.406   4.058  19.224  0.00  0.00    +0.000 A 
ATOM      3  C   UNL     1       6.049   4.577  18.093  0.00  0.00    +0.000 A 
ATOM      4  C   UNL     1       5.381   4.538  16.861  0.00  0.00    +0.000 A 
ATOM      5  C   UNL     1       4.084   4.023  16.772  0.00  0.00    +0.000 A 
ATOM      6  C   UNL     1       3.420   3.557  17.918  0.00  0.00    +0.000 A 
ENDROOT
BRANCH   3   7
ATOM      7  C   UNL     1       7.430   5.175  18.209  0.00  0.00    +0.000 C 
ATOM      8  F   UNL     1       7.706   5.662  19.452  0.00  0.00    +0.000 F 
ATOM      9  F   UNL     1       8.414   4.276  17.934  0.00  0.00    +0.000 F 
ATOM     10  F   UNL     1       7.616   6.216  17.351  0.00  0.00    +0.000 F 
ENDBRANCH   3   7
BRANCH   6  11
ATOM     11  C   UNL     1       2.043   3.040  17.737  0.00  0.00    +0.000 C 
ATOM     12  O   UNL     1       1.107   3.760  17.429  0.00  0.00    +0.000 OA
BRANCH  11  13
ATOM     13  O   UNL     1       1.903   1.732  18.030  0.00  0.00    +0.000 OA
ATOM     14  H   UNL     1       2.328   1.128  17.393  0.00  0.00    +0.000 HD
ENDBRANCH  11  13
ENDBRANCH   6  11
BRANCH   1  15
ATOM     15  O   UNL     1       3.517   2.998  20.292  0.00  0.00    +0.000 OA
BRANCH  15  17
ATOM     16  C   UNL     1       1.476   2.801  21.481  0.00  0.00    +0.000 C 
ATOM     17  C   UNL     1       2.502   3.731  20.907  0.00  0.00    +0.000 C 
ATOM     18  O   UNL     1       2.441   4.952  20.957  0.00  0.00    +0.000 OA
ENDBRANCH  15  17
ENDBRANCH   1  15
TORSDOF 5
ENDMDL
MODEL 5
REMARK VINA RESULT:      -6.7      0.670      1.242
REMARK  Name = 
REMARK  6 active torsions:
REMARK  status: ('A' for Active; 'I' for Inactive)
REMARK    1  A    between atoms: C_1  and  C_2
REMARK    2  A    between atoms: C_2  and  O_4
REMARK    3  A    between atoms: O_4  and  C_5
REMARK    4  A    between atoms: C_7  and  C_8
REMARK    5  A    between atoms: C_14  and  C_15
REMARK    6  A    between atoms: C_15  and  O_17
REMARK                            x       y       z     vdW  Elec       q    Type
REMARK                         _______ _______ _______ _____ _____    ______ ____
ROOT
ATOM      1  C   UNL     1       5.308   4.096  17.020  0.00  0.00    +0.000 A 
ATOM      2  C   UNL     1       3.941   3.795  17.090  0.00  0.00    +0.000 A 
ATOM      3  C   UNL     1       3.182   4.162  18.208  0.00  0.00    +0.000 A 
ATOM      4  C   UNL     1       3.831   4.768  19.293  0.00  0.00    +0.000 A 
ATOM      5  C   UNL     1       5.203   5.032  19.244  0.00  0.00    +0.000 A 
ATOM      6  C   UNL     1       5.951   4.715  18.098  0.00  0.00    +0.000 A 
ENDROOT
BRANCH   3   7
ATOM      7  C   UNL     1       1.693   3.916  18.233  0.00  0.00    +0.000 C 
ATOM      8  F   UNL     1       1.106   4.265  19.412  0.00  0.00    +0.000 F 
ATOM      9  F   UNL     1       1.032   4.611  17.268  0.00  0.00    +0.000 F 
ATOM     10  F   UNL     1       1.383   2.605  18.036  0.00  0.00    +0.000 F 
ENDBRANCH   3   7
BRANCH   6  11
ATOM     11  C   UNL     1       7.396   5.041  18.123  0.00  0.00    +0.000 C 
ATOM     12  O   UNL     1       7.816   6.137  18.459  0.00  0.00    +0.000 OA
BRANCH  11  13
ATOM     13  O   UNL     1       8.191   4.057  17.660  0.00  0.00    +0.000 OA
ATOM     14  H   UNL     1       7.868   3.627  16.846  0.00  0.00    +0.000 HD
ENDBRANCH  11  13
ENDBRANCH   6  11
BRANCH   1  15
ATOM     15  O   UNL     1       6.042   3.638  15.909  0.00  0.00    +0.000 OA
BRANCH  15  17
ATOM     16  C   UNL     1       5.548   5.762  14.981  0.00  0.00    +0.000 C 
ATOM     17  C   UNL     1       5.822   4.314  14.709  0.00  0.00    +0.000 C 
ATOM     18  O   UNL     1       5.831   3.803  13.597  0.00  0.00    +0.000 OA
ENDBRANCH  15  17
ENDBRANCH   1  15
TORSDOF 5
ENDMDL
MODEL 6
REMARK VINA RESULT:      -6.7      1.366      3.225
REMARK  Name = 
REMARK  6 active torsions:
REMARK  status: ('A' for Active; 'I' for Inactive)
REMARK    1  A    between atoms: C_1  and  C_2
REMARK    2  A    between atoms: C_2  and  O_4
REMARK    3  A    between atoms: O_4  and  C_5
REMARK    4  A    between atoms: C_7  and  C_8
REMARK    5  A    between atoms: C_14  and  C_15
REMARK    6  A    between atoms: C_15  and  O_17
REMARK                            x       y       z     vdW  Elec       q    Type
REMARK                         _______ _______ _______ _____ _____    ______ ____
ROOT
ATOM      1  C   UNL     1       6.071   4.351  17.905  0.00  0.00    +0.000 A 
ATOM      2  C   UNL     1       5.102   4.294  18.915  0.00  0.00    +0.000 A 
ATOM      3  C   UNL     1       3.740   4.203  18.599  0.00  0.00    +0.000 A 
ATOM      4  C   UNL     1       3.357   4.245  17.252  0.00  0.00    +0.000 A 
ATOM      5  C   UNL     1       4.319   4.343  16.241  0.00  0.00    +0.000 A 
ATOM      6  C   UNL     1       5.687   4.377  16.559  0.00  0.00    +0.000 A 
ENDROOT
BRANCH   3   7
ATOM      7  C   UNL     1       2.713   4.049  19.694  0.00  0.00    +0.000 C 
ATOM      8  F   UNL     1       2.552   2.761  20.109  0.00  0.00    +0.000 F 
ATOM      9  F   UNL     1       3.026   4.763  20.809  0.00  0.00    +0.000 F 
ATOM     10  F   UNL     1       1.478   4.472  19.306  0.00  0.00    +0.000 F 
ENDBRANCH   3   7
BRANCH   6  11
ATOM     11  C   UNL     1       6.640   4.467  15.428  0.00  0.00    +0.000 C 
ATOM     12  O   UNL     1       7.465   5.362  15.334  0.00  0.00    +0.000 OA
BRANCH  11  13
ATOM     13  O   UNL     1       6.455   3.532  14.476  0.00  0.00    +0.000 OA
ATOM     14  H   UNL     1       5.609   3.605  13.996  0.00  0.00    +0.000 HD
ENDBRANCH  11  13
ENDBRANCH   6  11
BRANCH   1  15
ATOM     15  O   UNL     1       7.419   4.520  18.273  0.00  0.00    +0.000 OA
BRANCH  15  17
ATOM     16  C   UNL     1       7.849   6.848  18.379  0.00  0.00    +0.000 C 
ATOM     17  C   UNL     1       7.687   5.572  19.148  0.00  0.00    +0.000 C 
ATOM     18  O   UNL     1       7.795   5.472  20.363  0.00  0.00    +0.000 OA
ENDBRANCH  15  17
ENDBRANCH   1  15
TORSDOF 5
ENDMDL
MODEL 7
REMARK VINA RESULT:      -6.7      1.810      3.384
REMARK  Name = 
REMARK  6 active torsions:
REMARK  status: ('A' for Active; 'I' for Inactive)
REMARK    1  A    between atoms: C_1  and  C_2
REMARK    2  A    between atoms: C_2  and  O_4
REMARK    3  A    between atoms: O_4  and  C_5
REMARK    4  A    between atoms: C_7  and  C_8
REMARK    5  A    between atoms: C_14  and  C_15
REMARK    6  A    between atoms: C_15  and  O_17
REMARK                            x       y       z     vdW  Elec       q    Type
REMARK                         _______ _______ _______ _____ _____    ______ ____
ROOT
ATOM      1  C   UNL     1       5.500   6.004  17.039  0.00  0.00    +0.000 A 
ATOM      2  C   UNL     1       4.474   6.239  17.963  0.00  0.00    +0.000 A 
ATOM      3  C   UNL     1       3.496   5.269  18.213  0.00  0.00    +0.000 A 
ATOM      4  C   UNL     1       3.517   4.083  17.465  0.00  0.00    +0.000 A 
ATOM      5  C   UNL     1       4.516   3.862  16.511  0.00  0.00    +0.000 A 
ATOM      6  C   UNL     1       5.528   4.813  16.304  0.00  0.00    +0.000 A 
ENDROOT
BRANCH   3   7
ATOM      7  C   UNL     1       2.450   5.496  19.278  0.00  0.00    +0.000 C 
ATOM      8  F   UNL     1       2.022   6.788  19.348  0.00  0.00    +0.000 F 
ATOM      9  F   UNL     1       1.334   4.744  19.085  0.00  0.00    +0.000 F 
ATOM     10  F   UNL     1       2.906   5.187  20.523  0.00  0.00    +0.000 F 
ENDBRANCH   3   7
BRANCH   6  11
ATOM     11  C   UNL     1       6.555   4.494  15.285  0.00  0.00    +0.000 C 
ATOM     12  O   UNL     1       6.270   4.080  14.172  0.00  0.00    +0.000 OA
BRANCH  11  13
ATOM     13  O   UNL     1       7.823   4.614  15.724  0.00  0.00    +0.000 OA
ATOM     14  H   UNL     1       8.432   5.035  15.090  0.00  0.00    +0.000 HD
ENDBRANCH  11  13
ENDBRANCH   6  11
BRANCH   1  15
ATOM     15  O   UNL     1       6.413   7.040  16.767  0.00  0.00    +0.000 OA
BRANCH  15  17
ATOM     16  C   UNL     1       7.892   8.641  17.697  0.00  0.00    +0.000 C 
ATOM     17  C   UNL     1       7.437   7.214  17.697  0.00  0.00    +0.000 C 
ATOM     18  O   UNL     1       7.911   6.331  18.401  0.00  0.00    +0.000 OA
ENDBRANCH  15  17
ENDBRANCH   1  15
TORSDOF 5
ENDMDL
MODEL 8
REMARK VINA RESULT:      -6.6      3.831      5.120
REMARK  Name = 
REMARK  6 active torsions:
REMARK  status: ('A' for Active; 'I' for Inactive)
REMARK    1  A    between atoms: C_1  and  C_2
REMARK    2  A    between atoms: C_2  and  O_4
REMARK    3  A    between atoms: O_4  and  C_5
REMARK    4  A    between atoms: C_7  and  C_8
REMARK    5  A    between atoms: C_14  and  C_15
REMARK    6  A    between atoms: C_15  and  O_17
REMARK                            x       y       z     vdW  Elec       q    Type
REMARK                         _______ _______ _______ _____ _____    ______ ____
ROOT
ATOM      1  C   UNL     1       3.485   4.848  18.022  0.00  0.00    +0.000 A 
ATOM      2  C   UNL     1       4.249   4.267  17.002  0.00  0.00    +0.000 A 
ATOM      3  C   UNL     1       5.044   5.057  16.162  0.00  0.00    +0.000 A 
ATOM      4  C   UNL     1       5.002   6.450  16.309  0.00  0.00    +0.000 A 
ATOM      5  C   UNL     1       4.208   7.037  17.300  0.00  0.00    +0.000 A 
ATOM      6  C   UNL     1       3.457   6.239  18.178  0.00  0.00    +0.000 A 
ENDROOT
BRANCH   3   7
ATOM      7  C   UNL     1       5.934   4.412  15.127  0.00  0.00    +0.000 C 
ATOM      8  F   UNL     1       7.141   5.030  14.992  0.00  0.00    +0.000 F 
ATOM      9  F   UNL     1       6.212   3.112  15.412  0.00  0.00    +0.000 F 
ATOM     10  F   UNL     1       5.372   4.418  13.887  0.00  0.00    +0.000 F 
ENDBRANCH   3   7
BRANCH   6  11
ATOM     11  C   UNL     1       2.653   6.940  19.208  0.00  0.00    +0.000 C 
ATOM     12  O   UNL     1       2.138   8.028  19.009  0.00  0.00    +0.000 OA
BRANCH  11  13
ATOM     13  O   UNL     1       2.620   6.314  20.400  0.00  0.00    +0.000 OA
ATOM     14  H   UNL     1       1.731   6.242  20.794  0.00  0.00    +0.000 HD
ENDBRANCH  11  13
ENDBRANCH   6  11
BRANCH   1  15
ATOM     15  O   UNL     1       2.644   4.020  18.789  0.00  0.00    +0.000 OA
BRANCH  15  17
ATOM     16  C   UNL     1       0.950   2.364  18.831  0.00  0.00    +0.000 C 
ATOM     17  C   UNL     1       1.463   3.608  18.173  0.00  0.00    +0.000 C 
ATOM     18  O   UNL     1       0.928   4.165  17.223  0.00  0.00    +0.000 OA
ENDBRANCH  15  17
ENDBRANCH   1  15
TORSDOF 5
ENDMDL
MODEL 9
REMARK VINA RESULT:      -6.6      1.143      1.751
REMARK  Name = 
REMARK  6 active torsions:
REMARK  status: ('A' for Active; 'I' for Inactive)
REMARK    1  A    between atoms: C_1  and  C_2
REMARK    2  A    between atoms: C_2  and  O_4
REMARK    3  A    between atoms: O_4  and  C_5
REMARK    4  A    between atoms: C_7  and  C_8
REMARK    5  A    between atoms: C_14  and  C_15
REMARK    6  A    between atoms: C_15  and  O_17
REMARK                            x       y       z     vdW  Elec       q    Type
REMARK                         _______ _______ _______ _____ _____    ______ ____
ROOT
ATOM      1  C   UNL     1       5.294   5.576  16.723  0.00  0.00    +0.000 A 
ATOM      2  C   UNL     1       4.118   4.817  16.768  0.00  0.00    +0.000 A 
ATOM      3  C   UNL     1       3.535   4.468  17.993  0.00  0.00    +0.000 A 
ATOM      4  C   UNL     1       4.192   4.826  19.178  0.00  0.00    +0.000 A 
ATOM      5  C   UNL     1       5.389   5.549  19.137  0.00  0.00    +0.000 A 
ATOM      6  C   UNL     1       5.941   5.947  17.908  0.00  0.00    +0.000 A 
ENDROOT
BRANCH   3   7
ATOM      7  C   UNL     1       2.219   3.730  18.027  0.00  0.00    +0.000 C 
ATOM      8  F   UNL     1       1.187   4.437  17.486  0.00  0.00    +0.000 F 
ATOM      9  F   UNL     1       2.260   2.552  17.347  0.00  0.00    +0.000 F 
ATOM     10  F   UNL     1       1.833   3.422  19.296  0.00  0.00    +0.000 F 
ENDBRANCH   3   7
BRANCH   6  11
ATOM     11  C   UNL     1       7.204   6.721  17.955  0.00  0.00    +0.000 C 
ATOM     12  O   UNL     1       8.059   6.531  18.804  0.00  0.00    +0.000 OA
BRANCH  11  13
ATOM     13  O   UNL     1       7.280   7.706  17.039  0.00  0.00    +0.000 OA
ATOM     14  H   UNL     1       6.548   7.715  16.394  0.00  0.00    +0.000 HD
ENDBRANCH  11  13
ENDBRANCH   6  11
BRANCH   1  15
ATOM     15  O   UNL     1       5.882   5.836  15.470  0.00  0.00    +0.000 OA
BRANCH  15  17
ATOM     16  C   UNL     1       6.057   4.112  13.854  0.00  0.00    +0.000 C 
ATOM     17  C   UNL     1       6.729   4.845  14.975  0.00  0.00    +0.000 C 
ATOM     18  O   UNL     1       7.849   4.593  15.400  0.00  0.00    +0.000 OA
ENDBRANCH  15  17
ENDBRANCH   1  15
TORSDOF 5
ENDMDL
