MODEL 1
REMARK VINA RESULT:      -7.9      0.000      0.000
REMARK  Name = 
REMARK  12 active torsions:
REMARK  status: ('A' for Active; 'I' for Inactive)
REMARK    1  A    between atoms: C_1  and  C_2
REMARK    2  A    between atoms: C_2  and  C_3
REMARK    3  A    between atoms: C_3  and  C_4
REMARK    4  A    between atoms: C_4  and  O_5
REMARK    5  A    between atoms: O_5  and  C_6
REMARK    6  A    between atoms: C_6  and  C_8
REMARK    7  A    between atoms: C_8  and  N_20
REMARK    8  A    between atoms: C_9  and  C_10
REMARK    9  A    between atoms: N_12  and  C_13
REMARK   10  A    between atoms: C_21  and  C_23
REMARK   11  A    between atoms: C_26  and  O_27
REMARK   12  A    between atoms: O_27  and  C_28
REMARK                            x       y       z     vdW  Elec       q    Type
REMARK                         _______ _______ _______ _____ _____    ______ ____
ROOT
ATOM      1  C   UNL     1       3.195   4.652  20.194  0.00  0.00    +0.000 C 
ATOM      2  C   UNL     1       4.268   4.077  19.608  0.00  0.00    +0.000 C 
ENDROOT
BRANCH   2   3
ATOM      3  C   UNL     1       5.317   4.712  18.874  0.00  0.00    +0.000 A 
ATOM      4  C   UNL     1       6.341   5.452  19.422  0.00  0.00    +0.000 A 
ATOM      5  N   UNL     1       7.055   6.002  18.393  0.00  0.00    +0.000 N 
ATOM      6  C   UNL     1       8.060   7.026  18.560  0.00  0.00    +0.000 C 
ATOM      7  C   UNL     1       6.621   5.497  17.186  0.00  0.00    +0.000 A 
ATOM      8  C   UNL     1       7.066   5.736  15.875  0.00  0.00    +0.000 A 
ATOM      9  C   UNL     1       6.406   5.087  14.829  0.00  0.00    +0.000 A 
ATOM     10  C   UNL     1       5.347   4.220  15.079  0.00  0.00    +0.000 A 
ATOM     11  C   UNL     1       4.905   3.995  16.387  0.00  0.00    +0.000 A 
ATOM     12  C   UNL     1       5.540   4.653  17.464  0.00  0.00    +0.000 A 
ENDBRANCH   2   3
BRANCH   1  13
ATOM     13  N   UNL     1       2.878   6.004  20.106  0.00  0.00    +0.000 N 
ATOM     14  C   UNL     1       2.362   6.520  18.925  0.00  0.00    +0.000 C 
ATOM     15  O   UNL     1       2.145   5.837  17.928  0.00  0.00    +0.000 OA
ATOM     16  H   UNL     1       2.432   6.368  20.944  0.00  0.00    +0.000 HD
BRANCH  14  17
ATOM     17  C   UNL     1       2.026   7.979  18.891  0.00  0.00    +0.000 A 
ATOM     18  C   UNL     1       1.366   8.504  20.013  0.00  0.00    +0.000 A 
ATOM     19  C   UNL     1       1.003   9.852  20.064  0.00  0.00    +0.000 A 
ATOM     20  C   UNL     1       1.319  10.705  19.011  0.00  0.00    +0.000 A 
ATOM     21  C   UNL     1       1.963  10.195  17.881  0.00  0.00    +0.000 A 
ATOM     22  C   UNL     1       2.309   8.837  17.821  0.00  0.00    +0.000 A 
BRANCH  20  23
ATOM     23  O   UNL     1       0.917  12.001  19.174  0.00  0.00    +0.000 OA
ATOM     24  C   UNL     1       1.722  12.792  20.041  0.00  0.00    +0.000 C 
ENDBRANCH  20  23
ENDBRANCH  14  17
ENDBRANCH   1  13
BRANCH   1  25
ATOM     25  C   UNL     1       2.332   3.860  21.124  0.00  0.00    +0.000 C 
ATOM     26  O   UNL     1       2.808   3.171  22.019  0.00  0.00    +0.000 OA
BRANCH  25  27
ATOM     27  O   UNL     1       1.023   3.930  20.784  0.00  0.00    +0.000 OA
BRANCH  27  28
ATOM     28  C   UNL     1       0.707   3.305  19.541  0.00  0.00    +0.000 C 
BRANCH  28  29
ATOM     29  C   UNL     1       1.341   1.929  19.400  0.00  0.00    +0.000 C 
BRANCH  29  31
ATOM     30  C   UNL     1       3.518   1.280  18.270  0.00  0.00    +0.000 C 
ATOM     31  C   UNL     1       2.137   1.881  18.095  0.00  0.00    +0.000 C 
ENDBRANCH  29  31
ENDBRANCH  28  29
ENDBRANCH  27  28
ENDBRANCH  25  27
ENDBRANCH   1  25
TORSDOF 9
ENDMDL
MODEL 2
REMARK VINA RESULT:      -7.9      0.553      1.054
REMARK  Name = 
REMARK  12 active torsions:
REMARK  status: ('A' for Active; 'I' for Inactive)
REMARK    1  A    between atoms: C_1  and  C_2
REMARK    2  A    between atoms: C_2  and  C_3
REMARK    3  A    between atoms: C_3  and  C_4
REMARK    4  A    between atoms: C_4  and  O_5
REMARK    5  A    between atoms: O_5  and  C_6
REMARK    6  A    between atoms: C_6  and  C_8
REMARK    7  A    between atoms: C_8  and  N_20
REMARK    8  A    between atoms: C_9  and  C_10
REMARK    9  A    between atoms: N_12  and  C_13
REMARK   10  A    between atoms: C_21  and  C_23
REMARK   11  A    between atoms: C_26  and  O_27
REMARK   12  A    between atoms: O_27  and  C_28
REMARK                            x       y       z     vdW  Elec       q    Type
REMARK                         _______ _______ _______ _____ _____    ______ ____
ROOT
ATOM      1  C   UNL     1       3.192   4.626  20.267  0.00  0.00    +0.000 C 
ATOM      2  C   UNL     1       4.257   4.059  19.661  0.00  0.00    +0.000 C 
ENDROOT
BRANCH   2   3
ATOM      3  C   UNL     1       5.298   4.704  18.923  0.00  0.00    +0.000 A 
ATOM      4  C   UNL     1       6.320   5.449  19.469  0.00  0.00    +0.000 A 
ATOM      5  N   UNL     1       7.024   6.007  18.439  0.00  0.00    +0.000 N 
ATOM      6  C   UNL     1       8.023   7.038  18.604  0.00  0.00    +0.000 C 
ATOM      7  C   UNL     1       6.588   5.505  17.232  0.00  0.00    +0.000 A 
ATOM      8  C   UNL     1       7.024   5.752  15.920  0.00  0.00    +0.000 A 
ATOM      9  C   UNL     1       6.363   5.103  14.874  0.00  0.00    +0.000 A 
ATOM     10  C   UNL     1       5.311   4.227  15.127  0.00  0.00    +0.000 A 
ATOM     11  C   UNL     1       4.878   3.995  16.436  0.00  0.00    +0.000 A 
ATOM     12  C   UNL     1       5.514   4.652  17.512  0.00  0.00    +0.000 A 
ENDBRANCH   2   3
BRANCH   1  13
ATOM     13  N   UNL     1       2.874   5.980  20.203  0.00  0.00    +0.000 N 
ATOM     14  C   UNL     1       2.274   6.498  19.064  0.00  0.00    +0.000 C 
ATOM     15  O   UNL     1       1.980   5.815  18.086  0.00  0.00    +0.000 OA
ATOM     16  H   UNL     1       2.494   6.345  21.072  0.00  0.00    +0.000 HD
BRANCH  14  17
ATOM     17  C   UNL     1       1.942   7.958  19.054  0.00  0.00    +0.000 A 
ATOM     18  C   UNL     1       2.251   8.670  17.886  0.00  0.00    +0.000 A 
ATOM     19  C   UNL     1       1.986  10.039  17.791  0.00  0.00    +0.000 A 
ATOM     20  C   UNL     1       1.381  10.713  18.849  0.00  0.00    +0.000 A 
ATOM     21  C   UNL     1       1.079  10.019  20.023  0.00  0.00    +0.000 A 
ATOM     22  C   UNL     1       1.364   8.650  20.127  0.00  0.00    +0.000 A 
BRANCH  20  23
ATOM     23  O   UNL     1       1.169  12.047  18.641  0.00  0.00    +0.000 OA
ATOM     24  C   UNL     1      -0.194  12.446  18.540  0.00  0.00    +0.000 C 
ENDBRANCH  20  23
ENDBRANCH  14  17
ENDBRANCH   1  13
BRANCH   1  25
ATOM     25  C   UNL     1       2.339   3.821  21.196  0.00  0.00    +0.000 C 
ATOM     26  O   UNL     1       2.752   3.437  22.284  0.00  0.00    +0.000 OA
BRANCH  25  27
ATOM     27  O   UNL     1       1.144   3.506  20.642  0.00  0.00    +0.000 OA
BRANCH  27  28
ATOM     28  C   UNL     1       1.137   2.272  19.927  0.00  0.00    +0.000 C 
BRANCH  28  29
ATOM     29  C   UNL     1       0.898   2.461  18.437  0.00  0.00    +0.000 C 
BRANCH  29  31
ATOM     30  C   UNL     1       3.160   1.311  18.490  0.00  0.00    +0.000 C 
ATOM     31  C   UNL     1       2.194   2.159  17.684  0.00  0.00    +0.000 C 
ENDBRANCH  29  31
ENDBRANCH  28  29
ENDBRANCH  27  28
ENDBRANCH  25  27
ENDBRANCH   1  25
TORSDOF 9
ENDMDL
MODEL 3
REMARK VINA RESULT:      -7.9      1.677      2.518
REMARK  Name = 
REMARK  12 active torsions:
REMARK  status: ('A' for Active; 'I' for Inactive)
REMARK    1  A    between atoms: C_1  and  C_2
REMARK    2  A    between atoms: C_2  and  C_3
REMARK    3  A    between atoms: C_3  and  C_4
REMARK    4  A    between atoms: C_4  and  O_5
REMARK    5  A    between atoms: O_5  and  C_6
REMARK    6  A    between atoms: C_6  and  C_8
REMARK    7  A    between atoms: C_8  and  N_20
REMARK    8  A    between atoms: C_9  and  C_10
REMARK    9  A    between atoms: N_12  and  C_13
REMARK   10  A    between atoms: C_21  and  C_23
REMARK   11  A    between atoms: C_26  and  O_27
REMARK   12  A    between atoms: O_27  and  C_28
REMARK                            x       y       z     vdW  Elec       q    Type
REMARK                         _______ _______ _______ _____ _____    ______ ____
ROOT
ATOM      1  C   UNL     1       3.307   3.504  17.442  0.00  0.00    +0.000 C 
ATOM      2  C   UNL     1       4.506   3.218  16.890  0.00  0.00    +0.000 C 
ENDROOT
BRANCH   2   3
ATOM      3  C   UNL     1       5.518   4.130  16.458  0.00  0.00    +0.000 A 
ATOM      4  C   UNL     1       6.160   5.049  17.259  0.00  0.00    +0.000 A 
ATOM      5  N   UNL     1       6.951   5.821  16.456  0.00  0.00    +0.000 N 
ATOM      6  C   UNL     1       7.601   7.037  16.885  0.00  0.00    +0.000 C 
ATOM      7  C   UNL     1       6.969   5.317  15.173  0.00  0.00    +0.000 A 
ATOM      8  C   UNL     1       7.655   5.745  14.025  0.00  0.00    +0.000 A 
ATOM      9  C   UNL     1       7.456   5.036  12.837  0.00  0.00    +0.000 A 
ATOM     10  C   UNL     1       6.612   3.930  12.797  0.00  0.00    +0.000 A 
ATOM     11  C   UNL     1       5.927   3.516  13.944  0.00  0.00    +0.000 A 
ATOM     12  C   UNL     1       6.093   4.225  15.154  0.00  0.00    +0.000 A 
ENDBRANCH   2   3
BRANCH   1  13
ATOM     13  N   UNL     1       2.803   4.789  17.615  0.00  0.00    +0.000 N 
ATOM     14  C   UNL     1       3.091   5.497  18.773  0.00  0.00    +0.000 C 
ATOM     15  O   UNL     1       3.799   5.056  19.675  0.00  0.00    +0.000 OA
ATOM     16  H   UNL     1       2.837   5.352  16.768  0.00  0.00    +0.000 HD
BRANCH  14  17
ATOM     17  C   UNL     1       2.534   6.881  18.900  0.00  0.00    +0.000 A 
ATOM     18  C   UNL     1       2.630   7.709  17.771  0.00  0.00    +0.000 A 
ATOM     19  C   UNL     1       2.147   9.019  17.802  0.00  0.00    +0.000 A 
ATOM     20  C   UNL     1       1.533   9.516  18.949  0.00  0.00    +0.000 A 
ATOM     21  C   UNL     1       1.442   8.708  20.085  0.00  0.00    +0.000 A 
ATOM     22  C   UNL     1       1.946   7.399  20.061  0.00  0.00    +0.000 A 
BRANCH  20  23
ATOM     23  O   UNL     1       1.098  10.809  18.861  0.00  0.00    +0.000 OA
ATOM     24  C   UNL     1       2.041  11.744  18.349  0.00  0.00    +0.000 C 
ENDBRANCH  20  23
ENDBRANCH  14  17
ENDBRANCH   1  13
BRANCH   1  25
ATOM     25  C   UNL     1       2.482   2.415  18.053  0.00  0.00    +0.000 C 
ATOM     26  O   UNL     1       2.974   1.347  18.399  0.00  0.00    +0.000 OA
BRANCH  25  27
ATOM     27  O   UNL     1       1.164   2.726  18.070  0.00  0.00    +0.000 OA
BRANCH  27  28
ATOM     28  C   UNL     1       0.512   2.445  19.306  0.00  0.00    +0.000 C 
BRANCH  28  29
ATOM     29  C   UNL     1       0.752   3.522  20.353  0.00  0.00    +0.000 C 
BRANCH  29  31
ATOM     30  C   UNL     1       2.742   2.547  21.591  0.00  0.00    +0.000 C 
ATOM     31  C   UNL     1       1.259   2.863  21.637  0.00  0.00    +0.000 C 
ENDBRANCH  29  31
ENDBRANCH  28  29
ENDBRANCH  27  28
ENDBRANCH  25  27
ENDBRANCH   1  25
TORSDOF 9
ENDMDL
MODEL 4
REMARK VINA RESULT:      -7.8      2.191      6.464
REMARK  Name = 
REMARK  12 active torsions:
REMARK  status: ('A' for Active; 'I' for Inactive)
REMARK    1  A    between atoms: C_1  and  C_2
REMARK    2  A    between atoms: C_2  and  C_3
REMARK    3  A    between atoms: C_3  and  C_4
REMARK    4  A    between atoms: C_4  and  O_5
REMARK    5  A    between atoms: O_5  and  C_6
REMARK    6  A    between atoms: C_6  and  C_8
REMARK    7  A    between atoms: C_8  and  N_20
REMARK    8  A    between atoms: C_9  and  C_10
REMARK    9  A    between atoms: N_12  and  C_13
REMARK   10  A    between atoms: C_21  and  C_23
REMARK   11  A    between atoms: C_26  and  O_27
REMARK   12  A    between atoms: O_27  and  C_28
REMARK                            x       y       z     vdW  Elec       q    Type
REMARK                         _______ _______ _______ _____ _____    ______ ____
ROOT
ATOM      1  C   UNL     1       1.959   5.609  20.418  0.00  0.00    +0.000 C 
ATOM      2  C   UNL     1       1.396   6.683  21.012  0.00  0.00    +0.000 C 
ENDROOT
BRANCH   2   3
ATOM      3  C   UNL     1       1.258   8.008  20.491  0.00  0.00    +0.000 A 
ATOM      4  C   UNL     1       1.695   8.429  19.254  0.00  0.00    +0.000 A 
ATOM      5  N   UNL     1       1.505   9.781  19.184  0.00  0.00    +0.000 N 
ATOM      6  C   UNL     1       2.048  10.623  18.143  0.00  0.00    +0.000 C 
ATOM      7  C   UNL     1       0.798  10.223  20.281  0.00  0.00    +0.000 A 
ATOM      8  C   UNL     1       0.344  11.506  20.627  0.00  0.00    +0.000 A 
ATOM      9  C   UNL     1      -0.340  11.658  21.836  0.00  0.00    +0.000 A 
ATOM     10  C   UNL     1      -0.574  10.566  22.667  0.00  0.00    +0.000 A 
ATOM     11  C   UNL     1      -0.110   9.293  22.318  0.00  0.00    +0.000 A 
ATOM     12  C   UNL     1       0.601   9.114  21.111  0.00  0.00    +0.000 A 
ENDBRANCH   2   3
BRANCH   1  13
ATOM     13  N   UNL     1       2.597   5.633  19.182  0.00  0.00    +0.000 N 
ATOM     14  C   UNL     1       3.979   5.528  19.113  0.00  0.00    +0.000 C 
ATOM     15  O   UNL     1       4.696   5.393  20.101  0.00  0.00    +0.000 OA
ATOM     16  H   UNL     1       2.107   5.104  18.466  0.00  0.00    +0.000 HD
BRANCH  14  17
ATOM     17  C   UNL     1       4.612   5.546  17.756  0.00  0.00    +0.000 A 
ATOM     18  C   UNL     1       5.270   4.376  17.348  0.00  0.00    +0.000 A 
ATOM     19  C   UNL     1       5.898   4.306  16.103  0.00  0.00    +0.000 A 
ATOM     20  C   UNL     1       5.856   5.390  15.231  0.00  0.00    +0.000 A 
ATOM     21  C   UNL     1       5.215   6.567  15.629  0.00  0.00    +0.000 A 
ATOM     22  C   UNL     1       4.602   6.645  16.888  0.00  0.00    +0.000 A 
BRANCH  20  23
ATOM     23  O   UNL     1       6.502   5.205  14.041  0.00  0.00    +0.000 OA
ATOM     24  C   UNL     1       6.396   3.902  13.478  0.00  0.00    +0.000 C 
ENDBRANCH  20  23
ENDBRANCH  14  17
ENDBRANCH   1  13
BRANCH   1  25
ATOM     25  C   UNL     1       1.796   4.248  21.018  0.00  0.00    +0.000 C 
ATOM     26  O   UNL     1       2.564   3.820  21.871  0.00  0.00    +0.000 OA
BRANCH  25  27
ATOM     27  O   UNL     1       0.789   3.555  20.435  0.00  0.00    +0.000 OA
BRANCH  27  28
ATOM     28  C   UNL     1       1.193   2.321  19.844  0.00  0.00    +0.000 C 
BRANCH  28  29
ATOM     29  C   UNL     1       1.057   2.325  18.329  0.00  0.00    +0.000 C 
BRANCH  29  31
ATOM     30  C   UNL     1       3.465   1.559  18.565  0.00  0.00    +0.000 C 
ATOM     31  C   UNL     1       2.453   2.292  17.705  0.00  0.00    +0.000 C 
ENDBRANCH  29  31
ENDBRANCH  28  29
ENDBRANCH  27  28
ENDBRANCH  25  27
ENDBRANCH   1  25
TORSDOF 9
ENDMDL
MODEL 5
REMARK VINA RESULT:      -7.7      3.550      6.563
REMARK  Name = 
REMARK  12 active torsions:
REMARK  status: ('A' for Active; 'I' for Inactive)
REMARK    1  A    between atoms: C_1  and  C_2
REMARK    2  A    between atoms: C_2  and  C_3
REMARK    3  A    between atoms: C_3  and  C_4
REMARK    4  A    between atoms: C_4  and  O_5
REMARK    5  A    between atoms: O_5  and  C_6
REMARK    6  A    between atoms: C_6  and  C_8
REMARK    7  A    between atoms: C_8  and  N_20
REMARK    8  A    between atoms: C_9  and  C_10
REMARK    9  A    between atoms: N_12  and  C_13
REMARK   10  A    between atoms: C_21  and  C_23
REMARK   11  A    between atoms: C_26  and  O_27
REMARK   12  A    between atoms: O_27  and  C_28
REMARK                            x       y       z     vdW  Elec       q    Type
REMARK                         _______ _______ _______ _____ _____    ______ ____
ROOT
ATOM      1  C   UNL     1       6.451   6.107  16.858  0.00  0.00    +0.000 C 
ATOM      2  C   UNL     1       5.213   5.681  17.191  0.00  0.00    +0.000 C 
ENDROOT
BRANCH   2   3
ATOM      3  C   UNL     1       4.134   6.446  17.733  0.00  0.00    +0.000 A 
ATOM      4  C   UNL     1       3.660   7.634  17.221  0.00  0.00    +0.000 A 
ATOM      5  N   UNL     1       2.725   8.119  18.091  0.00  0.00    +0.000 N 
ATOM      6  C   UNL     1       2.169   9.451  18.026  0.00  0.00    +0.000 C 
ATOM      7  C   UNL     1       2.455   7.189  19.073  0.00  0.00    +0.000 A 
ATOM      8  C   UNL     1       1.556   7.222  20.151  0.00  0.00    +0.000 A 
ATOM      9  C   UNL     1       1.518   6.122  21.010  0.00  0.00    +0.000 A 
ATOM     10  C   UNL     1       2.340   5.019  20.797  0.00  0.00    +0.000 A 
ATOM     11  C   UNL     1       3.239   4.999  19.725  0.00  0.00    +0.000 A 
ATOM     12  C   UNL     1       3.313   6.105  18.852  0.00  0.00    +0.000 A 
ENDBRANCH   2   3
BRANCH   1  13
ATOM     13  N   UNL     1       6.927   7.397  17.073  0.00  0.00    +0.000 N 
ATOM     14  C   UNL     1       7.821   7.643  18.105  0.00  0.00    +0.000 C 
ATOM     15  O   UNL     1       8.246   6.767  18.854  0.00  0.00    +0.000 OA
ATOM     16  H   UNL     1       7.144   7.894  16.213  0.00  0.00    +0.000 HD
BRANCH  14  17
ATOM     17  C   UNL     1       8.311   9.047  18.282  0.00  0.00    +0.000 A 
ATOM     18  C   UNL     1       7.790  10.015  17.411  0.00  0.00    +0.000 A 
ATOM     19  C   UNL     1       8.198  11.348  17.495  0.00  0.00    +0.000 A 
ATOM     20  C   UNL     1       9.110  11.744  18.469  0.00  0.00    +0.000 A 
ATOM     21  C   UNL     1       9.648  10.789  19.336  0.00  0.00    +0.000 A 
ATOM     22  C   UNL     1       9.254   9.446  19.238  0.00  0.00    +0.000 A 
BRANCH  20  23
ATOM     23  O   UNL     1       9.433  13.072  18.457  0.00  0.00    +0.000 OA
ATOM     24  C   UNL     1       8.361  13.964  18.171  0.00  0.00    +0.000 C 
ENDBRANCH  20  23
ENDBRANCH  14  17
ENDBRANCH   1  13
BRANCH   1  25
ATOM     25  C   UNL     1       7.368   5.217  16.080  0.00  0.00    +0.000 C 
ATOM     26  O   UNL     1       7.958   4.279  16.603  0.00  0.00    +0.000 OA
BRANCH  25  27
ATOM     27  O   UNL     1       7.522   5.641  14.803  0.00  0.00    +0.000 OA
BRANCH  27  28
ATOM     28  C   UNL     1       7.204   4.660  13.817  0.00  0.00    +0.000 C 
BRANCH  28  29
ATOM     29  C   UNL     1       5.756   4.202  13.894  0.00  0.00    +0.000 C 
BRANCH  29  31
ATOM     30  C   UNL     1       6.639   3.124  11.773  0.00  0.00    +0.000 C 
ATOM     31  C   UNL     1       5.424   3.392  12.640  0.00  0.00    +0.000 C 
ENDBRANCH  29  31
ENDBRANCH  28  29
ENDBRANCH  27  28
ENDBRANCH  25  27
ENDBRANCH   1  25
TORSDOF 9
ENDMDL
MODEL 6
REMARK VINA RESULT:      -7.7      3.371      6.536
REMARK  Name = 
REMARK  12 active torsions:
REMARK  status: ('A' for Active; 'I' for Inactive)
REMARK    1  A    between atoms: C_1  and  C_2
REMARK    2  A    between atoms: C_2  and  C_3
REMARK    3  A    between atoms: C_3  and  C_4
REMARK    4  A    between atoms: C_4  and  O_5
REMARK    5  A    between atoms: O_5  and  C_6
REMARK    6  A    between atoms: C_6  and  C_8
REMARK    7  A    between atoms: C_8  and  N_20
REMARK    8  A    between atoms: C_9  and  C_10
REMARK    9  A    between atoms: N_12  and  C_13
REMARK   10  A    between atoms: C_21  and  C_23
REMARK   11  A    between atoms: C_26  and  O_27
REMARK   12  A    between atoms: O_27  and  C_28
REMARK                            x       y       z     vdW  Elec       q    Type
REMARK                         _______ _______ _______ _____ _____    ______ ____
ROOT
ATOM      1  C   UNL     1       6.133   5.647  16.245  0.00  0.00    +0.000 C 
ATOM      2  C   UNL     1       4.979   5.108  16.694  0.00  0.00    +0.000 C 
ENDROOT
BRANCH   2   3
ATOM      3  C   UNL     1       4.009   5.700  17.562  0.00  0.00    +0.000 A 
ATOM      4  C   UNL     1       3.454   6.951  17.405  0.00  0.00    +0.000 A 
ATOM      5  N   UNL     1       2.682   7.205  18.504  0.00  0.00    +0.000 N 
ATOM      6  C   UNL     1       2.124   8.499  18.821  0.00  0.00    +0.000 C 
ATOM      7  C   UNL     1       2.587   6.079  19.294  0.00  0.00    +0.000 A 
ATOM      8  C   UNL     1       1.887   5.850  20.490  0.00  0.00    +0.000 A 
ATOM      9  C   UNL     1       1.998   4.591  21.086  0.00  0.00    +0.000 A 
ATOM     10  C   UNL     1       2.771   3.591  20.504  0.00  0.00    +0.000 A 
ATOM     11  C   UNL     1       3.472   3.831  19.318  0.00  0.00    +0.000 A 
ATOM     12  C   UNL     1       3.394   5.100  18.703  0.00  0.00    +0.000 A 
ENDBRANCH   2   3
BRANCH   1  13
ATOM     13  N   UNL     1       6.631   6.887  16.634  0.00  0.00    +0.000 N 
ATOM     14  C   UNL     1       7.500   6.978  17.712  0.00  0.00    +0.000 C 
ATOM     15  O   UNL     1       7.884   6.004  18.354  0.00  0.00    +0.000 OA
ATOM     16  H   UNL     1       6.882   7.483  15.850  0.00  0.00    +0.000 HD
BRANCH  14  17
ATOM     17  C   UNL     1       8.015   8.335  18.079  0.00  0.00    +0.000 A 
ATOM     18  C   UNL     1       7.554   9.416  17.312  0.00  0.00    +0.000 A 
ATOM     19  C   UNL     1       7.990  10.717  17.574  0.00  0.00    +0.000 A 
ATOM     20  C   UNL     1       8.868  10.966  18.625  0.00  0.00    +0.000 A 
ATOM     21  C   UNL     1       9.346   9.898  19.390  0.00  0.00    +0.000 A 
ATOM     22  C   UNL     1       8.925   8.589  19.113  0.00  0.00    +0.000 A 
BRANCH  20  23
ATOM     23  O   UNL     1       9.222  12.276  18.789  0.00  0.00    +0.000 OA
ATOM     24  C   UNL     1      10.608  12.517  19.009  0.00  0.00    +0.000 C 
ENDBRANCH  20  23
ENDBRANCH  14  17
ENDBRANCH   1  13
BRANCH   1  25
ATOM     25  C   UNL     1       6.901   4.972  15.152  0.00  0.00    +0.000 C 
ATOM     26  O   UNL     1       7.897   5.482  14.652  0.00  0.00    +0.000 OA
BRANCH  25  27
ATOM     27  O   UNL     1       6.306   3.826  14.747  0.00  0.00    +0.000 OA
BRANCH  27  28
ATOM     28  C   UNL     1       5.588   3.940  13.520  0.00  0.00    +0.000 C 
BRANCH  28  29
ATOM     29  C   UNL     1       6.335   3.326  12.346  0.00  0.00    +0.000 C 
BRANCH  29  31
ATOM     30  C   UNL     1       4.041   3.194  11.268  0.00  0.00    +0.000 C 
ATOM     31  C   UNL     1       5.358   2.486  11.521  0.00  0.00    +0.000 C 
ENDBRANCH  29  31
ENDBRANCH  28  29
ENDBRANCH  27  28
ENDBRANCH  25  27
ENDBRANCH   1  25
TORSDOF 9
ENDMDL
MODEL 7
REMARK VINA RESULT:      -7.7      3.705      7.998
REMARK  Name = 
REMARK  12 active torsions:
REMARK  status: ('A' for Active; 'I' for Inactive)
REMARK    1  A    between atoms: C_1  and  C_2
REMARK    2  A    between atoms: C_2  and  C_3
REMARK    3  A    between atoms: C_3  and  C_4
REMARK    4  A    between atoms: C_4  and  O_5
REMARK    5  A    between atoms: O_5  and  C_6
REMARK    6  A    between atoms: C_6  and  C_8
REMARK    7  A    between atoms: C_8  and  N_20
REMARK    8  A    between atoms: C_9  and  C_10
REMARK    9  A    between atoms: N_12  and  C_13
REMARK   10  A    between atoms: C_21  and  C_23
REMARK   11  A    between atoms: C_26  and  O_27
REMARK   12  A    between atoms: O_27  and  C_28
REMARK                            x       y       z     vdW  Elec       q    Type
REMARK                         _______ _______ _______ _____ _____    ______ ____
ROOT
ATOM      1  C   UNL     1       6.477   6.154  17.963  0.00  0.00    +0.000 C 
ATOM      2  C   UNL     1       5.866   5.691  19.075  0.00  0.00    +0.000 C 
ENDROOT
BRANCH   2   3
ATOM      3  C   UNL     1       4.874   4.666  19.175  0.00  0.00    +0.000 A 
ATOM      4  C   UNL     1       5.057   3.343  18.838  0.00  0.00    +0.000 A 
ATOM      5  N   UNL     1       3.847   2.716  18.941  0.00  0.00    +0.000 N 
ATOM      6  C   UNL     1       3.579   1.384  18.451  0.00  0.00    +0.000 C 
ATOM      7  C   UNL     1       2.915   3.562  19.502  0.00  0.00    +0.000 A 
ATOM      8  C   UNL     1       1.565   3.358  19.830  0.00  0.00    +0.000 A 
ATOM      9  C   UNL     1       0.851   4.428  20.375  0.00  0.00    +0.000 A 
ATOM     10  C   UNL     1       1.464   5.657  20.598  0.00  0.00    +0.000 A 
ATOM     11  C   UNL     1       2.807   5.854  20.260  0.00  0.00    +0.000 A 
ATOM     12  C   UNL     1       3.548   4.797  19.689  0.00  0.00    +0.000 A 
ENDBRANCH   2   3
BRANCH   1  13
ATOM     13  N   UNL     1       6.172   5.749  16.668  0.00  0.00    +0.000 N 
ATOM     14  C   UNL     1       6.973   4.815  16.026  0.00  0.00    +0.000 C 
ATOM     15  O   UNL     1       7.953   4.293  16.551  0.00  0.00    +0.000 OA
ATOM     16  H   UNL     1       5.176   5.614  16.512  0.00  0.00    +0.000 HD
BRANCH  14  17
ATOM     17  C   UNL     1       6.591   4.405  14.638  0.00  0.00    +0.000 A 
ATOM     18  C   UNL     1       5.321   3.831  14.473  0.00  0.00    +0.000 A 
ATOM     19  C   UNL     1       4.884   3.409  13.216  0.00  0.00    +0.000 A 
ATOM     20  C   UNL     1       5.693   3.580  12.096  0.00  0.00    +0.000 A 
ATOM     21  C   UNL     1       6.965   4.139  12.246  0.00  0.00    +0.000 A 
ATOM     22  C   UNL     1       7.413   4.544  13.512  0.00  0.00    +0.000 A 
BRANCH  20  23
ATOM     23  O   UNL     1       5.160   3.133  10.920  0.00  0.00    +0.000 OA
ATOM     24  C   UNL     1       3.742   3.208  10.818  0.00  0.00    +0.000 C 
ENDBRANCH  20  23
ENDBRANCH  14  17
ENDBRANCH   1  13
BRANCH   1  25
ATOM     25  C   UNL     1       7.662   7.060  18.079  0.00  0.00    +0.000 C 
ATOM     26  O   UNL     1       8.517   6.900  18.942  0.00  0.00    +0.000 OA
BRANCH  25  27
ATOM     27  O   UNL     1       7.600   8.090  17.203  0.00  0.00    +0.000 OA
BRANCH  27  28
ATOM     28  C   UNL     1       7.566   9.378  17.815  0.00  0.00    +0.000 C 
BRANCH  28  29
ATOM     29  C   UNL     1       8.939  10.029  17.884  0.00  0.00    +0.000 C 
BRANCH  29  31
ATOM     30  C   UNL     1      10.340  11.363  19.527  0.00  0.00    +0.000 C 
ATOM     31  C   UNL     1       9.299  10.274  19.350  0.00  0.00    +0.000 C 
ENDBRANCH  29  31
ENDBRANCH  28  29
ENDBRANCH  27  28
ENDBRANCH  25  27
ENDBRANCH   1  25
TORSDOF 9
ENDMDL
MODEL 8
REMARK VINA RESULT:      -7.7      3.600      6.665
REMARK  Name = 
REMARK  12 active torsions:
REMARK  status: ('A' for Active; 'I' for Inactive)
REMARK    1  A    between atoms: C_1  and  C_2
REMARK    2  A    between atoms: C_2  and  C_3
REMARK    3  A    between atoms: C_3  and  C_4
REMARK    4  A    between atoms: C_4  and  O_5
REMARK    5  A    between atoms: O_5  and  C_6
REMARK    6  A    between atoms: C_6  and  C_8
REMARK    7  A    between atoms: C_8  and  N_20
REMARK    8  A    between atoms: C_9  and  C_10
REMARK    9  A    between atoms: N_12  and  C_13
REMARK   10  A    between atoms: C_21  and  C_23
REMARK   11  A    between atoms: C_26  and  O_27
REMARK   12  A    between atoms: O_27  and  C_28
REMARK                            x       y       z     vdW  Elec       q    Type
REMARK                         _______ _______ _______ _____ _____    ______ ____
ROOT
ATOM      1  C   UNL     1       6.435   6.137  16.928  0.00  0.00    +0.000 C 
ATOM      2  C   UNL     1       5.211   5.701  17.295  0.00  0.00    +0.000 C 
ENDROOT
BRANCH   2   3
ATOM      3  C   UNL     1       4.124   6.465  17.822  0.00  0.00    +0.000 A 
ATOM      4  C   UNL     1       3.656   7.652  17.302  0.00  0.00    +0.000 A 
ATOM      5  N   UNL     1       2.708   8.137  18.159  0.00  0.00    +0.000 N 
ATOM      6  C   UNL     1       2.152   9.468  18.085  0.00  0.00    +0.000 C 
ATOM      7  C   UNL     1       2.426   7.208  19.138  0.00  0.00    +0.000 A 
ATOM      8  C   UNL     1       1.513   7.242  20.204  0.00  0.00    +0.000 A 
ATOM      9  C   UNL     1       1.465   6.142  21.064  0.00  0.00    +0.000 A 
ATOM     10  C   UNL     1       2.290   5.039  20.862  0.00  0.00    +0.000 A 
ATOM     11  C   UNL     1       3.203   5.019  19.803  0.00  0.00    +0.000 A 
ATOM     12  C   UNL     1       3.288   6.125  18.929  0.00  0.00    +0.000 A 
ENDBRANCH   2   3
BRANCH   1  13
ATOM     13  N   UNL     1       6.888   7.443  17.085  0.00  0.00    +0.000 N 
ATOM     14  C   UNL     1       7.807   7.744  18.082  0.00  0.00    +0.000 C 
ATOM     15  O   UNL     1       8.273   6.902  18.845  0.00  0.00    +0.000 OA
ATOM     16  H   UNL     1       7.068   7.916  16.203  0.00  0.00    +0.000 HD
BRANCH  14  17
ATOM     17  C   UNL     1       8.270   9.163  18.197  0.00  0.00    +0.000 A 
ATOM     18  C   UNL     1       9.172   9.453  19.232  0.00  0.00    +0.000 A 
ATOM     19  C   UNL     1       9.650  10.752  19.422  0.00  0.00    +0.000 A 
ATOM     20  C   UNL     1       9.259  11.777  18.565  0.00  0.00    +0.000 A 
ATOM     21  C   UNL     1       8.351  11.506  17.538  0.00  0.00    +0.000 A 
ATOM     22  C   UNL     1       7.855  10.206  17.359  0.00  0.00    +0.000 A 
BRANCH  20  23
ATOM     23  O   UNL     1       9.792  13.004  18.846  0.00  0.00    +0.000 OA
ATOM     24  C   UNL     1      10.785  13.467  17.938  0.00  0.00    +0.000 C 
ENDBRANCH  20  23
ENDBRANCH  14  17
ENDBRANCH   1  13
BRANCH   1  25
ATOM     25  C   UNL     1       7.359   5.235  16.172  0.00  0.00    +0.000 C 
ATOM     26  O   UNL     1       8.007   4.357  16.731  0.00  0.00    +0.000 OA
BRANCH  25  27
ATOM     27  O   UNL     1       7.449   5.581  14.866  0.00  0.00    +0.000 OA
BRANCH  27  28
ATOM     28  C   UNL     1       7.202   4.510  13.958  0.00  0.00    +0.000 C 
BRANCH  28  29
ATOM     29  C   UNL     1       5.718   4.263  13.735  0.00  0.00    +0.000 C 
BRANCH  29  31
ATOM     30  C   UNL     1       6.745   3.205  11.669  0.00  0.00    +0.000 C 
ATOM     31  C   UNL     1       5.548   3.253  12.599  0.00  0.00    +0.000 C 
ENDBRANCH  29  31
ENDBRANCH  28  29
ENDBRANCH  27  28
ENDBRANCH  25  27
ENDBRANCH   1  25
TORSDOF 9
ENDMDL
MODEL 9
REMARK VINA RESULT:      -7.5      3.425      6.496
REMARK  Name = 
REMARK  12 active torsions:
REMARK  status: ('A' for Active; 'I' for Inactive)
REMARK    1  A    between atoms: C_1  and  C_2
REMARK    2  A    between atoms: C_2  and  C_3
REMARK    3  A    between atoms: C_3  and  C_4
REMARK    4  A    between atoms: C_4  and  O_5
REMARK    5  A    between atoms: O_5  and  C_6
REMARK    6  A    between atoms: C_6  and  C_8
REMARK    7  A    between atoms: C_8  and  N_20
REMARK    8  A    between atoms: C_9  and  C_10
REMARK    9  A    between atoms: N_12  and  C_13
REMARK   10  A    between atoms: C_21  and  C_23
REMARK   11  A    between atoms: C_26  and  O_27
REMARK   12  A    between atoms: O_27  and  C_28
REMARK                            x       y       z     vdW  Elec       q    Type
REMARK                         _______ _______ _______ _____ _____    ______ ____
ROOT
ATOM      1  C   UNL     1       5.835   5.660  16.111  0.00  0.00    +0.000 C 
ATOM      2  C   UNL     1       4.725   5.088  16.623  0.00  0.00    +0.000 C 
ENDROOT
BRANCH   2   3
ATOM      3  C   UNL     1       3.813   5.633  17.579  0.00  0.00    +0.000 A 
ATOM      4  C   UNL     1       3.259   6.894  17.527  0.00  0.00    +0.000 A 
ATOM      5  N   UNL     1       2.556   7.088  18.683  0.00  0.00    +0.000 N 
ATOM      6  C   UNL     1       2.027   8.364  19.105  0.00  0.00    +0.000 C 
ATOM      7  C   UNL     1       2.498   5.919  19.411  0.00  0.00    +0.000 A 
ATOM      8  C   UNL     1       1.868   5.625  20.631  0.00  0.00    +0.000 A 
ATOM      9  C   UNL     1       2.005   4.334  21.147  0.00  0.00    +0.000 A 
ATOM     10  C   UNL     1       2.734   3.365  20.465  0.00  0.00    +0.000 A 
ATOM     11  C   UNL     1       3.365   3.669  19.255  0.00  0.00    +0.000 A 
ATOM     12  C   UNL     1       3.261   4.971  18.719  0.00  0.00    +0.000 A 
ENDBRANCH   2   3
BRANCH   1  13
ATOM     13  N   UNL     1       6.342   6.895  16.506  0.00  0.00    +0.000 N 
ATOM     14  C   UNL     1       7.311   6.961  17.498  0.00  0.00    +0.000 C 
ATOM     15  O   UNL     1       7.777   5.970  18.053  0.00  0.00    +0.000 OA
ATOM     16  H   UNL     1       6.503   7.531  15.729  0.00  0.00    +0.000 HD
BRANCH  14  17
ATOM     17  C   UNL     1       7.830   8.314  17.874  0.00  0.00    +0.000 A 
ATOM     18  C   UNL     1       8.750   8.368  18.932  0.00  0.00    +0.000 A 
ATOM     19  C   UNL     1       9.279   9.589  19.359  0.00  0.00    +0.000 A 
ATOM     20  C   UNL     1       8.923  10.772  18.717  0.00  0.00    +0.000 A 
ATOM     21  C   UNL     1       7.999  10.736  17.670  0.00  0.00    +0.000 A 
ATOM     22  C   UNL     1       7.452   9.513  17.255  0.00  0.00    +0.000 A 
BRANCH  20  23
ATOM     23  O   UNL     1       9.506  11.902  19.219  0.00  0.00    +0.000 OA
ATOM     24  C   UNL     1       9.014  13.132  18.699  0.00  0.00    +0.000 C 
ENDBRANCH  20  23
ENDBRANCH  14  17
ENDBRANCH   1  13
BRANCH   1  25
ATOM     25  C   UNL     1       6.531   5.037  14.942  0.00  0.00    +0.000 C 
ATOM     26  O   UNL     1       7.641   5.407  14.577  0.00  0.00    +0.000 OA
BRANCH  25  27
ATOM     27  O   UNL     1       5.751   4.124  14.316  0.00  0.00    +0.000 OA
BRANCH  27  28
ATOM     28  C   UNL     1       6.331   3.567  13.138  0.00  0.00    +0.000 C 
BRANCH  28  29
ATOM     29  C   UNL     1       5.298   3.273  12.060  0.00  0.00    +0.000 C 
BRANCH  29  31
ATOM     30  C   UNL     1       7.124   1.778  11.129  0.00  0.00    +0.000 C 
ATOM     31  C   UNL     1       5.640   1.940  11.394  0.00  0.00    +0.000 C 
ENDBRANCH  29  31
ENDBRANCH  28  29
ENDBRANCH  27  28
ENDBRANCH  25  27
ENDBRANCH   1  25
TORSDOF 9
ENDMDL
