MODEL 1
REMARK VINA RESULT:      -9.8      0.000      0.000
REMARK  Name = 
REMARK  8 active torsions:
REMARK  status: ('A' for Active; 'I' for Inactive)
REMARK    1  A    between atoms: C_2  and  C_3
REMARK    2  A    between atoms: C_6  and  C_7
REMARK    3  A    between atoms: N_10  and  C_11
REMARK    4  A    between atoms: C_11  and  C_12
REMARK    5  A    between atoms: C_25  and  C_26
REMARK    6  A    between atoms: C_25  and  O_27
REMARK    7  A    between atoms: O_27  and  C_28
REMARK    8  A    between atoms: C_28  and  C_30
REMARK                            x       y       z     vdW  Elec       q    Type
REMARK                         _______ _______ _______ _____ _____    ______ ____
ROOT
ATOM      1  C   UNL     1       2.896   4.973  20.017  0.00  0.00    +0.000 C 
ATOM      2  C   UNL     1       2.515   6.218  19.644  0.00  0.00    +0.000 C 
ATOM      3  C   UNL     1       1.516   6.972  20.412  0.00  0.00    +0.000 C 
ATOM      4  C   UNL     1       1.247   8.272  20.155  0.00  0.00    +0.000 C 
ATOM      5  N   UNL     1       1.860   8.917  19.044  0.00  0.00    +0.000 N 
ATOM      6  C   UNL     1       2.708   8.156  18.213  0.00  0.00    +0.000 C 
ATOM      7  C   UNL     1       3.045   6.872  18.447  0.00  0.00    +0.000 C 
ATOM      8  C   UNL     1       4.013   6.187  17.550  0.00  0.00    +0.000 C 
ATOM      9  O   UNL     1       4.275   6.630  16.432  0.00  0.00    +0.000 OA
ATOM     10  C   UNL     1       4.737   4.985  18.149  0.00  0.00    +0.000 C 
ATOM     11  C   UNL     1       5.956   5.540  18.906  0.00  0.00    +0.000 C 
ATOM     12  C   UNL     1       3.882   4.214  19.163  0.00  0.00    +0.000 C 
ATOM     13  O   UNL     1       4.035   3.003  19.342  0.00  0.00    +0.000 OA
ENDROOT
BRANCH   4  14
ATOM     14  C   UNL     1       0.287   9.033  20.993  0.00  0.00    +0.000 C 
ATOM     15  C   UNL     1      -0.186   8.482  22.322  0.00  0.00    +0.000 C 
ATOM     16  C   UNL     1       0.766   9.634  22.293  0.00  0.00    +0.000 C 
ENDBRANCH   4  14
BRANCH   1  18
ATOM     17  C   UNL     1       1.403   3.385  21.215  0.00  0.00    +0.000 C 
ATOM     18  C   UNL     1       2.407   4.270  21.201  0.00  0.00    +0.000 C 
ENDBRANCH   1  18
BRANCH   5  19
ATOM     19  C   UNL     1       1.662  10.356  18.740  0.00  0.00    +0.000 C 
BRANCH  19  20
ATOM     20  C   UNL     1       0.211  10.793  18.607  0.00  0.00    +0.000 A 
ATOM     21  C   UNL     1      -0.317  11.932  19.255  0.00  0.00    +0.000 A 
ATOM     22  C   UNL     1      -1.681  12.248  19.178  0.00  0.00    +0.000 A 
ATOM     23  C   UNL     1      -2.494  11.414  18.445  0.00  0.00    +0.000 A 
ATOM     24  C   UNL     1      -1.991  10.329  17.770  0.00  0.00    +0.000 A 
ATOM     25  C   UNL     1      -0.650  10.004  17.814  0.00  0.00    +0.000 A 
ATOM     26  O   UNL     1      -2.958   9.635  17.110  0.00  0.00    +0.000 OA
ATOM     27  C   UNL     1      -4.138  10.346  17.541  0.00  0.00    +0.000 C 
ATOM     28  O   UNL     1      -3.842  11.532  18.307  0.00  0.00    +0.000 OA
ENDBRANCH  19  20
ENDBRANCH   5  19
BRANCH  10  29
ATOM     29  O   UNL     1       5.292   4.115  17.153  0.00  0.00    +0.000 OA
BRANCH  29  30
ATOM     30  C   UNL     1       6.587   4.366  16.808  0.00  0.00    +0.000 C 
ATOM     31  O   UNL     1       7.497   4.505  17.620  0.00  0.00    +0.000 OA
BRANCH  30  32
ATOM     32  C   UNL     1       6.723   4.451  15.372  0.00  0.00    +0.000 A 
ATOM     33  C   UNL     1       5.995   3.848  14.361  0.00  0.00    +0.000 A 
ATOM     34  C   UNL     1       6.548   4.288  13.135  0.00  0.00    +0.000 A 
ATOM     35  C   UNL     1       7.587   5.124  13.465  0.00  0.00    +0.000 A 
ATOM     36  O   UNL     1       7.704   5.229  14.814  0.00  0.00    +0.000 OA
ENDBRANCH  30  32
ENDBRANCH  29  30
ENDBRANCH  10  29
TORSDOF 7
ENDMDL
MODEL 2
REMARK VINA RESULT:      -9.5      0.679      1.282
REMARK  Name = 
REMARK  8 active torsions:
REMARK  status: ('A' for Active; 'I' for Inactive)
REMARK    1  A    between atoms: C_2  and  C_3
REMARK    2  A    between atoms: C_6  and  C_7
REMARK    3  A    between atoms: N_10  and  C_11
REMARK    4  A    between atoms: C_11  and  C_12
REMARK    5  A    between atoms: C_25  and  C_26
REMARK    6  A    between atoms: C_25  and  O_27
REMARK    7  A    between atoms: O_27  and  C_28
REMARK    8  A    between atoms: C_28  and  C_30
REMARK                            x       y       z     vdW  Elec       q    Type
REMARK                         _______ _______ _______ _____ _____    ______ ____
ROOT
ATOM      1  C   UNL     1       3.263   4.956  19.981  0.00  0.00    +0.000 C 
ATOM      2  C   UNL     1       2.775   6.148  19.566  0.00  0.00    +0.000 C 
ATOM      3  C   UNL     1       1.756   6.868  20.341  0.00  0.00    +0.000 C 
ATOM      4  C   UNL     1       1.382   8.130  20.034  0.00  0.00    +0.000 C 
ATOM      5  N   UNL     1       1.898   8.759  18.865  0.00  0.00    +0.000 N 
ATOM      6  C   UNL     1       2.765   8.018  18.035  0.00  0.00    +0.000 C 
ATOM      7  C   UNL     1       3.205   6.776  18.315  0.00  0.00    +0.000 C 
ATOM      8  C   UNL     1       4.182   6.116  17.410  0.00  0.00    +0.000 C 
ATOM      9  O   UNL     1       4.363   6.519  16.260  0.00  0.00    +0.000 OA
ATOM     10  C   UNL     1       5.017   5.002  18.032  0.00  0.00    +0.000 C 
ATOM     11  C   UNL     1       6.223   5.681  18.705  0.00  0.00    +0.000 C 
ATOM     12  C   UNL     1       4.265   4.225  19.120  0.00  0.00    +0.000 C 
ATOM     13  O   UNL     1       4.514   3.039  19.352  0.00  0.00    +0.000 OA
ENDROOT
BRANCH   4  14
ATOM     14  C   UNL     1       0.405   8.864  20.876  0.00  0.00    +0.000 C 
ATOM     15  C   UNL     1      -0.340   8.157  21.990  0.00  0.00    +0.000 C 
ATOM     16  C   UNL     1       0.742   9.133  22.324  0.00  0.00    +0.000 C 
ENDBRANCH   4  14
BRANCH   1  18
ATOM     17  C   UNL     1       1.868   3.410  21.343  0.00  0.00    +0.000 C 
ATOM     18  C   UNL     1       2.877   4.281  21.218  0.00  0.00    +0.000 C 
ENDBRANCH   1  18
BRANCH   5  19
ATOM     19  C   UNL     1       1.582  10.162  18.501  0.00  0.00    +0.000 C 
BRANCH  19  20
ATOM     20  C   UNL     1       0.105  10.522  18.543  0.00  0.00    +0.000 A 
ATOM     21  C   UNL     1      -0.847   9.995  17.641  0.00  0.00    +0.000 A 
ATOM     22  C   UNL     1      -2.182  10.422  17.659  0.00  0.00    +0.000 A 
ATOM     23  C   UNL     1      -2.542  11.370  18.588  0.00  0.00    +0.000 A 
ATOM     24  C   UNL     1      -1.643  11.859  19.503  0.00  0.00    +0.000 A 
ATOM     25  C   UNL     1      -0.326  11.444  19.520  0.00  0.00    +0.000 A 
ATOM     26  O   UNL     1      -2.197  12.787  20.330  0.00  0.00    +0.000 OA
ATOM     27  C   UNL     1      -3.516  12.905  19.755  0.00  0.00    +0.000 C 
ATOM     28  O   UNL     1      -3.772  11.939  18.714  0.00  0.00    +0.000 OA
ENDBRANCH  19  20
ENDBRANCH   5  19
BRANCH  10  29
ATOM     29  O   UNL     1       5.592   4.123  17.055  0.00  0.00    +0.000 OA
BRANCH  29  30
ATOM     30  C   UNL     1       6.852   4.445  16.643  0.00  0.00    +0.000 C 
ATOM     31  O   UNL     1       7.790   4.650  17.408  0.00  0.00    +0.000 OA
BRANCH  30  32
ATOM     32  C   UNL     1       6.912   4.515  15.202  0.00  0.00    +0.000 A 
ATOM     33  C   UNL     1       6.173   3.854  14.236  0.00  0.00    +0.000 A 
ATOM     34  C   UNL     1       6.638   4.307  12.978  0.00  0.00    +0.000 A 
ATOM     35  C   UNL     1       7.640   5.208  13.246  0.00  0.00    +0.000 A 
ATOM     36  O   UNL     1       7.816   5.342  14.586  0.00  0.00    +0.000 OA
ENDBRANCH  30  32
ENDBRANCH  29  30
ENDBRANCH  10  29
TORSDOF 7
ENDMDL
MODEL 3
REMARK VINA RESULT:      -9.2      0.753      1.052
REMARK  Name = 
REMARK  8 active torsions:
REMARK  status: ('A' for Active; 'I' for Inactive)
REMARK    1  A    between atoms: C_2  and  C_3
REMARK    2  A    between atoms: C_6  and  C_7
REMARK    3  A    between atoms: N_10  and  C_11
REMARK    4  A    between atoms: C_11  and  C_12
REMARK    5  A    between atoms: C_25  and  C_26
REMARK    6  A    between atoms: C_25  and  O_27
REMARK    7  A    between atoms: O_27  and  C_28
REMARK    8  A    between atoms: C_28  and  C_30
REMARK                            x       y       z     vdW  Elec       q    Type
REMARK                         _______ _______ _______ _____ _____    ______ ____
ROOT
ATOM      1  C   UNL     1       2.876   5.044  20.162  0.00  0.00    +0.000 C 
ATOM      2  C   UNL     1       2.496   6.284  19.774  0.00  0.00    +0.000 C 
ATOM      3  C   UNL     1       1.427   7.008  20.475  0.00  0.00    +0.000 C 
ATOM      4  C   UNL     1       1.149   8.305  20.212  0.00  0.00    +0.000 C 
ATOM      5  N   UNL     1       1.827   8.975  19.154  0.00  0.00    +0.000 N 
ATOM      6  C   UNL     1       2.750   8.242  18.381  0.00  0.00    +0.000 C 
ATOM      7  C   UNL     1       3.097   6.963  18.626  0.00  0.00    +0.000 C 
ATOM      8  C   UNL     1       4.143   6.309  17.796  0.00  0.00    +0.000 C 
ATOM      9  O   UNL     1       4.475   6.771  16.704  0.00  0.00    +0.000 OA
ATOM     10  C   UNL     1       4.848   5.116  18.434  0.00  0.00    +0.000 C 
ATOM     11  C   UNL     1       5.995   5.688  19.283  0.00  0.00    +0.000 C 
ATOM     12  C   UNL     1       3.938   4.316  19.375  0.00  0.00    +0.000 C 
ATOM     13  O   UNL     1       4.104   3.106  19.553  0.00  0.00    +0.000 OA
ENDROOT
BRANCH   4  14
ATOM     14  C   UNL     1       0.114   9.036  20.984  0.00  0.00    +0.000 C 
ATOM     15  C   UNL     1      -0.447   8.457  22.267  0.00  0.00    +0.000 C 
ATOM     16  C   UNL     1       0.482   9.627  22.325  0.00  0.00    +0.000 C 
ENDBRANCH   4  14
BRANCH   1  18
ATOM     17  C   UNL     1       1.374   3.370  21.226  0.00  0.00    +0.000 C 
ATOM     18  C   UNL     1       2.318   4.317  21.300  0.00  0.00    +0.000 C 
ENDBRANCH   1  18
BRANCH   5  19
ATOM     19  C   UNL     1       1.620  10.413  18.850  0.00  0.00    +0.000 C 
BRANCH  19  20
ATOM     20  C   UNL     1       0.171  10.825  18.637  0.00  0.00    +0.000 A 
ATOM     21  C   UNL     1      -0.421  11.937  19.277  0.00  0.00    +0.000 A 
ATOM     22  C   UNL     1      -1.783  12.227  19.122  0.00  0.00    +0.000 A 
ATOM     23  C   UNL     1      -2.531  11.397  18.320  0.00  0.00    +0.000 A 
ATOM     24  C   UNL     1      -1.964  10.339  17.652  0.00  0.00    +0.000 A 
ATOM     25  C   UNL     1      -0.622  10.040  17.773  0.00  0.00    +0.000 A 
ATOM     26  O   UNL     1      -2.873   9.643  16.916  0.00  0.00    +0.000 OA
ATOM     27  C   UNL     1      -4.093  10.319  17.288  0.00  0.00    +0.000 C 
ATOM     28  O   UNL     1      -3.870  11.492  18.100  0.00  0.00    +0.000 OA
ENDBRANCH  19  20
ENDBRANCH   5  19
BRANCH  10  29
ATOM     29  O   UNL     1       5.492   4.269  17.472  0.00  0.00    +0.000 OA
BRANCH  29  30
ATOM     30  C   UNL     1       4.774   4.008  16.343  0.00  0.00    +0.000 C 
ATOM     31  O   UNL     1       3.593   3.673  16.346  0.00  0.00    +0.000 OA
BRANCH  30  32
ATOM     32  C   UNL     1       5.597   4.172  15.168  0.00  0.00    +0.000 A 
ATOM     33  C   UNL     1       6.811   4.817  15.001  0.00  0.00    +0.000 A 
ATOM     34  C   UNL     1       7.178   4.661  13.642  0.00  0.00    +0.000 A 
ATOM     35  C   UNL     1       6.165   3.943  13.056  0.00  0.00    +0.000 A 
ATOM     36  O   UNL     1       5.203   3.642  13.966  0.00  0.00    +0.000 OA
ENDBRANCH  30  32
ENDBRANCH  29  30
ENDBRANCH  10  29
TORSDOF 7
ENDMDL
MODEL 4
REMARK VINA RESULT:      -8.9      2.349      9.098
REMARK  Name = 
REMARK  8 active torsions:
REMARK  status: ('A' for Active; 'I' for Inactive)
REMARK    1  A    between atoms: C_2  and  C_3
REMARK    2  A    between atoms: C_6  and  C_7
REMARK    3  A    between atoms: N_10  and  C_11
REMARK    4  A    between atoms: C_11  and  C_12
REMARK    5  A    between atoms: C_25  and  C_26
REMARK    6  A    between atoms: C_25  and  O_27
REMARK    7  A    between atoms: O_27  and  C_28
REMARK    8  A    between atoms: C_28  and  C_30
REMARK                            x       y       z     vdW  Elec       q    Type
REMARK                         _______ _______ _______ _____ _____    ______ ____
ROOT
ATOM      1  C   UNL     1       1.007   9.373  21.226  0.00  0.00    +0.000 C 
ATOM      2  C   UNL     1       1.489   8.390  20.430  0.00  0.00    +0.000 C 
ATOM      3  C   UNL     1       1.734   7.038  20.951  0.00  0.00    +0.000 C 
ATOM      4  C   UNL     1       2.053   6.005  20.138  0.00  0.00    +0.000 C 
ATOM      5  N   UNL     1       2.268   6.235  18.750  0.00  0.00    +0.000 N 
ATOM      6  C   UNL     1       2.179   7.558  18.269  0.00  0.00    +0.000 C 
ATOM      7  C   UNL     1       1.823   8.616  19.024  0.00  0.00    +0.000 C 
ATOM      8  C   UNL     1       1.681   9.956  18.396  0.00  0.00    +0.000 C 
ATOM      9  O   UNL     1       2.179  10.205  17.298  0.00  0.00    +0.000 OA
ATOM     10  C   UNL     1       0.791  10.947  19.140  0.00  0.00    +0.000 C 
ATOM     11  C   UNL     1      -0.651  10.670  18.680  0.00  0.00    +0.000 C 
ATOM     12  C   UNL     1       0.828  10.761  20.662  0.00  0.00    +0.000 C 
ATOM     13  O   UNL     1       0.644  11.710  21.429  0.00  0.00    +0.000 OA
ENDROOT
BRANCH   4  14
ATOM     14  C   UNL     1       2.222   4.633  20.678  0.00  0.00    +0.000 C 
ATOM     15  C   UNL     1       1.019   3.752  20.942  0.00  0.00    +0.000 C 
ATOM     16  C   UNL     1       1.919   3.452  19.787  0.00  0.00    +0.000 C 
ENDBRANCH   4  14
BRANCH   1  18
ATOM     17  C   UNL     1      -0.572   9.374  23.149  0.00  0.00    +0.000 C 
ATOM     18  C   UNL     1       0.653   9.209  22.635  0.00  0.00    +0.000 C 
ENDBRANCH   1  18
BRANCH   5  19
ATOM     19  C   UNL     1       2.558   5.141  17.790  0.00  0.00    +0.000 C 
BRANCH  19  20
ATOM     20  C   UNL     1       4.029   4.947  17.457  0.00  0.00    +0.000 A 
ATOM     21  C   UNL     1       4.484   4.454  16.214  0.00  0.00    +0.000 A 
ATOM     22  C   UNL     1       5.844   4.207  15.982  0.00  0.00    +0.000 A 
ATOM     23  C   UNL     1       6.729   4.464  17.003  0.00  0.00    +0.000 A 
ATOM     24  C   UNL     1       6.312   4.988  18.202  0.00  0.00    +0.000 A 
ATOM     25  C   UNL     1       4.981   5.257  18.452  0.00  0.00    +0.000 A 
ATOM     26  O   UNL     1       7.339   5.166  19.076  0.00  0.00    +0.000 OA
ATOM     27  C   UNL     1       8.430   4.589  18.328  0.00  0.00    +0.000 C 
ATOM     28  O   UNL     1       8.069   4.232  16.977  0.00  0.00    +0.000 OA
ENDBRANCH  19  20
ENDBRANCH   5  19
BRANCH  10  29
ATOM     29  O   UNL     1       1.037  12.309  18.765  0.00  0.00    +0.000 OA
BRANCH  29  30
ATOM     30  C   UNL     1      -0.069  13.045  18.461  0.00  0.00    +0.000 C 
ATOM     31  O   UNL     1      -0.901  12.715  17.620  0.00  0.00    +0.000 OA
BRANCH  30  32
ATOM     32  C   UNL     1      -0.111  14.252  19.254  0.00  0.00    +0.000 A 
ATOM     33  C   UNL     1       0.721  15.358  19.256  0.00  0.00    +0.000 A 
ATOM     34  C   UNL     1       0.212  16.256  20.226  0.00  0.00    +0.000 A 
ATOM     35  C   UNL     1      -0.892  15.644  20.767  0.00  0.00    +0.000 A 
ATOM     36  O   UNL     1      -1.098  14.432  20.190  0.00  0.00    +0.000 OA
ENDBRANCH  30  32
ENDBRANCH  29  30
ENDBRANCH  10  29
TORSDOF 7
ENDMDL
MODEL 5
REMARK VINA RESULT:      -8.8      2.105      8.959
REMARK  Name = 
REMARK  8 active torsions:
REMARK  status: ('A' for Active; 'I' for Inactive)
REMARK    1  A    between atoms: C_2  and  C_3
REMARK    2  A    between atoms: C_6  and  C_7
REMARK    3  A    between atoms: N_10  and  C_11
REMARK    4  A    between atoms: C_11  and  C_12
REMARK    5  A    between atoms: C_25  and  C_26
REMARK    6  A    between atoms: C_25  and  O_27
REMARK    7  A    between atoms: O_27  and  C_28
REMARK    8  A    between atoms: C_28  and  C_30
REMARK                            x       y       z     vdW  Elec       q    Type
REMARK                         _______ _______ _______ _____ _____    ______ ____
ROOT
ATOM      1  C   UNL     1       0.978   8.986  21.217  0.00  0.00    +0.000 C 
ATOM      2  C   UNL     1       1.531   8.068  20.389  0.00  0.00    +0.000 C 
ATOM      3  C   UNL     1       1.908   6.734  20.873  0.00  0.00    +0.000 C 
ATOM      4  C   UNL     1       2.303   5.752  20.031  0.00  0.00    +0.000 C 
ATOM      5  N   UNL     1       2.468   6.031  18.644  0.00  0.00    +0.000 N 
ATOM      6  C   UNL     1       2.250   7.350  18.197  0.00  0.00    +0.000 C 
ATOM      7  C   UNL     1       1.814   8.355  18.982  0.00  0.00    +0.000 C 
ATOM      8  C   UNL     1       1.539   9.690  18.389  0.00  0.00    +0.000 C 
ATOM      9  O   UNL     1       1.990  10.007  17.288  0.00  0.00    +0.000 OA
ATOM     10  C   UNL     1       0.577  10.579  19.172  0.00  0.00    +0.000 C 
ATOM     11  C   UNL     1      -0.842  10.182  18.732  0.00  0.00    +0.000 C 
ATOM     12  C   UNL     1       0.662  10.364  20.688  0.00  0.00    +0.000 C 
ATOM     13  O   UNL     1       0.408  11.276  21.481  0.00  0.00    +0.000 OA
ENDROOT
BRANCH   4  14
ATOM     14  C   UNL     1       2.607   4.390  20.535  0.00  0.00    +0.000 C 
ATOM     15  C   UNL     1       1.745   3.750  21.603  0.00  0.00    +0.000 C 
ATOM     16  C   UNL     1       1.669   3.256  20.194  0.00  0.00    +0.000 C 
ENDBRANCH   4  14
BRANCH   1  18
ATOM     17  C   UNL     1      -0.073   9.567  23.396  0.00  0.00    +0.000 C 
ATOM     18  C   UNL     1       0.669   8.760  22.627  0.00  0.00    +0.000 C 
ENDBRANCH   1  18
BRANCH   5  19
ATOM     19  C   UNL     1       2.837   4.989  17.653  0.00  0.00    +0.000 C 
BRANCH  19  20
ATOM     20  C   UNL     1       4.222   5.139  17.045  0.00  0.00    +0.000 A 
ATOM     21  C   UNL     1       5.218   5.984  17.585  0.00  0.00    +0.000 A 
ATOM     22  C   UNL     1       6.451   6.160  16.942  0.00  0.00    +0.000 A 
ATOM     23  C   UNL     1       6.667   5.479  15.766  0.00  0.00    +0.000 A 
ATOM     24  C   UNL     1       5.731   4.618  15.251  0.00  0.00    +0.000 A 
ATOM     25  C   UNL     1       4.515   4.411  15.872  0.00  0.00    +0.000 A 
ATOM     26  O   UNL     1       6.136   4.048  14.084  0.00  0.00    +0.000 OA
ATOM     27  C   UNL     1       7.387   4.737  13.870  0.00  0.00    +0.000 C 
ATOM     28  O   UNL     1       7.775   5.572  14.981  0.00  0.00    +0.000 OA
ENDBRANCH  19  20
ENDBRANCH   5  19
BRANCH  10  29
ATOM     29  O   UNL     1       0.692  11.966  18.825  0.00  0.00    +0.000 OA
BRANCH  29  30
ATOM     30  C   UNL     1      -0.477  12.589  18.500  0.00  0.00    +0.000 C 
ATOM     31  O   UNL     1      -1.075  12.413  17.443  0.00  0.00    +0.000 OA
BRANCH  30  32
ATOM     32  C   UNL     1      -0.892  13.477  19.562  0.00  0.00    +0.000 A 
ATOM     33  C   UNL     1      -0.298  14.624  20.060  0.00  0.00    +0.000 A 
ATOM     34  C   UNL     1      -1.137  15.107  21.093  0.00  0.00    +0.000 A 
ATOM     35  C   UNL     1      -2.187  14.225  21.174  0.00  0.00    +0.000 A 
ATOM     36  O   UNL     1      -2.050  13.235  20.255  0.00  0.00    +0.000 OA
ENDBRANCH  30  32
ENDBRANCH  29  30
ENDBRANCH  10  29
TORSDOF 7
ENDMDL
MODEL 6
REMARK VINA RESULT:      -8.8      2.646      8.638
REMARK  Name = 
REMARK  8 active torsions:
REMARK  status: ('A' for Active; 'I' for Inactive)
REMARK    1  A    between atoms: C_2  and  C_3
REMARK    2  A    between atoms: C_6  and  C_7
REMARK    3  A    between atoms: N_10  and  C_11
REMARK    4  A    between atoms: C_11  and  C_12
REMARK    5  A    between atoms: C_25  and  C_26
REMARK    6  A    between atoms: C_25  and  O_27
REMARK    7  A    between atoms: O_27  and  C_28
REMARK    8  A    between atoms: C_28  and  C_30
REMARK                            x       y       z     vdW  Elec       q    Type
REMARK                         _______ _______ _______ _____ _____    ______ ____
ROOT
ATOM      1  C   UNL     1       0.875   9.330  21.077  0.00  0.00    +0.000 C 
ATOM      2  C   UNL     1       1.449   8.345  20.346  0.00  0.00    +0.000 C 
ATOM      3  C   UNL     1       1.842   7.070  20.961  0.00  0.00    +0.000 C 
ATOM      4  C   UNL     1       2.259   6.017  20.221  0.00  0.00    +0.000 C 
ATOM      5  N   UNL     1       2.433   6.163  18.815  0.00  0.00    +0.000 N 
ATOM      6  C   UNL     1       2.198   7.428  18.240  0.00  0.00    +0.000 C 
ATOM      7  C   UNL     1       1.740   8.498  18.920  0.00  0.00    +0.000 C 
ATOM      8  C   UNL     1       1.450   9.764  18.198  0.00  0.00    +0.000 C 
ATOM      9  O   UNL     1       1.905   9.980  17.075  0.00  0.00    +0.000 OA
ATOM     10  C   UNL     1       0.468  10.709  18.884  0.00  0.00    +0.000 C 
ATOM     11  C   UNL     1      -0.942  10.249  18.474  0.00  0.00    +0.000 C 
ATOM     12  C   UNL     1       0.543  10.645  20.414  0.00  0.00    +0.000 C 
ATOM     13  O   UNL     1       0.268  11.625  21.113  0.00  0.00    +0.000 OA
ENDROOT
BRANCH   4  14
ATOM     14  C   UNL     1       2.580   4.716  20.858  0.00  0.00    +0.000 C 
ATOM     15  C   UNL     1       1.481   3.730  21.198  0.00  0.00    +0.000 C 
ATOM     16  C   UNL     1       2.406   3.446  20.058  0.00  0.00    +0.000 C 
ENDBRANCH   4  14
BRANCH   1  18
ATOM     17  C   UNL     1      -0.677   9.258  23.020  0.00  0.00    +0.000 C 
ATOM     18  C   UNL     1       0.556   9.237  22.500  0.00  0.00    +0.000 C 
ENDBRANCH   1  18
BRANCH   5  19
ATOM     19  C   UNL     1       2.825   5.036  17.934  0.00  0.00    +0.000 C 
BRANCH  19  20
ATOM     20  C   UNL     1       4.199   5.165  17.295  0.00  0.00    +0.000 A 
ATOM     21  C   UNL     1       5.228   5.975  17.826  0.00  0.00    +0.000 A 
ATOM     22  C   UNL     1       6.449   6.136  17.157  0.00  0.00    +0.000 A 
ATOM     23  C   UNL     1       6.620   5.475  15.963  0.00  0.00    +0.000 A 
ATOM     24  C   UNL     1       5.651   4.646  15.453  0.00  0.00    +0.000 A 
ATOM     25  C   UNL     1       4.446   4.456  16.100  0.00  0.00    +0.000 A 
ATOM     26  O   UNL     1       6.014   4.091  14.265  0.00  0.00    +0.000 OA
ATOM     27  C   UNL     1       7.275   4.755  14.034  0.00  0.00    +0.000 C 
ATOM     28  O   UNL     1       7.710   5.558  15.152  0.00  0.00    +0.000 OA
ENDBRANCH  19  20
ENDBRANCH   5  19
BRANCH  10  29
ATOM     29  O   UNL     1       0.564  12.058  18.404  0.00  0.00    +0.000 OA
BRANCH  29  30
ATOM     30  C   UNL     1       1.655  12.757  18.831  0.00  0.00    +0.000 C 
ATOM     31  O   UNL     1       2.790  12.292  18.876  0.00  0.00    +0.000 OA
BRANCH  30  32
ATOM     32  C   UNL     1       1.280  14.096  19.221  0.00  0.00    +0.000 A 
ATOM     33  C   UNL     1       0.128  14.820  18.964  0.00  0.00    +0.000 A 
ATOM     34  C   UNL     1       0.281  16.078  19.595  0.00  0.00    +0.000 A 
ATOM     35  C   UNL     1       1.519  16.055  20.191  0.00  0.00    +0.000 A 
ATOM     36  O   UNL     1       2.133  14.864  19.971  0.00  0.00    +0.000 OA
ENDBRANCH  30  32
ENDBRANCH  29  30
ENDBRANCH  10  29
TORSDOF 7
ENDMDL
MODEL 7
REMARK VINA RESULT:      -8.7      0.950      1.584
REMARK  Name = 
REMARK  8 active torsions:
REMARK  status: ('A' for Active; 'I' for Inactive)
REMARK    1  A    between atoms: C_2  and  C_3
REMARK    2  A    between atoms: C_6  and  C_7
REMARK    3  A    between atoms: N_10  and  C_11
REMARK    4  A    between atoms: C_11  and  C_12
REMARK    5  A    between atoms: C_25  and  C_26
REMARK    6  A    between atoms: C_25  and  O_27
REMARK    7  A    between atoms: O_27  and  C_28
REMARK    8  A    between atoms: C_28  and  C_30
REMARK                            x       y       z     vdW  Elec       q    Type
REMARK                         _______ _______ _______ _____ _____    ______ ____
ROOT
ATOM      1  C   UNL     1       3.186   5.070  20.076  0.00  0.00    +0.000 C 
ATOM      2  C   UNL     1       2.671   6.257  19.677  0.00  0.00    +0.000 C 
ATOM      3  C   UNL     1       1.577   6.901  20.417  0.00  0.00    +0.000 C 
ATOM      4  C   UNL     1       1.165   8.158  20.135  0.00  0.00    +0.000 C 
ATOM      5  N   UNL     1       1.721   8.854  19.024  0.00  0.00    +0.000 N 
ATOM      6  C   UNL     1       2.667   8.184  18.220  0.00  0.00    +0.000 C 
ATOM      7  C   UNL     1       3.145   6.951  18.479  0.00  0.00    +0.000 C 
ATOM      8  C   UNL     1       4.202   6.371  17.610  0.00  0.00    +0.000 C 
ATOM      9  O   UNL     1       4.431   6.826  16.490  0.00  0.00    +0.000 OA
ATOM     10  C   UNL     1       5.048   5.268  18.240  0.00  0.00    +0.000 C 
ATOM     11  C   UNL     1       6.180   5.970  19.009  0.00  0.00    +0.000 C 
ATOM     12  C   UNL     1       4.268   4.418  19.251  0.00  0.00    +0.000 C 
ATOM     13  O   UNL     1       4.557   3.235  19.452  0.00  0.00    +0.000 OA
ENDROOT
BRANCH   4  14
ATOM     14  C   UNL     1       0.109   8.815  20.944  0.00  0.00    +0.000 C 
ATOM     15  C   UNL     1      -0.368   8.196  22.241  0.00  0.00    +0.000 C 
ATOM     16  C   UNL     1       0.479   9.427  22.274  0.00  0.00    +0.000 C 
ENDBRANCH   4  14
BRANCH   1  18
ATOM     17  C   UNL     1       1.737   3.467  21.310  0.00  0.00    +0.000 C 
ATOM     18  C   UNL     1       2.759   4.331  21.262  0.00  0.00    +0.000 C 
ENDBRANCH   1  18
BRANCH   5  19
ATOM     19  C   UNL     1       1.364  10.256  18.694  0.00  0.00    +0.000 C 
BRANCH  19  20
ATOM     20  C   UNL     1      -0.127  10.531  18.575  0.00  0.00    +0.000 A 
ATOM     21  C   UNL     1      -0.949   9.932  17.593  0.00  0.00    +0.000 A 
ATOM     22  C   UNL     1      -2.300  10.282  17.463  0.00  0.00    +0.000 A 
ATOM     23  C   UNL     1      -2.807  11.226  18.325  0.00  0.00    +0.000 A 
ATOM     24  C   UNL     1      -2.037  11.784  19.315  0.00  0.00    +0.000 A 
ATOM     25  C   UNL     1      -0.708  11.446  19.478  0.00  0.00    +0.000 A 
ATOM     26  O   UNL     1      -2.724  12.696  20.056  0.00  0.00    +0.000 OA
ATOM     27  C   UNL     1      -3.980  12.725  19.345  0.00  0.00    +0.000 C 
ATOM     28  O   UNL     1      -4.072  11.726  18.309  0.00  0.00    +0.000 OA
ENDBRANCH  19  20
ENDBRANCH   5  19
BRANCH  10  29
ATOM     29  O   UNL     1       5.718   4.454  17.267  0.00  0.00    +0.000 OA
BRANCH  29  30
ATOM     30  C   UNL     1       4.954   4.051  16.212  0.00  0.00    +0.000 C 
ATOM     31  O   UNL     1       3.803   3.638  16.319  0.00  0.00    +0.000 OA
BRANCH  30  32
ATOM     32  C   UNL     1       5.691   4.172  14.976  0.00  0.00    +0.000 A 
ATOM     33  C   UNL     1       6.889   4.809  14.699  0.00  0.00    +0.000 A 
ATOM     34  C   UNL     1       7.159   4.603  13.325  0.00  0.00    +0.000 A 
ATOM     35  C   UNL     1       6.108   3.863  12.839  0.00  0.00    +0.000 A 
ATOM     36  O   UNL     1       5.215   3.597  13.825  0.00  0.00    +0.000 OA
ENDBRANCH  30  32
ENDBRANCH  29  30
ENDBRANCH  10  29
TORSDOF 7
ENDMDL
MODEL 8
REMARK VINA RESULT:      -8.6      2.865      8.585
REMARK  Name = 
REMARK  8 active torsions:
REMARK  status: ('A' for Active; 'I' for Inactive)
REMARK    1  A    between atoms: C_2  and  C_3
REMARK    2  A    between atoms: C_6  and  C_7
REMARK    3  A    between atoms: N_10  and  C_11
REMARK    4  A    between atoms: C_11  and  C_12
REMARK    5  A    between atoms: C_25  and  C_26
REMARK    6  A    between atoms: C_25  and  O_27
REMARK    7  A    between atoms: O_27  and  C_28
REMARK    8  A    between atoms: C_28  and  C_30
REMARK                            x       y       z     vdW  Elec       q    Type
REMARK                         _______ _______ _______ _____ _____    ______ ____
ROOT
ATOM      1  C   UNL     1       0.444   9.258  21.142  0.00  0.00    +0.000 C 
ATOM      2  C   UNL     1       1.130   8.393  20.359  0.00  0.00    +0.000 C 
ATOM      3  C   UNL     1       1.358   7.003  20.776  0.00  0.00    +0.000 C 
ATOM      4  C   UNL     1       1.891   6.083  19.941  0.00  0.00    +0.000 C 
ATOM      5  N   UNL     1       2.351   6.477  18.652  0.00  0.00    +0.000 N 
ATOM      6  C   UNL     1       2.269   7.841  18.301  0.00  0.00    +0.000 C 
ATOM      7  C   UNL     1       1.709   8.791  19.075  0.00  0.00    +0.000 C 
ATOM      8  C   UNL     1       1.603  10.186  18.573  0.00  0.00    +0.000 C 
ATOM      9  O   UNL     1       2.282  10.579  17.624  0.00  0.00    +0.000 OA
ATOM     10  C   UNL     1       0.525  11.046  19.226  0.00  0.00    +0.000 C 
ATOM     11  C   UNL     1      -0.782  10.761  18.467  0.00  0.00    +0.000 C 
ATOM     12  C   UNL     1       0.286  10.692  20.699  0.00  0.00    +0.000 C 
ATOM     13  O   UNL     1      -0.101  11.540  21.508  0.00  0.00    +0.000 OA
ENDROOT
BRANCH   4  14
ATOM     14  C   UNL     1       2.044   4.668  20.360  0.00  0.00    +0.000 C 
ATOM     15  C   UNL     1       0.833   3.768  20.500  0.00  0.00    +0.000 C 
ATOM     16  C   UNL     1       1.774   3.573  19.355  0.00  0.00    +0.000 C 
ENDBRANCH   4  14
BRANCH   1  18
ATOM     17  C   UNL     1       0.248   9.380  23.620  0.00  0.00    +0.000 C 
ATOM     18  C   UNL     1      -0.160   8.921  22.430  0.00  0.00    +0.000 C 
ENDBRANCH   1  18
BRANCH   5  19
ATOM     19  C   UNL     1       2.886   5.512  17.660  0.00  0.00    +0.000 C 
BRANCH  19  20
ATOM     20  C   UNL     1       4.394   5.315  17.701  0.00  0.00    +0.000 A 
ATOM     21  C   UNL     1       5.134   4.772  16.627  0.00  0.00    +0.000 A 
ATOM     22  C   UNL     1       6.509   4.524  16.742  0.00  0.00    +0.000 A 
ATOM     23  C   UNL     1       7.122   4.832  17.934  0.00  0.00    +0.000 A 
ATOM     24  C   UNL     1       6.429   5.404  18.973  0.00  0.00    +0.000 A 
ATOM     25  C   UNL     1       5.078   5.675  18.882  0.00  0.00    +0.000 A 
ATOM     26  O   UNL     1       7.215   5.627  20.061  0.00  0.00    +0.000 OA
ATOM     27  C   UNL     1       8.453   5.026  19.624  0.00  0.00    +0.000 C 
ATOM     28  O   UNL     1       8.428   4.609  18.243  0.00  0.00    +0.000 OA
ENDBRANCH  19  20
ENDBRANCH   5  19
BRANCH  10  29
ATOM     29  O   UNL     1       0.750  12.452  19.048  0.00  0.00    +0.000 OA
BRANCH  29  30
ATOM     30  C   UNL     1       1.871  12.948  19.646  0.00  0.00    +0.000 C 
ATOM     31  O   UNL     1       2.322  12.529  20.708  0.00  0.00    +0.000 OA
BRANCH  30  32
ATOM     32  C   UNL     1       2.430  14.025  18.863  0.00  0.00    +0.000 A 
ATOM     33  C   UNL     1       3.594  14.085  18.115  0.00  0.00    +0.000 A 
ATOM     34  C   UNL     1       3.650  15.378  17.542  0.00  0.00    +0.000 A 
ATOM     35  C   UNL     1       2.527  16.037  17.980  0.00  0.00    +0.000 A 
ATOM     36  O   UNL     1       1.783  15.231  18.780  0.00  0.00    +0.000 OA
ENDBRANCH  30  32
ENDBRANCH  29  30
ENDBRANCH  10  29
TORSDOF 7
ENDMDL
MODEL 9
REMARK VINA RESULT:      -8.6      2.648      8.903
REMARK  Name = 
REMARK  8 active torsions:
REMARK  status: ('A' for Active; 'I' for Inactive)
REMARK    1  A    between atoms: C_2  and  C_3
REMARK    2  A    between atoms: C_6  and  C_7
REMARK    3  A    between atoms: N_10  and  C_11
REMARK    4  A    between atoms: C_11  and  C_12
REMARK    5  A    between atoms: C_25  and  C_26
REMARK    6  A    between atoms: C_25  and  O_27
REMARK    7  A    between atoms: O_27  and  C_28
REMARK    8  A    between atoms: C_28  and  C_30
REMARK                            x       y       z     vdW  Elec       q    Type
REMARK                         _______ _______ _______ _____ _____    ______ ____
ROOT
ATOM      1  C   UNL     1       0.356   9.276  20.961  0.00  0.00    +0.000 C 
ATOM      2  C   UNL     1       1.055   8.348  20.264  0.00  0.00    +0.000 C 
ATOM      3  C   UNL     1       1.359   7.031  20.840  0.00  0.00    +0.000 C 
ATOM      4  C   UNL     1       1.905   6.037  20.104  0.00  0.00    +0.000 C 
ATOM      5  N   UNL     1       2.304   6.286  18.760  0.00  0.00    +0.000 N 
ATOM      6  C   UNL     1       2.150   7.591  18.248  0.00  0.00    +0.000 C 
ATOM      7  C   UNL     1       1.573   8.606  18.920  0.00  0.00    +0.000 C 
ATOM      8  C   UNL     1       1.388   9.923  18.254  0.00  0.00    +0.000 C 
ATOM      9  O   UNL     1       2.018  10.221  17.240  0.00  0.00    +0.000 OA
ATOM     10  C   UNL     1       0.295  10.813  18.837  0.00  0.00    +0.000 C 
ATOM     11  C   UNL     1      -1.023  10.383  18.170  0.00  0.00    +0.000 C 
ATOM     12  C   UNL     1       0.120  10.636  20.350  0.00  0.00    +0.000 C 
ATOM     13  O   UNL     1      -0.278  11.561  21.064  0.00  0.00    +0.000 OA
ENDROOT
BRANCH   4  14
ATOM     14  C   UNL     1       2.134   4.692  20.688  0.00  0.00    +0.000 C 
ATOM     15  C   UNL     1       0.987   3.718  20.859  0.00  0.00    +0.000 C 
ATOM     16  C   UNL     1       2.013   3.477  19.799  0.00  0.00    +0.000 C 
ENDBRANCH   4  14
BRANCH   1  18
ATOM     17  C   UNL     1       0.418   9.425  23.443  0.00  0.00    +0.000 C 
ATOM     18  C   UNL     1      -0.189   9.078  22.302  0.00  0.00    +0.000 C 
ENDBRANCH   1  18
BRANCH   5  19
ATOM     19  C   UNL     1       2.850   5.228  17.874  0.00  0.00    +0.000 C 
BRANCH  19  20
ATOM     20  C   UNL     1       4.367   5.129  17.847  0.00  0.00    +0.000 A 
ATOM     21  C   UNL     1       5.092   4.638  16.738  0.00  0.00    +0.000 A 
ATOM     22  C   UNL     1       6.484   4.481  16.789  0.00  0.00    +0.000 A 
ATOM     23  C   UNL     1       7.128   4.825  17.954  0.00  0.00    +0.000 A 
ATOM     24  C   UNL     1       6.448   5.349  19.026  0.00  0.00    +0.000 A 
ATOM     25  C   UNL     1       5.079   5.530  18.997  0.00  0.00    +0.000 A 
ATOM     26  O   UNL     1       7.266   5.620  20.078  0.00  0.00    +0.000 OA
ATOM     27  C   UNL     1       8.519   5.102  19.583  0.00  0.00    +0.000 C 
ATOM     28  O   UNL     1       8.459   4.687  18.202  0.00  0.00    +0.000 OA
ENDBRANCH  19  20
ENDBRANCH   5  19
BRANCH  10  29
ATOM     29  O   UNL     1       0.451  12.194  18.479  0.00  0.00    +0.000 OA
BRANCH  29  30
ATOM     30  C   UNL     1       1.394  12.881  19.184  0.00  0.00    +0.000 C 
ATOM     31  O   UNL     1       2.430  12.379  19.611  0.00  0.00    +0.000 OA
BRANCH  30  32
ATOM     32  C   UNL     1       0.996  14.258  19.358  0.00  0.00    +0.000 A 
ATOM     33  C   UNL     1      -0.214  14.885  19.109  0.00  0.00    +0.000 A 
ATOM     34  C   UNL     1      -0.057  16.244  19.470  0.00  0.00    +0.000 A 
ATOM     35  C   UNL     1       1.239  16.374  19.907  0.00  0.00    +0.000 A 
ATOM     36  O   UNL     1       1.886  15.182  19.843  0.00  0.00    +0.000 OA
ENDBRANCH  30  32
ENDBRANCH  29  30
ENDBRANCH  10  29
TORSDOF 7
ENDMDL
