MODEL 1
REMARK VINA RESULT:      -9.5      0.000      0.000
REMARK  Name = 
REMARK  4 active torsions:
REMARK  status: ('A' for Active; 'I' for Inactive)
REMARK    1  A    between atoms: C_5  and  C_6
REMARK    2  A    between atoms: C_7  and  C_8
REMARK    3  A    between atoms: C_12  and  O_13
REMARK    4  A    between atoms: O_13  and  C_14
REMARK                            x       y       z     vdW  Elec       q    Type
REMARK                         _______ _______ _______ _____ _____    ______ ____
ROOT
ATOM      1  C   UNL     1       3.113   5.670  18.575  0.00  0.00    +0.000 A 
ATOM      2  C   UNL     1       2.908   7.085  18.369  0.00  0.00    +0.000 A 
ATOM      3  N   UNL     1       3.650   7.532  17.333  0.00  0.00    +0.000 NA
ATOM      4  N   UNL     1       4.315   6.458  16.916  0.00  0.00    +0.000 N 
ATOM      5  C   UNL     1       4.044   5.311  17.609  0.00  0.00    +0.000 A 
ATOM      6  O   UNL     1       4.587   4.134  17.270  0.00  0.00    +0.000 OA
ATOM      7  C   UNL     1       5.708   4.186  16.375  0.00  0.00    +0.000 C 
ATOM      8  C   UNL     1       5.475   5.157  15.222  0.00  0.00    +0.000 C 
ATOM      9  C   UNL     1       5.218   6.542  15.789  0.00  0.00    +0.000 C 
ENDROOT
BRANCH   1  14
ATOM     10  F   UNL     1       0.714   2.058  22.136  0.00  0.00    +0.000 F 
ATOM     11  C   UNL     1       1.291   2.913  21.281  0.00  0.00    +0.000 A 
ATOM     12  C   UNL     1       2.393   3.651  21.689  0.00  0.00    +0.000 A 
ATOM     13  C   UNL     1       2.985   4.557  20.802  0.00  0.00    +0.000 A 
ATOM     14  C   UNL     1       2.497   4.714  19.496  0.00  0.00    +0.000 A 
ATOM     15  C   UNL     1       1.383   3.948  19.109  0.00  0.00    +0.000 A 
ATOM     16  C   UNL     1       0.776   3.056  20.001  0.00  0.00    +0.000 A 
ENDBRANCH   1  14
BRANCH   2  17
ATOM     17  C   UNL     1       2.036   8.041  19.069  0.00  0.00    +0.000 A 
ATOM     18  C   UNL     1       1.829   7.878  20.428  0.00  0.00    +0.000 A 
ATOM     19  C   UNL     1       0.960   8.754  21.019  0.00  0.00    +0.000 A 
ATOM     20  N   UNL     1       0.342   9.730  20.344  0.00  0.00    +0.000 NA
ATOM     21  C   UNL     1       0.637   9.842  19.034  0.00  0.00    +0.000 A 
ATOM     22  N   UNL     1       1.454   9.024  18.351  0.00  0.00    +0.000 NA
BRANCH  21  23
ATOM     23  O   UNL     1       0.072  10.880  18.296  0.00  0.00    +0.000 OA
BRANCH  23  24
ATOM     24  C   UNL     1      -1.292  10.855  18.101  0.00  0.00    +0.000 A 
ATOM     25  C   UNL     1      -2.167  11.755  18.719  0.00  0.00    +0.000 A 
ATOM     26  C   UNL     1      -3.542  11.660  18.503  0.00  0.00    +0.000 A 
ATOM     27  C   UNL     1      -4.044  10.696  17.631  0.00  0.00    +0.000 A 
ATOM     28  C   UNL     1      -3.169   9.836  16.966  0.00  0.00    +0.000 A 
ATOM     29  C   UNL     1      -1.793   9.917  17.197  0.00  0.00    +0.000 A 
ENDBRANCH  23  24
ENDBRANCH  21  23
ENDBRANCH   2  17
TORSDOF 4
ENDMDL
MODEL 2
REMARK VINA RESULT:      -8.7      3.605      5.855
REMARK  Name = 
REMARK  4 active torsions:
REMARK  status: ('A' for Active; 'I' for Inactive)
REMARK    1  A    between atoms: C_5  and  C_6
REMARK    2  A    between atoms: C_7  and  C_8
REMARK    3  A    between atoms: C_12  and  O_13
REMARK    4  A    between atoms: O_13  and  C_14
REMARK                            x       y       z     vdW  Elec       q    Type
REMARK                         _______ _______ _______ _____ _____    ______ ____
ROOT
ATOM      1  C   UNL     1       6.193   5.260  15.913  0.00  0.00    +0.000 A 
ATOM      2  C   UNL     1       4.992   4.467  16.040  0.00  0.00    +0.000 A 
ATOM      3  N   UNL     1       4.753   3.772  14.907  0.00  0.00    +0.000 NA
ATOM      4  N   UNL     1       5.741   4.127  14.089  0.00  0.00    +0.000 N 
ATOM      5  C   UNL     1       6.638   5.009  14.622  0.00  0.00    +0.000 A 
ATOM      6  O   UNL     1       7.722   5.413  13.945  0.00  0.00    +0.000 OA
ATOM      7  C   UNL     1       7.725   5.147  12.535  0.00  0.00    +0.000 C 
ATOM      8  C   UNL     1       7.242   3.735  12.217  0.00  0.00    +0.000 C 
ATOM      9  C   UNL     1       5.834   3.564  12.759  0.00  0.00    +0.000 C 
ENDROOT
BRANCH   1  14
ATOM     10  F   UNL     1       9.013   8.492  19.530  0.00  0.00    +0.000 F 
ATOM     11  C   UNL     1       8.332   7.723  18.670  0.00  0.00    +0.000 A 
ATOM     12  C   UNL     1       8.207   6.364  18.915  0.00  0.00    +0.000 A 
ATOM     13  C   UNL     1       7.511   5.558  18.009  0.00  0.00    +0.000 A 
ATOM     14  C   UNL     1       6.913   6.108  16.864  0.00  0.00    +0.000 A 
ATOM     15  C   UNL     1       7.050   7.490  16.645  0.00  0.00    +0.000 A 
ATOM     16  C   UNL     1       7.764   8.295  17.540  0.00  0.00    +0.000 A 
ENDBRANCH   1  14
BRANCH   2  17
ATOM     17  C   UNL     1       4.066   4.300  17.171  0.00  0.00    +0.000 A 
ATOM     18  C   UNL     1       3.362   3.113  17.282  0.00  0.00    +0.000 A 
ATOM     19  C   UNL     1       2.468   3.033  18.315  0.00  0.00    +0.000 A 
ATOM     20  N   UNL     1       2.276   4.029  19.188  0.00  0.00    +0.000 NA
ATOM     21  C   UNL     1       3.036   5.130  19.029  0.00  0.00    +0.000 A 
ATOM     22  N   UNL     1       3.924   5.323  18.040  0.00  0.00    +0.000 NA
BRANCH  21  23
ATOM     23  O   UNL     1       2.924   6.171  19.947  0.00  0.00    +0.000 OA
BRANCH  23  24
ATOM     24  C   UNL     1       2.307   7.329  19.525  0.00  0.00    +0.000 A 
ATOM     25  C   UNL     1       2.340   7.772  18.199  0.00  0.00    +0.000 A 
ATOM     26  C   UNL     1       1.719   8.968  17.841  0.00  0.00    +0.000 A 
ATOM     27  C   UNL     1       1.020   9.703  18.797  0.00  0.00    +0.000 A 
ATOM     28  C   UNL     1       0.933   9.234  20.108  0.00  0.00    +0.000 A 
ATOM     29  C   UNL     1       1.572   8.045  20.473  0.00  0.00    +0.000 A 
ENDBRANCH  23  24
ENDBRANCH  21  23
ENDBRANCH   2  17
TORSDOF 4
ENDMDL
MODEL 3
REMARK VINA RESULT:      -8.6      1.630      2.419
REMARK  Name = 
REMARK  4 active torsions:
REMARK  status: ('A' for Active; 'I' for Inactive)
REMARK    1  A    between atoms: C_5  and  C_6
REMARK    2  A    between atoms: C_7  and  C_8
REMARK    3  A    between atoms: C_12  and  O_13
REMARK    4  A    between atoms: O_13  and  C_14
REMARK                            x       y       z     vdW  Elec       q    Type
REMARK                         _______ _______ _______ _____ _____    ______ ____
ROOT
ATOM      1  C   UNL     1       3.143   5.609  18.573  0.00  0.00    +0.000 A 
ATOM      2  C   UNL     1       2.957   7.025  18.357  0.00  0.00    +0.000 A 
ATOM      3  N   UNL     1       3.701   7.454  17.315  0.00  0.00    +0.000 NA
ATOM      4  N   UNL     1       4.350   6.367  16.904  0.00  0.00    +0.000 N 
ATOM      5  C   UNL     1       4.065   5.230  17.606  0.00  0.00    +0.000 A 
ATOM      6  O   UNL     1       4.591   4.043  17.275  0.00  0.00    +0.000 OA
ATOM      7  C   UNL     1       5.709   4.073  16.376  0.00  0.00    +0.000 C 
ATOM      8  C   UNL     1       5.485   5.038  15.216  0.00  0.00    +0.000 C 
ATOM      9  C   UNL     1       5.250   6.430  15.773  0.00  0.00    +0.000 C 
ENDROOT
BRANCH   1  14
ATOM     10  F   UNL     1       0.708   2.058  22.171  0.00  0.00    +0.000 F 
ATOM     11  C   UNL     1       1.294   2.899  21.308  0.00  0.00    +0.000 A 
ATOM     12  C   UNL     1       2.414   3.616  21.702  0.00  0.00    +0.000 A 
ATOM     13  C   UNL     1       3.015   4.507  20.806  0.00  0.00    +0.000 A 
ATOM     14  C   UNL     1       2.517   4.669  19.504  0.00  0.00    +0.000 A 
ATOM     15  C   UNL     1       1.385   3.923  19.131  0.00  0.00    +0.000 A 
ATOM     16  C   UNL     1       0.769   3.047  20.032  0.00  0.00    +0.000 A 
ENDBRANCH   1  14
BRANCH   2  17
ATOM     17  C   UNL     1       2.101   7.999  19.053  0.00  0.00    +0.000 A 
ATOM     18  C   UNL     1       1.855   7.820  20.404  0.00  0.00    +0.000 A 
ATOM     19  C   UNL     1       1.002   8.715  20.989  0.00  0.00    +0.000 A 
ATOM     20  N   UNL     1       0.434   9.723  20.317  0.00  0.00    +0.000 NA
ATOM     21  C   UNL     1       0.764   9.847  19.016  0.00  0.00    +0.000 A 
ATOM     22  N   UNL     1       1.570   9.013  18.338  0.00  0.00    +0.000 NA
BRANCH  21  23
ATOM     23  O   UNL     1       0.253  10.915  18.283  0.00  0.00    +0.000 OA
BRANCH  23  24
ATOM     24  C   UNL     1       0.718  12.177  18.586  0.00  0.00    +0.000 A 
ATOM     25  C   UNL     1       2.069  12.532  18.503  0.00  0.00    +0.000 A 
ATOM     26  C   UNL     1       2.480  13.819  18.851  0.00  0.00    +0.000 A 
ATOM     27  C   UNL     1       1.538  14.770  19.235  0.00  0.00    +0.000 A 
ATOM     28  C   UNL     1       0.183  14.438  19.261  0.00  0.00    +0.000 A 
ATOM     29  C   UNL     1      -0.229  13.143  18.932  0.00  0.00    +0.000 A 
ENDBRANCH  23  24
ENDBRANCH  21  23
ENDBRANCH   2  17
TORSDOF 4
ENDMDL
MODEL 4
REMARK VINA RESULT:      -8.4      3.095      8.353
REMARK  Name = 
REMARK  4 active torsions:
REMARK  status: ('A' for Active; 'I' for Inactive)
REMARK    1  A    between atoms: C_5  and  C_6
REMARK    2  A    between atoms: C_7  and  C_8
REMARK    3  A    between atoms: C_12  and  O_13
REMARK    4  A    between atoms: O_13  and  C_14
REMARK                            x       y       z     vdW  Elec       q    Type
REMARK                         _______ _______ _______ _____ _____    ______ ____
ROOT
ATOM      1  C   UNL     1      -1.231  10.968  19.498  0.00  0.00    +0.000 A 
ATOM      2  C   UNL     1       0.013  10.439  20.009  0.00  0.00    +0.000 A 
ATOM      3  N   UNL     1       0.234  10.867  21.270  0.00  0.00    +0.000 NA
ATOM      4  N   UNL     1      -0.806  11.651  21.540  0.00  0.00    +0.000 N 
ATOM      5  C   UNL     1      -1.721  11.757  20.530  0.00  0.00    +0.000 A 
ATOM      6  O   UNL     1      -2.854  12.459  20.671  0.00  0.00    +0.000 OA
ATOM      7  C   UNL     1      -2.907  13.359  21.788  0.00  0.00    +0.000 C 
ATOM      8  C   UNL     1      -2.369  12.720  23.064  0.00  0.00    +0.000 C 
ATOM      9  C   UNL     1      -0.931  12.291  22.831  0.00  0.00    +0.000 C 
ENDROOT
BRANCH   1  14
ATOM     10  F   UNL     1      -4.040  10.137  14.712  0.00  0.00    +0.000 F 
ATOM     11  C   UNL     1      -3.361  10.333  15.851  0.00  0.00    +0.000 A 
ATOM     12  C   UNL     1      -3.402   9.369  16.848  0.00  0.00    +0.000 A 
ATOM     13  C   UNL     1      -2.707   9.581  18.043  0.00  0.00    +0.000 A 
ATOM     14  C   UNL     1      -1.948  10.745  18.241  0.00  0.00    +0.000 A 
ATOM     15  C   UNL     1      -1.920  11.701  17.211  0.00  0.00    +0.000 A 
ATOM     16  C   UNL     1      -2.631  11.500  16.022  0.00  0.00    +0.000 A 
ENDBRANCH   1  14
BRANCH   2  17
ATOM     17  C   UNL     1       0.996   9.533  19.394  0.00  0.00    +0.000 A 
ATOM     18  C   UNL     1       1.518   9.863  18.154  0.00  0.00    +0.000 A 
ATOM     19  C   UNL     1       2.379   8.956  17.598  0.00  0.00    +0.000 A 
ATOM     20  N   UNL     1       2.723   7.814  18.205  0.00  0.00    +0.000 NA
ATOM     21  C   UNL     1       2.201   7.597  19.429  0.00  0.00    +0.000 A 
ATOM     22  N   UNL     1       1.331   8.405  20.055  0.00  0.00    +0.000 NA
BRANCH  21  23
ATOM     23  O   UNL     1       2.574   6.455  20.134  0.00  0.00    +0.000 OA
BRANCH  23  24
ATOM     24  C   UNL     1       2.041   5.251  19.726  0.00  0.00    +0.000 A 
ATOM     25  C   UNL     1       2.112   4.793  18.407  0.00  0.00    +0.000 A 
ATOM     26  C   UNL     1       1.526   3.577  18.052  0.00  0.00    +0.000 A 
ATOM     27  C   UNL     1       0.910   2.792  19.024  0.00  0.00    +0.000 A 
ATOM     28  C   UNL     1       0.890   3.217  20.353  0.00  0.00    +0.000 A 
ATOM     29  C   UNL     1       1.459   4.444  20.706  0.00  0.00    +0.000 A 
ENDBRANCH  23  24
ENDBRANCH  21  23
ENDBRANCH   2  17
TORSDOF 4
ENDMDL
MODEL 5
REMARK VINA RESULT:      -8.4      1.958      2.992
REMARK  Name = 
REMARK  4 active torsions:
REMARK  status: ('A' for Active; 'I' for Inactive)
REMARK    1  A    between atoms: C_5  and  C_6
REMARK    2  A    between atoms: C_7  and  C_8
REMARK    3  A    between atoms: C_12  and  O_13
REMARK    4  A    between atoms: O_13  and  C_14
REMARK                            x       y       z     vdW  Elec       q    Type
REMARK                         _______ _______ _______ _____ _____    ______ ____
ROOT
ATOM      1  C   UNL     1       3.086   5.703  18.655  0.00  0.00    +0.000 A 
ATOM      2  C   UNL     1       2.914   7.125  18.471  0.00  0.00    +0.000 A 
ATOM      3  N   UNL     1       3.646   7.567  17.426  0.00  0.00    +0.000 NA
ATOM      4  N   UNL     1       4.275   6.481  16.983  0.00  0.00    +0.000 N 
ATOM      5  C   UNL     1       3.988   5.333  17.666  0.00  0.00    +0.000 A 
ATOM      6  O   UNL     1       4.493   4.146  17.301  0.00  0.00    +0.000 OA
ATOM      7  C   UNL     1       5.596   4.182  16.384  0.00  0.00    +0.000 C 
ATOM      8  C   UNL     1       5.365   5.173  15.248  0.00  0.00    +0.000 C 
ATOM      9  C   UNL     1       5.156   6.556  15.838  0.00  0.00    +0.000 C 
ENDROOT
BRANCH   1  14
ATOM     10  F   UNL     1       0.735   2.002  22.156  0.00  0.00    +0.000 F 
ATOM     11  C   UNL     1       1.292   2.892  21.325  0.00  0.00    +0.000 A 
ATOM     12  C   UNL     1       0.745   3.090  20.065  0.00  0.00    +0.000 A 
ATOM     13  C   UNL     1       1.337   4.007  19.191  0.00  0.00    +0.000 A 
ATOM     14  C   UNL     1       2.464   4.751  19.577  0.00  0.00    +0.000 A 
ATOM     15  C   UNL     1       2.991   4.534  20.862  0.00  0.00    +0.000 A 
ATOM     16  C   UNL     1       2.413   3.602  21.731  0.00  0.00    +0.000 A 
ENDBRANCH   1  14
BRANCH   2  17
ATOM     17  C   UNL     1       2.082   8.095  19.201  0.00  0.00    +0.000 A 
ATOM     18  C   UNL     1       1.606   7.749  20.455  0.00  0.00    +0.000 A 
ATOM     19  C   UNL     1       0.785   8.658  21.064  0.00  0.00    +0.000 A 
ATOM     20  N   UNL     1       0.455   9.828  20.504  0.00  0.00    +0.000 NA
ATOM     21  C   UNL     1       0.999  10.100  19.302  0.00  0.00    +0.000 A 
ATOM     22  N   UNL     1       1.796   9.272  18.607  0.00  0.00    +0.000 NA
BRANCH  21  23
ATOM     23  O   UNL     1       0.742  11.330  18.701  0.00  0.00    +0.000 OA
BRANCH  23  24
ATOM     24  C   UNL     1       1.567  12.384  19.029  0.00  0.00    +0.000 A 
ATOM     25  C   UNL     1       1.612  12.949  20.308  0.00  0.00    +0.000 A 
ATOM     26  C   UNL     1       2.448  14.034  20.569  0.00  0.00    +0.000 A 
ATOM     27  C   UNL     1       3.279  14.529  19.566  0.00  0.00    +0.000 A 
ATOM     28  C   UNL     1       3.282  13.930  18.306  0.00  0.00    +0.000 A 
ATOM     29  C   UNL     1       2.430  12.855  18.037  0.00  0.00    +0.000 A 
ENDBRANCH  23  24
ENDBRANCH  21  23
ENDBRANCH   2  17
TORSDOF 4
ENDMDL
MODEL 6
REMARK VINA RESULT:      -8.4      1.918      2.866
REMARK  Name = 
REMARK  4 active torsions:
REMARK  status: ('A' for Active; 'I' for Inactive)
REMARK    1  A    between atoms: C_5  and  C_6
REMARK    2  A    between atoms: C_7  and  C_8
REMARK    3  A    between atoms: C_12  and  O_13
REMARK    4  A    between atoms: O_13  and  C_14
REMARK                            x       y       z     vdW  Elec       q    Type
REMARK                         _______ _______ _______ _____ _____    ______ ____
ROOT
ATOM      1  C   UNL     1       3.246   5.642  18.288  0.00  0.00    +0.000 A 
ATOM      2  C   UNL     1       3.042   7.019  17.899  0.00  0.00    +0.000 A 
ATOM      3  N   UNL     1       3.865   7.358  16.883  0.00  0.00    +0.000 NA
ATOM      4  N   UNL     1       4.577   6.257  16.654  0.00  0.00    +0.000 N 
ATOM      5  C   UNL     1       4.261   5.194  17.453  0.00  0.00    +0.000 A 
ATOM      6  O   UNL     1       4.846   3.997  17.303  0.00  0.00    +0.000 OA
ATOM      7  C   UNL     1       6.039   3.970  16.506  0.00  0.00    +0.000 C 
ATOM      8  C   UNL     1       5.893   4.792  15.230  0.00  0.00    +0.000 C 
ATOM      9  C   UNL     1       5.572   6.228  15.604  0.00  0.00    +0.000 C 
ENDROOT
BRANCH   1  14
ATOM     10  F   UNL     1       0.676   2.312  22.001  0.00  0.00    +0.000 F 
ATOM     11  C   UNL     1       1.285   3.114  21.117  0.00  0.00    +0.000 A 
ATOM     12  C   UNL     1       0.899   3.085  19.785  0.00  0.00    +0.000 A 
ATOM     13  C   UNL     1       1.546   3.910  18.859  0.00  0.00    +0.000 A 
ATOM     14  C   UNL     1       2.565   4.788  19.261  0.00  0.00    +0.000 A 
ATOM     15  C   UNL     1       2.930   4.800  20.619  0.00  0.00    +0.000 A 
ATOM     16  C   UNL     1       2.298   3.961  21.544  0.00  0.00    +0.000 A 
ENDBRANCH   1  14
BRANCH   2  17
ATOM     17  C   UNL     1       2.102   8.031  18.405  0.00  0.00    +0.000 A 
ATOM     18  C   UNL     1       1.413   8.811  17.492  0.00  0.00    +0.000 A 
ATOM     19  C   UNL     1       0.599   9.780  18.014  0.00  0.00    +0.000 A 
ATOM     20  N   UNL     1       0.452   9.973  19.330  0.00  0.00    +0.000 NA
ATOM     21  C   UNL     1       1.127   9.138  20.144  0.00  0.00    +0.000 A 
ATOM     22  N   UNL     1       1.968   8.173  19.740  0.00  0.00    +0.000 NA
BRANCH  21  23
ATOM     23  O   UNL     1       0.962   9.252  21.523  0.00  0.00    +0.000 OA
BRANCH  23  24
ATOM     24  C   UNL     1       0.183  10.290  21.988  0.00  0.00    +0.000 A 
ATOM     25  C   UNL     1      -0.835  10.115  22.931  0.00  0.00    +0.000 A 
ATOM     26  C   UNL     1      -1.608  11.202  23.341  0.00  0.00    +0.000 A 
ATOM     27  C   UNL     1      -1.334  12.476  22.847  0.00  0.00    +0.000 A 
ATOM     28  C   UNL     1      -0.280  12.664  21.953  0.00  0.00    +0.000 A 
ATOM     29  C   UNL     1       0.482  11.573  21.526  0.00  0.00    +0.000 A 
ENDBRANCH  23  24
ENDBRANCH  21  23
ENDBRANCH   2  17
TORSDOF 4
ENDMDL
MODEL 7
REMARK VINA RESULT:      -8.3      0.673      1.204
REMARK  Name = 
REMARK  4 active torsions:
REMARK  status: ('A' for Active; 'I' for Inactive)
REMARK    1  A    between atoms: C_5  and  C_6
REMARK    2  A    between atoms: C_7  and  C_8
REMARK    3  A    between atoms: C_12  and  O_13
REMARK    4  A    between atoms: O_13  and  C_14
REMARK                            x       y       z     vdW  Elec       q    Type
REMARK                         _______ _______ _______ _____ _____    ______ ____
ROOT
ATOM      1  C   UNL     1       2.975   5.885  18.689  0.00  0.00    +0.000 A 
ATOM      2  C   UNL     1       2.741   7.301  18.529  0.00  0.00    +0.000 A 
ATOM      3  N   UNL     1       3.463   7.795  17.500  0.00  0.00    +0.000 NA
ATOM      4  N   UNL     1       4.145   6.747  17.044  0.00  0.00    +0.000 N 
ATOM      5  C   UNL     1       3.903   5.574  17.703  0.00  0.00    +0.000 A 
ATOM      6  O   UNL     1       4.465   4.419  17.323  0.00  0.00    +0.000 OA
ATOM      7  C   UNL     1       5.575   4.521  16.419  0.00  0.00    +0.000 C 
ATOM      8  C   UNL     1       5.312   5.521  15.299  0.00  0.00    +0.000 C 
ATOM      9  C   UNL     1       5.034   6.883  15.911  0.00  0.00    +0.000 C 
ENDROOT
BRANCH   1  14
ATOM     10  F   UNL     1       0.757   2.017  22.095  0.00  0.00    +0.000 F 
ATOM     11  C   UNL     1       1.283   2.947  21.286  0.00  0.00    +0.000 A 
ATOM     12  C   UNL     1       0.745   3.139  20.022  0.00  0.00    +0.000 A 
ATOM     13  C   UNL     1       1.304   4.098  19.171  0.00  0.00    +0.000 A 
ATOM     14  C   UNL     1       2.387   4.889  19.586  0.00  0.00    +0.000 A 
ATOM     15  C   UNL     1       2.906   4.677  20.875  0.00  0.00    +0.000 A 
ATOM     16  C   UNL     1       2.361   3.704  21.721  0.00  0.00    +0.000 A 
ENDBRANCH   1  14
BRANCH   2  17
ATOM     17  C   UNL     1       1.858   8.218  19.267  0.00  0.00    +0.000 A 
ATOM     18  C   UNL     1       1.677   8.016  20.625  0.00  0.00    +0.000 A 
ATOM     19  C   UNL     1       0.797   8.856  21.251  0.00  0.00    +0.000 A 
ATOM     20  N   UNL     1       0.145   9.834  20.611  0.00  0.00    +0.000 NA
ATOM     21  C   UNL     1       0.415   9.985  19.299  0.00  0.00    +0.000 A 
ATOM     22  N   UNL     1       1.240   9.204  18.583  0.00  0.00    +0.000 NA
BRANCH  21  23
ATOM     23  O   UNL     1      -0.187  11.026  18.597  0.00  0.00    +0.000 OA
BRANCH  23  24
ATOM     24  C   UNL     1      -1.368  10.754  17.942  0.00  0.00    +0.000 A 
ATOM     25  C   UNL     1      -2.266   9.768  18.365  0.00  0.00    +0.000 A 
ATOM     26  C   UNL     1      -3.432   9.521  17.641  0.00  0.00    +0.000 A 
ATOM     27  C   UNL     1      -3.732  10.292  16.520  0.00  0.00    +0.000 A 
ATOM     28  C   UNL     1      -2.870  11.318  16.130  0.00  0.00    +0.000 A 
ATOM     29  C   UNL     1      -1.690  11.552  16.842  0.00  0.00    +0.000 A 
ENDBRANCH  23  24
ENDBRANCH  21  23
ENDBRANCH   2  17
TORSDOF 4
ENDMDL
MODEL 8
REMARK VINA RESULT:      -8.3      1.920      2.719
REMARK  Name = 
REMARK  4 active torsions:
REMARK  status: ('A' for Active; 'I' for Inactive)
REMARK    1  A    between atoms: C_5  and  C_6
REMARK    2  A    between atoms: C_7  and  C_8
REMARK    3  A    between atoms: C_12  and  O_13
REMARK    4  A    between atoms: O_13  and  C_14
REMARK                            x       y       z     vdW  Elec       q    Type
REMARK                         _______ _______ _______ _____ _____    ______ ____
ROOT
ATOM      1  C   UNL     1       3.307   5.621  18.293  0.00  0.00    +0.000 A 
ATOM      2  C   UNL     1       3.093   6.995  17.901  0.00  0.00    +0.000 A 
ATOM      3  N   UNL     1       3.933   7.347  16.905  0.00  0.00    +0.000 NA
ATOM      4  N   UNL     1       4.665   6.257  16.690  0.00  0.00    +0.000 N 
ATOM      5  C   UNL     1       4.347   5.188  17.479  0.00  0.00    +0.000 A 
ATOM      6  O   UNL     1       4.951   4.000  17.341  0.00  0.00    +0.000 OA
ATOM      7  C   UNL     1       6.162   3.991  16.570  0.00  0.00    +0.000 C 
ATOM      8  C   UNL     1       6.034   4.814  15.293  0.00  0.00    +0.000 C 
ATOM      9  C   UNL     1       5.684   6.245  15.663  0.00  0.00    +0.000 C 
ENDROOT
BRANCH   1  14
ATOM     10  F   UNL     1       0.620   2.355  21.979  0.00  0.00    +0.000 F 
ATOM     11  C   UNL     1       1.266   3.127  21.096  0.00  0.00    +0.000 A 
ATOM     12  C   UNL     1       2.315   3.929  21.524  0.00  0.00    +0.000 A 
ATOM     13  C   UNL     1       2.978   4.748  20.605  0.00  0.00    +0.000 A 
ATOM     14  C   UNL     1       2.617   4.754  19.249  0.00  0.00    +0.000 A 
ATOM     15  C   UNL     1       1.555   3.927  18.843  0.00  0.00    +0.000 A 
ATOM     16  C   UNL     1       0.876   3.121  19.765  0.00  0.00    +0.000 A 
ENDBRANCH   1  14
BRANCH   2  17
ATOM     17  C   UNL     1       2.127   7.992  18.388  0.00  0.00    +0.000 A 
ATOM     18  C   UNL     1       1.405   8.724  17.460  0.00  0.00    +0.000 A 
ATOM     19  C   UNL     1       0.567   9.683  17.963  0.00  0.00    +0.000 A 
ATOM     20  N   UNL     1       0.428   9.910  19.274  0.00  0.00    +0.000 NA
ATOM     21  C   UNL     1       1.137   9.121  20.105  0.00  0.00    +0.000 A 
ATOM     22  N   UNL     1       2.003   8.170  19.720  0.00  0.00    +0.000 NA
BRANCH  21  23
ATOM     23  O   UNL     1       0.983   9.271  21.481  0.00  0.00    +0.000 OA
BRANCH  23  24
ATOM     24  C   UNL     1       0.248  10.348  21.927  0.00  0.00    +0.000 A 
ATOM     25  C   UNL     1       0.458  11.655  21.474  0.00  0.00    +0.000 A 
ATOM     26  C   UNL     1      -0.301  12.708  21.986  0.00  0.00    +0.000 A 
ATOM     27  C   UNL     1      -1.306  12.452  22.916  0.00  0.00    +0.000 A 
ATOM     28  C   UNL     1      -1.560  11.142  23.325  0.00  0.00    +0.000 A 
ATOM     29  C   UNL     1      -0.786  10.089  22.828  0.00  0.00    +0.000 A 
ENDBRANCH  23  24
ENDBRANCH  21  23
ENDBRANCH   2  17
TORSDOF 4
ENDMDL
MODEL 9
REMARK VINA RESULT:      -8.3      3.830      7.672
REMARK  Name = 
REMARK  4 active torsions:
REMARK  status: ('A' for Active; 'I' for Inactive)
REMARK    1  A    between atoms: C_5  and  C_6
REMARK    2  A    between atoms: C_7  and  C_8
REMARK    3  A    between atoms: C_12  and  O_13
REMARK    4  A    between atoms: O_13  and  C_14
REMARK                            x       y       z     vdW  Elec       q    Type
REMARK                         _______ _______ _______ _____ _____    ______ ____
ROOT
ATOM      1  C   UNL     1       3.109   5.405  18.577  0.00  0.00    +0.000 A 
ATOM      2  C   UNL     1       4.356   4.883  18.066  0.00  0.00    +0.000 A 
ATOM      3  N   UNL     1       4.342   3.533  18.054  0.00  0.00    +0.000 NA
ATOM      4  N   UNL     1       3.153   3.211  18.558  0.00  0.00    +0.000 N 
ATOM      5  C   UNL     1       2.364   4.276  18.891  0.00  0.00    +0.000 A 
ATOM      6  O   UNL     1       1.116   4.117  19.352  0.00  0.00    +0.000 OA
ATOM      7  C   UNL     1       0.768   2.797  19.795  0.00  0.00    +0.000 C 
ATOM      8  C   UNL     1       1.251   1.722  18.826  0.00  0.00    +0.000 C 
ATOM      9  C   UNL     1       2.760   1.825  18.691  0.00  0.00    +0.000 C 
ENDROOT
BRANCH   1  14
ATOM     10  F   UNL     1       1.102  10.621  19.079  0.00  0.00    +0.000 F 
ATOM     11  C   UNL     1       1.589   9.378  18.963  0.00  0.00    +0.000 A 
ATOM     12  C   UNL     1       2.072   8.942  17.738  0.00  0.00    +0.000 A 
ATOM     13  C   UNL     1       2.565   7.639  17.612  0.00  0.00    +0.000 A 
ATOM     14  C   UNL     1       2.602   6.771  18.715  0.00  0.00    +0.000 A 
ATOM     15  C   UNL     1       2.113   7.243  19.945  0.00  0.00    +0.000 A 
ATOM     16  C   UNL     1       1.600   8.539  20.069  0.00  0.00    +0.000 A 
ENDBRANCH   1  14
BRANCH   2  17
ATOM     17  C   UNL     1       5.552   5.575  17.561  0.00  0.00    +0.000 A 
ATOM     18  C   UNL     1       6.029   6.670  18.260  0.00  0.00    +0.000 A 
ATOM     19  C   UNL     1       7.105   7.317  17.714  0.00  0.00    +0.000 A 
ATOM     20  N   UNL     1       7.688   6.922  16.576  0.00  0.00    +0.000 NA
ATOM     21  C   UNL     1       7.184   5.820  15.987  0.00  0.00    +0.000 A 
ATOM     22  N   UNL     1       6.120   5.126  16.422  0.00  0.00    +0.000 NA
BRANCH  21  23
ATOM     23  O   UNL     1       7.792   5.328  14.834  0.00  0.00    +0.000 OA
BRANCH  23  24
ATOM     24  C   UNL     1       6.994   4.662  13.928  0.00  0.00    +0.000 A 
ATOM     25  C   UNL     1       5.675   4.287  14.203  0.00  0.00    +0.000 A 
ATOM     26  C   UNL     1       4.929   3.590  13.253  0.00  0.00    +0.000 A 
ATOM     27  C   UNL     1       5.481   3.308  12.005  0.00  0.00    +0.000 A 
ATOM     28  C   UNL     1       6.776   3.734  11.704  0.00  0.00    +0.000 A 
ATOM     29  C   UNL     1       7.531   4.415  12.663  0.00  0.00    +0.000 A 
ENDBRANCH  23  24
ENDBRANCH  21  23
ENDBRANCH   2  17
TORSDOF 4
ENDMDL
