MODEL 1
REMARK VINA RESULT:      -7.3      0.000      0.000
REMARK  Name = 
REMARK  15 active torsions:
REMARK  status: ('A' for Active; 'I' for Inactive)
REMARK    1  A    between atoms: C_1  and  C_2
REMARK    2  A    between atoms: C_2  and  C_3
REMARK    3  A    between atoms: C_3  and  C_4
REMARK    4  A    between atoms: C_4  and  C_5
REMARK    5  A    between atoms: C_5  and  C_6
REMARK    6  A    between atoms: C_7  and  C_8
REMARK    7  A    between atoms: C_8  and  C_9
REMARK    8  A    between atoms: C_8  and  C_10
REMARK    9  A    between atoms: C_12  and  C_13
REMARK   10  A    between atoms: C_13  and  C_14
REMARK   11  A    between atoms: C_13  and  C_15
REMARK   12  A    between atoms: C_16  and  C_17
REMARK   13  A    between atoms: C_17  and  O_18
REMARK   14  A    between atoms: C_19  and  C_20
REMARK   15  A    between atoms: C_23  and  C_24
REMARK                            x       y       z     vdW  Elec       q    Type
REMARK                         _______ _______ _______ _____ _____    ______ ____
ROOT
ATOM      1  C   UNL     1       4.553   6.060  17.689  0.00  0.00    +0.000 A 
ATOM      2  C   UNL     1       5.269   4.866  17.490  0.00  0.00    +0.000 A 
ATOM      3  N   UNL     1       4.942   3.715  18.125  0.00  0.00    +0.000 NA
ATOM      4  C   UNL     1       3.883   3.670  18.969  0.00  0.00    +0.000 A 
ATOM      5  C   UNL     1       3.091   4.806  19.248  0.00  0.00    +0.000 A 
ATOM      6  C   UNL     1       3.424   6.041  18.588  0.00  0.00    +0.000 A 
ENDROOT
BRANCH   6   7
ATOM      7  C   UNL     1       2.584   7.265  18.772  0.00  0.00    +0.000 A 
ATOM      8  C   UNL     1       2.238   8.107  17.701  0.00  0.00    +0.000 A 
ATOM      9  C   UNL     1       1.367   9.192  17.863  0.00  0.00    +0.000 A 
ATOM     10  C   UNL     1       0.910   9.572  19.130  0.00  0.00    +0.000 A 
ATOM     11  C   UNL     1       1.321   8.790  20.217  0.00  0.00    +0.000 A 
ATOM     12  C   UNL     1       2.090   7.636  20.033  0.00  0.00    +0.000 A 
BRANCH  10  13
ATOM     13  C   UNL     1       0.036  10.746  19.320  0.00  0.00    +0.000 A 
ATOM     14  C   UNL     1       0.472  11.868  20.043  0.00  0.00    +0.000 A 
ATOM     15  C   UNL     1      -0.345  12.989  20.208  0.00  0.00    +0.000 A 
ATOM     16  C   UNL     1      -1.619  13.011  19.647  0.00  0.00    +0.000 A 
ATOM     17  C   UNL     1      -2.076  11.910  18.929  0.00  0.00    +0.000 A 
ATOM     18  C   UNL     1      -1.258  10.789  18.771  0.00  0.00    +0.000 A 
ENDBRANCH  10  13
ENDBRANCH   6   7
BRANCH   2  19
ATOM     19  C   UNL     1       6.508   4.772  16.597  0.00  0.00    +0.000 C 
ATOM     20  C   UNL     1       7.724   4.363  17.433  0.00  0.00    +0.000 C 
ATOM     21  C   UNL     1       6.342   3.812  15.415  0.00  0.00    +0.000 C 
ENDBRANCH   2  19
BRANCH   4  22
ATOM     22  C   UNL     1       3.551   2.268  19.477  0.00  0.00    +0.000 C 
ATOM     23  C   UNL     1       3.531   1.275  18.314  0.00  0.00    +0.000 C 
ATOM     24  C   UNL     1       4.498   1.781  20.581  0.00  0.00    +0.000 C 
ENDBRANCH   4  22
BRANCH   1  25
ATOM     25  C   UNL     1       4.953   7.304  16.901  0.00  0.00    +0.000 C 
BRANCH  25  26
ATOM     26  C   UNL     1       5.948   8.204  17.641  0.00  0.00    +0.000 C 
BRANCH  26  27
ATOM     27  C   UNL     1       7.391   7.866  17.248  0.00  0.00    +0.000 C 
BRANCH  27  29
ATOM     28  C   UNL     1       8.645   9.750  18.369  0.00  0.00    +0.000 C 
ATOM     29  C   UNL     1       8.377   8.250  18.351  0.00  0.00    +0.000 C 
ENDBRANCH  27  29
ENDBRANCH  26  27
ENDBRANCH  25  26
ENDBRANCH   1  25
BRANCH   5  30
ATOM     30  C   UNL     1       1.851   4.624  20.119  0.00  0.00    +0.000 C 
BRANCH  30  31
ATOM     31  O   UNL     1       2.076   4.417  21.501  0.00  0.00    +0.000 OA
ATOM     32  H   UNL     1       2.246   5.279  21.907  0.00  0.00    +0.000 HD
ENDBRANCH  30  31
ENDBRANCH   5  30
TORSDOF 10
ENDMDL
MODEL 2
REMARK VINA RESULT:      -7.3      0.584      1.037
REMARK  Name = 
REMARK  15 active torsions:
REMARK  status: ('A' for Active; 'I' for Inactive)
REMARK    1  A    between atoms: C_1  and  C_2
REMARK    2  A    between atoms: C_2  and  C_3
REMARK    3  A    between atoms: C_3  and  C_4
REMARK    4  A    between atoms: C_4  and  C_5
REMARK    5  A    between atoms: C_5  and  C_6
REMARK    6  A    between atoms: C_7  and  C_8
REMARK    7  A    between atoms: C_8  and  C_9
REMARK    8  A    between atoms: C_8  and  C_10
REMARK    9  A    between atoms: C_12  and  C_13
REMARK   10  A    between atoms: C_13  and  C_14
REMARK   11  A    between atoms: C_13  and  C_15
REMARK   12  A    between atoms: C_16  and  C_17
REMARK   13  A    between atoms: C_17  and  O_18
REMARK   14  A    between atoms: C_19  and  C_20
REMARK   15  A    between atoms: C_23  and  C_24
REMARK                            x       y       z     vdW  Elec       q    Type
REMARK                         _______ _______ _______ _____ _____    ______ ____
ROOT
ATOM      1  C   UNL     1       4.548   6.041  17.716  0.00  0.00    +0.000 A 
ATOM      2  C   UNL     1       5.269   4.846  17.540  0.00  0.00    +0.000 A 
ATOM      3  N   UNL     1       4.955   3.710  18.207  0.00  0.00    +0.000 NA
ATOM      4  C   UNL     1       3.904   3.680  19.063  0.00  0.00    +0.000 A 
ATOM      5  C   UNL     1       3.108   4.819  19.321  0.00  0.00    +0.000 A 
ATOM      6  C   UNL     1       3.428   6.038  18.627  0.00  0.00    +0.000 A 
ENDROOT
BRANCH   6   7
ATOM      7  C   UNL     1       2.583   7.262  18.788  0.00  0.00    +0.000 A 
ATOM      8  C   UNL     1       2.088   7.675  20.038  0.00  0.00    +0.000 A 
ATOM      9  C   UNL     1       1.386   8.877  20.196  0.00  0.00    +0.000 A 
ATOM     10  C   UNL     1       1.025   9.656  19.092  0.00  0.00    +0.000 A 
ATOM     11  C   UNL     1       1.439   9.208  17.832  0.00  0.00    +0.000 A 
ATOM     12  C   UNL     1       2.245   8.072  17.693  0.00  0.00    +0.000 A 
BRANCH  10  13
ATOM     13  C   UNL     1       0.239  10.896  19.242  0.00  0.00    +0.000 A 
ATOM     14  C   UNL     1       0.786  12.149  18.919  0.00  0.00    +0.000 A 
ATOM     15  C   UNL     1       0.039  13.322  19.040  0.00  0.00    +0.000 A 
ATOM     16  C   UNL     1      -1.280  13.265  19.485  0.00  0.00    +0.000 A 
ATOM     17  C   UNL     1      -1.844  12.037  19.814  0.00  0.00    +0.000 A 
ATOM     18  C   UNL     1      -1.091  10.866  19.696  0.00  0.00    +0.000 A 
ENDBRANCH  10  13
ENDBRANCH   6   7
BRANCH   2  19
ATOM     19  C   UNL     1       6.500   4.736  16.637  0.00  0.00    +0.000 C 
ATOM     20  C   UNL     1       7.734   4.398  17.477  0.00  0.00    +0.000 C 
ATOM     21  C   UNL     1       6.344   3.714  15.507  0.00  0.00    +0.000 C 
ENDBRANCH   2  19
BRANCH   4  22
ATOM     22  C   UNL     1       3.585   2.290  19.609  0.00  0.00    +0.000 C 
ATOM     23  C   UNL     1       3.436   1.291  18.460  0.00  0.00    +0.000 C 
ATOM     24  C   UNL     1       4.616   1.785  20.627  0.00  0.00    +0.000 C 
ENDBRANCH   4  22
BRANCH   1  25
ATOM     25  C   UNL     1       4.934   7.267  16.893  0.00  0.00    +0.000 C 
BRANCH  25  26
ATOM     26  C   UNL     1       5.905   8.208  17.613  0.00  0.00    +0.000 C 
BRANCH  26  27
ATOM     27  C   UNL     1       7.355   7.909  17.212  0.00  0.00    +0.000 C 
BRANCH  27  29
ATOM     28  C   UNL     1       8.668   9.747  18.343  0.00  0.00    +0.000 C 
ATOM     29  C   UNL     1       8.330   8.261  18.335  0.00  0.00    +0.000 C 
ENDBRANCH  27  29
ENDBRANCH  26  27
ENDBRANCH  25  26
ENDBRANCH   1  25
BRANCH   5  30
ATOM     30  C   UNL     1       1.879   4.653  20.208  0.00  0.00    +0.000 C 
BRANCH  30  31
ATOM     31  O   UNL     1       0.791   3.939  19.650  0.00  0.00    +0.000 OA
ATOM     32  H   UNL     1      -0.022   4.266  20.062  0.00  0.00    +0.000 HD
ENDBRANCH  30  31
ENDBRANCH   5  30
TORSDOF 10
ENDMDL
MODEL 3
REMARK VINA RESULT:      -7.1      3.304      9.785
REMARK  Name = 
REMARK  15 active torsions:
REMARK  status: ('A' for Active; 'I' for Inactive)
REMARK    1  A    between atoms: C_1  and  C_2
REMARK    2  A    between atoms: C_2  and  C_3
REMARK    3  A    between atoms: C_3  and  C_4
REMARK    4  A    between atoms: C_4  and  C_5
REMARK    5  A    between atoms: C_5  and  C_6
REMARK    6  A    between atoms: C_7  and  C_8
REMARK    7  A    between atoms: C_8  and  C_9
REMARK    8  A    between atoms: C_8  and  C_10
REMARK    9  A    between atoms: C_12  and  C_13
REMARK   10  A    between atoms: C_13  and  C_14
REMARK   11  A    between atoms: C_13  and  C_15
REMARK   12  A    between atoms: C_16  and  C_17
REMARK   13  A    between atoms: C_17  and  O_18
REMARK   14  A    between atoms: C_19  and  C_20
REMARK   15  A    between atoms: C_23  and  C_24
REMARK                            x       y       z     vdW  Elec       q    Type
REMARK                         _______ _______ _______ _____ _____    ______ ____
ROOT
ATOM      1  C   UNL     1      -1.709  11.021  19.426  0.00  0.00    +0.000 A 
ATOM      2  C   UNL     1      -2.535  12.135  19.659  0.00  0.00    +0.000 A 
ATOM      3  N   UNL     1      -2.031  13.356  19.958  0.00  0.00    +0.000 NA
ATOM      4  C   UNL     1      -0.692  13.553  20.022  0.00  0.00    +0.000 A 
ATOM      5  C   UNL     1       0.236  12.509  19.808  0.00  0.00    +0.000 A 
ATOM      6  C   UNL     1      -0.278  11.203  19.494  0.00  0.00    +0.000 A 
ENDROOT
BRANCH   6   7
ATOM      7  C   UNL     1       0.643  10.067  19.177  0.00  0.00    +0.000 A 
ATOM      8  C   UNL     1       1.017   9.111  20.138  0.00  0.00    +0.000 A 
ATOM      9  C   UNL     1       1.795   7.994  19.808  0.00  0.00    +0.000 A 
ATOM     10  C   UNL     1       2.352   7.850  18.533  0.00  0.00    +0.000 A 
ATOM     11  C   UNL     1       2.058   8.843  17.592  0.00  0.00    +0.000 A 
ATOM     12  C   UNL     1       1.180   9.891  17.891  0.00  0.00    +0.000 A 
BRANCH  10  13
ATOM     13  C   UNL     1       3.219   6.705  18.190  0.00  0.00    +0.000 A 
ATOM     14  C   UNL     1       2.956   5.419  18.688  0.00  0.00    +0.000 A 
ATOM     15  C   UNL     1       3.762   4.329  18.350  0.00  0.00    +0.000 A 
ATOM     16  C   UNL     1       4.849   4.505  17.498  0.00  0.00    +0.000 A 
ATOM     17  C   UNL     1       5.132   5.771  16.993  0.00  0.00    +0.000 A 
ATOM     18  C   UNL     1       4.327   6.858  17.338  0.00  0.00    +0.000 A 
ENDBRANCH  10  13
ENDBRANCH   6   7
BRANCH   2  19
ATOM     19  C   UNL     1      -4.063  12.058  19.658  0.00  0.00    +0.000 C 
ATOM     20  C   UNL     1      -4.627  12.865  20.831  0.00  0.00    +0.000 C 
ATOM     21  C   UNL     1      -4.702  12.529  18.348  0.00  0.00    +0.000 C 
ENDBRANCH   2  19
BRANCH   4  22
ATOM     22  C   UNL     1      -0.285  15.014  20.211  0.00  0.00    +0.000 C 
ATOM     23  C   UNL     1      -0.332  15.753  18.872  0.00  0.00    +0.000 C 
ATOM     24  C   UNL     1      -1.130  15.749  21.258  0.00  0.00    +0.000 C 
ENDBRANCH   4  22
BRANCH   1  25
ATOM     25  C   UNL     1      -2.350   9.689  19.047  0.00  0.00    +0.000 C 
BRANCH  25  26
ATOM     26  C   UNL     1      -3.098   9.726  17.711  0.00  0.00    +0.000 C 
BRANCH  26  27
ATOM     27  C   UNL     1      -2.138  10.031  16.554  0.00  0.00    +0.000 C 
BRANCH  27  29
ATOM     28  C   UNL     1      -3.071  10.003  14.207  0.00  0.00    +0.000 C 
ATOM     29  C   UNL     1      -2.825  10.841  15.455  0.00  0.00    +0.000 C 
ENDBRANCH  27  29
ENDBRANCH  26  27
ENDBRANCH  25  26
ENDBRANCH   1  25
BRANCH   5  30
ATOM     30  C   UNL     1       1.721  12.858  19.785  0.00  0.00    +0.000 C 
BRANCH  30  31
ATOM     31  O   UNL     1       2.369  12.945  21.041  0.00  0.00    +0.000 OA
ATOM     32  H   UNL     1       3.173  13.469  20.925  0.00  0.00    +0.000 HD
ENDBRANCH  30  31
ENDBRANCH   5  30
TORSDOF 10
ENDMDL
MODEL 4
REMARK VINA RESULT:      -7.1      1.852      4.463
REMARK  Name = 
REMARK  15 active torsions:
REMARK  status: ('A' for Active; 'I' for Inactive)
REMARK    1  A    between atoms: C_1  and  C_2
REMARK    2  A    between atoms: C_2  and  C_3
REMARK    3  A    between atoms: C_3  and  C_4
REMARK    4  A    between atoms: C_4  and  C_5
REMARK    5  A    between atoms: C_5  and  C_6
REMARK    6  A    between atoms: C_7  and  C_8
REMARK    7  A    between atoms: C_8  and  C_9
REMARK    8  A    between atoms: C_8  and  C_10
REMARK    9  A    between atoms: C_12  and  C_13
REMARK   10  A    between atoms: C_13  and  C_14
REMARK   11  A    between atoms: C_13  and  C_15
REMARK   12  A    between atoms: C_16  and  C_17
REMARK   13  A    between atoms: C_17  and  O_18
REMARK   14  A    between atoms: C_19  and  C_20
REMARK   15  A    between atoms: C_23  and  C_24
REMARK                            x       y       z     vdW  Elec       q    Type
REMARK                         _______ _______ _______ _____ _____    ______ ____
ROOT
ATOM      1  C   UNL     1       2.557   4.677  18.043  0.00  0.00    +0.000 A 
ATOM      2  C   UNL     1       3.298   3.576  17.576  0.00  0.00    +0.000 A 
ATOM      3  N   UNL     1       4.473   3.724  16.920  0.00  0.00    +0.000 NA
ATOM      4  C   UNL     1       4.996   4.957  16.710  0.00  0.00    +0.000 A 
ATOM      5  C   UNL     1       4.342   6.136  17.133  0.00  0.00    +0.000 A 
ATOM      6  C   UNL     1       3.089   6.002  17.826  0.00  0.00    +0.000 A 
ENDROOT
BRANCH   6   7
ATOM      7  C   UNL     1       2.378   7.200  18.373  0.00  0.00    +0.000 A 
ATOM      8  C   UNL     1       2.227   7.419  19.754  0.00  0.00    +0.000 A 
ATOM      9  C   UNL     1       1.652   8.592  20.259  0.00  0.00    +0.000 A 
ATOM     10  C   UNL     1       1.075   9.541  19.408  0.00  0.00    +0.000 A 
ATOM     11  C   UNL     1       1.141   9.289  18.032  0.00  0.00    +0.000 A 
ATOM     12  C   UNL     1       1.825   8.176  17.530  0.00  0.00    +0.000 A 
BRANCH  10  13
ATOM     13  C   UNL     1       0.418  10.755  19.931  0.00  0.00    +0.000 A 
ATOM     14  C   UNL     1       1.142  11.726  20.640  0.00  0.00    +0.000 A 
ATOM     15  C   UNL     1       0.528  12.885  21.120  0.00  0.00    +0.000 A 
ATOM     16  C   UNL     1      -0.830  13.099  20.894  0.00  0.00    +0.000 A 
ATOM     17  C   UNL     1      -1.570  12.149  20.197  0.00  0.00    +0.000 A 
ATOM     18  C   UNL     1      -0.953  10.989  19.724  0.00  0.00    +0.000 A 
ENDBRANCH  10  13
ENDBRANCH   6   7
BRANCH   2  19
ATOM     19  C   UNL     1       2.817   2.129  17.706  0.00  0.00    +0.000 C 
ATOM     20  C   UNL     1       3.786   1.336  18.588  0.00  0.00    +0.000 C 
ATOM     21  C   UNL     1       1.392   2.001  18.253  0.00  0.00    +0.000 C 
ENDBRANCH   2  19
BRANCH   4  22
ATOM     22  C   UNL     1       6.398   4.944  16.103  0.00  0.00    +0.000 C 
ATOM     23  C   UNL     1       7.415   4.442  17.131  0.00  0.00    +0.000 C 
ATOM     24  C   UNL     1       6.494   4.123  14.811  0.00  0.00    +0.000 C 
ENDBRANCH   4  22
BRANCH   1  25
ATOM     25  C   UNL     1       1.264   4.428  18.814  0.00  0.00    +0.000 C 
BRANCH  25  26
ATOM     26  C   UNL     1       1.407   4.615  20.328  0.00  0.00    +0.000 C 
BRANCH  26  27
ATOM     27  C   UNL     1       2.790   4.156  20.808  0.00  0.00    +0.000 C 
BRANCH  27  29
ATOM     28  C   UNL     1       1.268   2.468  21.911  0.00  0.00    +0.000 C 
ATOM     29  C   UNL     1       2.707   2.831  21.566  0.00  0.00    +0.000 C 
ENDBRANCH  27  29
ENDBRANCH  26  27
ENDBRANCH  25  26
ENDBRANCH   1  25
BRANCH   5  30
ATOM     30  C   UNL     1       5.068   7.466  16.954  0.00  0.00    +0.000 C 
BRANCH  30  31
ATOM     31  O   UNL     1       6.310   7.601  17.622  0.00  0.00    +0.000 OA
ATOM     32  H   UNL     1       6.689   8.456  17.374  0.00  0.00    +0.000 HD
ENDBRANCH  30  31
ENDBRANCH   5  30
TORSDOF 10
ENDMDL
MODEL 5
REMARK VINA RESULT:      -7.1      1.861      4.548
REMARK  Name = 
REMARK  15 active torsions:
REMARK  status: ('A' for Active; 'I' for Inactive)
REMARK    1  A    between atoms: C_1  and  C_2
REMARK    2  A    between atoms: C_2  and  C_3
REMARK    3  A    between atoms: C_3  and  C_4
REMARK    4  A    between atoms: C_4  and  C_5
REMARK    5  A    between atoms: C_5  and  C_6
REMARK    6  A    between atoms: C_7  and  C_8
REMARK    7  A    between atoms: C_8  and  C_9
REMARK    8  A    between atoms: C_8  and  C_10
REMARK    9  A    between atoms: C_12  and  C_13
REMARK   10  A    between atoms: C_13  and  C_14
REMARK   11  A    between atoms: C_13  and  C_15
REMARK   12  A    between atoms: C_16  and  C_17
REMARK   13  A    between atoms: C_17  and  O_18
REMARK   14  A    between atoms: C_19  and  C_20
REMARK   15  A    between atoms: C_23  and  C_24
REMARK                            x       y       z     vdW  Elec       q    Type
REMARK                         _______ _______ _______ _____ _____    ______ ____
ROOT
ATOM      1  C   UNL     1       3.293   4.761  19.544  0.00  0.00    +0.000 A 
ATOM      2  C   UNL     1       4.165   3.685  19.295  0.00  0.00    +0.000 A 
ATOM      3  N   UNL     1       5.135   3.748  18.352  0.00  0.00    +0.000 NA
ATOM      4  C   UNL     1       5.316   4.875  17.622  0.00  0.00    +0.000 A 
ATOM      5  C   UNL     1       4.500   6.018  17.782  0.00  0.00    +0.000 A 
ATOM      6  C   UNL     1       3.460   5.971  18.775  0.00  0.00    +0.000 A 
ENDROOT
BRANCH   6   7
ATOM      7  C   UNL     1       2.608   7.168  19.057  0.00  0.00    +0.000 A 
ATOM      8  C   UNL     1       2.211   8.064  18.048  0.00  0.00    +0.000 A 
ATOM      9  C   UNL     1       1.329   9.122  18.301  0.00  0.00    +0.000 A 
ATOM     10  C   UNL     1       0.911   9.421  19.603  0.00  0.00    +0.000 A 
ATOM     11  C   UNL     1       1.372   8.587  20.629  0.00  0.00    +0.000 A 
ATOM     12  C   UNL     1       2.152   7.459  20.353  0.00  0.00    +0.000 A 
BRANCH  10  13
ATOM     13  C   UNL     1       0.026  10.567  19.889  0.00  0.00    +0.000 A 
ATOM     14  C   UNL     1      -0.548  11.320  18.853  0.00  0.00    +0.000 A 
ATOM     15  C   UNL     1      -1.402  12.393  19.120  0.00  0.00    +0.000 A 
ATOM     16  C   UNL     1      -1.703  12.732  20.437  0.00  0.00    +0.000 A 
ATOM     17  C   UNL     1      -1.144  12.003  21.482  0.00  0.00    +0.000 A 
ATOM     18  C   UNL     1      -0.287  10.934  21.210  0.00  0.00    +0.000 A 
ENDBRANCH  10  13
ENDBRANCH   6   7
BRANCH   2  19
ATOM     19  C   UNL     1       4.059   2.339  20.014  0.00  0.00    +0.000 C 
ATOM     20  C   UNL     1       3.807   1.223  18.995  0.00  0.00    +0.000 C 
ATOM     21  C   UNL     1       5.285   1.999  20.866  0.00  0.00    +0.000 C 
ENDBRANCH   2  19
BRANCH   4  22
ATOM     22  C   UNL     1       6.548   4.841  16.719  0.00  0.00    +0.000 C 
ATOM     23  C   UNL     1       7.790   4.474  17.533  0.00  0.00    +0.000 C 
ATOM     24  C   UNL     1       6.396   3.899  15.518  0.00  0.00    +0.000 C 
ENDBRANCH   4  22
BRANCH   1  25
ATOM     25  C   UNL     1       2.255   4.632  20.655  0.00  0.00    +0.000 C 
BRANCH  25  26
ATOM     26  C   UNL     1       0.845   4.320  20.143  0.00  0.00    +0.000 C 
BRANCH  26  27
ATOM     27  C   UNL     1       0.625   2.806  20.032  0.00  0.00    +0.000 C 
BRANCH  27  29
ATOM     28  C   UNL     1       1.017   3.469  17.626  0.00  0.00    +0.000 C 
ATOM     29  C   UNL     1       0.603   2.349  18.574  0.00  0.00    +0.000 C 
ENDBRANCH  27  29
ENDBRANCH  26  27
ENDBRANCH  25  26
ENDBRANCH   1  25
BRANCH   5  30
ATOM     30  C   UNL     1       4.859   7.275  16.997  0.00  0.00    +0.000 C 
BRANCH  30  31
ATOM     31  O   UNL     1       4.855   7.160  15.585  0.00  0.00    +0.000 OA
ATOM     32  H   UNL     1       4.540   6.274  15.361  0.00  0.00    +0.000 HD
ENDBRANCH  30  31
ENDBRANCH   5  30
TORSDOF 10
ENDMDL
MODEL 6
REMARK VINA RESULT:      -7.1      1.199      1.625
REMARK  Name = 
REMARK  15 active torsions:
REMARK  status: ('A' for Active; 'I' for Inactive)
REMARK    1  A    between atoms: C_1  and  C_2
REMARK    2  A    between atoms: C_2  and  C_3
REMARK    3  A    between atoms: C_3  and  C_4
REMARK    4  A    between atoms: C_4  and  C_5
REMARK    5  A    between atoms: C_5  and  C_6
REMARK    6  A    between atoms: C_7  and  C_8
REMARK    7  A    between atoms: C_8  and  C_9
REMARK    8  A    between atoms: C_8  and  C_10
REMARK    9  A    between atoms: C_12  and  C_13
REMARK   10  A    between atoms: C_13  and  C_14
REMARK   11  A    between atoms: C_13  and  C_15
REMARK   12  A    between atoms: C_16  and  C_17
REMARK   13  A    between atoms: C_17  and  O_18
REMARK   14  A    between atoms: C_19  and  C_20
REMARK   15  A    between atoms: C_23  and  C_24
REMARK                            x       y       z     vdW  Elec       q    Type
REMARK                         _______ _______ _______ _____ _____    ______ ____
ROOT
ATOM      1  C   UNL     1       4.233   5.963  17.135  0.00  0.00    +0.000 A 
ATOM      2  C   UNL     1       4.765   4.800  16.549  0.00  0.00    +0.000 A 
ATOM      3  N   UNL     1       4.308   3.563  16.859  0.00  0.00    +0.000 NA
ATOM      4  C   UNL     1       3.292   3.404  17.742  0.00  0.00    +0.000 A 
ATOM      5  C   UNL     1       2.682   4.498  18.396  0.00  0.00    +0.000 A 
ATOM      6  C   UNL     1       3.155   5.821  18.085  0.00  0.00    +0.000 A 
ENDROOT
BRANCH   6   7
ATOM      7  C   UNL     1       2.505   7.032  18.676  0.00  0.00    +0.000 A 
ATOM      8  C   UNL     1       2.064   8.109  17.887  0.00  0.00    +0.000 A 
ATOM      9  C   UNL     1       1.364   9.191  18.436  0.00  0.00    +0.000 A 
ATOM     10  C   UNL     1       1.193   9.317  19.819  0.00  0.00    +0.000 A 
ATOM     11  C   UNL     1       1.707   8.291  20.622  0.00  0.00    +0.000 A 
ATOM     12  C   UNL     1       2.295   7.153  20.059  0.00  0.00    +0.000 A 
BRANCH  10  13
ATOM     13  C   UNL     1       0.505  10.480  20.413  0.00  0.00    +0.000 A 
ATOM     14  C   UNL     1      -0.065  10.412  21.694  0.00  0.00    +0.000 A 
ATOM     15  C   UNL     1      -0.700  11.516  22.268  0.00  0.00    +0.000 A 
ATOM     16  C   UNL     1      -0.772  12.718  21.569  0.00  0.00    +0.000 A 
ATOM     17  C   UNL     1      -0.217  12.811  20.296  0.00  0.00    +0.000 A 
ATOM     18  C   UNL     1       0.412  11.703  19.724  0.00  0.00    +0.000 A 
ENDBRANCH  10  13
ENDBRANCH   6   7
BRANCH   2  19
ATOM     19  C   UNL     1       5.936   4.819  15.564  0.00  0.00    +0.000 C 
ATOM     20  C   UNL     1       7.154   4.132  16.190  0.00  0.00    +0.000 C 
ATOM     21  C   UNL     1       5.613   4.177  14.212  0.00  0.00    +0.000 C 
ENDBRANCH   2  19
BRANCH   4  22
ATOM     22  C   UNL     1       2.790   1.966  17.861  0.00  0.00    +0.000 C 
ATOM     23  C   UNL     1       3.707   1.160  18.783  0.00  0.00    +0.000 C 
ATOM     24  C   UNL     1       1.334   1.868  18.335  0.00  0.00    +0.000 C 
ENDBRANCH   4  22
BRANCH   1  25
ATOM     25  C   UNL     1       4.769   7.324  16.699  0.00  0.00    +0.000 C 
BRANCH  25  26
ATOM     26  C   UNL     1       5.797   7.917  17.668  0.00  0.00    +0.000 C 
BRANCH  26  27
ATOM     27  C   UNL     1       7.223   7.527  17.259  0.00  0.00    +0.000 C 
BRANCH  27  29
ATOM     28  C   UNL     1       7.506   5.864  19.139  0.00  0.00    +0.000 C 
ATOM     29  C   UNL     1       8.060   7.116  18.470  0.00  0.00    +0.000 C 
ENDBRANCH  27  29
ENDBRANCH  26  27
ENDBRANCH  25  26
ENDBRANCH   1  25
BRANCH   5  30
ATOM     30  C   UNL     1       1.470   4.224  19.281  0.00  0.00    +0.000 C 
BRANCH  30  31
ATOM     31  O   UNL     1       1.729   4.004  20.655  0.00  0.00    +0.000 OA
ATOM     32  H   UNL     1       2.311   4.712  20.965  0.00  0.00    +0.000 HD
ENDBRANCH  30  31
ENDBRANCH   5  30
TORSDOF 10
ENDMDL
MODEL 7
REMARK VINA RESULT:      -7.0      3.346      9.187
REMARK  Name = 
REMARK  15 active torsions:
REMARK  status: ('A' for Active; 'I' for Inactive)
REMARK    1  A    between atoms: C_1  and  C_2
REMARK    2  A    between atoms: C_2  and  C_3
REMARK    3  A    between atoms: C_3  and  C_4
REMARK    4  A    between atoms: C_4  and  C_5
REMARK    5  A    between atoms: C_5  and  C_6
REMARK    6  A    between atoms: C_7  and  C_8
REMARK    7  A    between atoms: C_8  and  C_9
REMARK    8  A    between atoms: C_8  and  C_10
REMARK    9  A    between atoms: C_12  and  C_13
REMARK   10  A    between atoms: C_13  and  C_14
REMARK   11  A    between atoms: C_13  and  C_15
REMARK   12  A    between atoms: C_16  and  C_17
REMARK   13  A    between atoms: C_17  and  O_18
REMARK   14  A    between atoms: C_19  and  C_20
REMARK   15  A    between atoms: C_23  and  C_24
REMARK                            x       y       z     vdW  Elec       q    Type
REMARK                         _______ _______ _______ _____ _____    ______ ____
ROOT
ATOM      1  C   UNL     1      -0.487  12.135  20.185  0.00  0.00    +0.000 A 
ATOM      2  C   UNL     1      -1.537  13.045  20.405  0.00  0.00    +0.000 A 
ATOM      3  N   UNL     1      -2.756  12.889  19.838  0.00  0.00    +0.000 NA
ATOM      4  C   UNL     1      -3.018  11.821  19.046  0.00  0.00    +0.000 A 
ATOM      5  C   UNL     1      -2.042  10.842  18.752  0.00  0.00    +0.000 A 
ATOM      6  C   UNL     1      -0.737  10.992  19.340  0.00  0.00    +0.000 A 
ENDROOT
BRANCH   6   7
ATOM      7  C   UNL     1       0.323   9.955  19.139  0.00  0.00    +0.000 A 
ATOM      8  C   UNL     1       0.736   9.092  20.170  0.00  0.00    +0.000 A 
ATOM      9  C   UNL     1       1.653   8.057  19.946  0.00  0.00    +0.000 A 
ATOM     10  C   UNL     1       2.307   7.921  18.717  0.00  0.00    +0.000 A 
ATOM     11  C   UNL     1       1.967   8.832  17.709  0.00  0.00    +0.000 A 
ATOM     12  C   UNL     1       0.961   9.785  17.900  0.00  0.00    +0.000 A 
BRANCH  10  13
ATOM     13  C   UNL     1       3.315   6.868  18.487  0.00  0.00    +0.000 A 
ATOM     14  C   UNL     1       3.469   5.799  19.385  0.00  0.00    +0.000 A 
ATOM     15  C   UNL     1       4.409   4.790  19.161  0.00  0.00    +0.000 A 
ATOM     16  C   UNL     1       5.214   4.829  18.025  0.00  0.00    +0.000 A 
ATOM     17  C   UNL     1       5.083   5.880  17.122  0.00  0.00    +0.000 A 
ATOM     18  C   UNL     1       4.146   6.889  17.353  0.00  0.00    +0.000 A 
ENDBRANCH  10  13
ENDBRANCH   6   7
BRANCH   2  19
ATOM     19  C   UNL     1      -1.381  14.316  21.244  0.00  0.00    +0.000 C 
ATOM     20  C   UNL     1      -1.435  15.549  20.338  0.00  0.00    +0.000 C 
ATOM     21  C   UNL     1      -2.418  14.444  22.363  0.00  0.00    +0.000 C 
ENDBRANCH   2  19
BRANCH   4  22
ATOM     22  C   UNL     1      -4.480  11.706  18.617  0.00  0.00    +0.000 C 
ATOM     23  C   UNL     1      -5.353  12.636  19.462  0.00  0.00    +0.000 C 
ATOM     24  C   UNL     1      -4.698  11.976  17.123  0.00  0.00    +0.000 C 
ENDBRANCH   4  22
BRANCH   1  25
ATOM     25  C   UNL     1       0.845  12.354  20.896  0.00  0.00    +0.000 C 
BRANCH  25  26
ATOM     26  C   UNL     1       1.713  13.440  20.253  0.00  0.00    +0.000 C 
BRANCH  26  27
ATOM     27  C   UNL     1       2.327  12.944  18.938  0.00  0.00    +0.000 C 
BRANCH  27  29
ATOM     28  C   UNL     1       3.490  15.160  19.276  0.00  0.00    +0.000 C 
ATOM     29  C   UNL     1       3.269  13.984  18.333  0.00  0.00    +0.000 C 
ENDBRANCH  27  29
ENDBRANCH  26  27
ENDBRANCH  25  26
ENDBRANCH   1  25
BRANCH   5  30
ATOM     30  C   UNL     1      -2.468   9.618  17.948  0.00  0.00    +0.000 C 
BRANCH  30  31
ATOM     31  O   UNL     1      -2.223   9.662  16.554  0.00  0.00    +0.000 OA
ATOM     32  H   UNL     1      -1.315   9.366  16.403  0.00  0.00    +0.000 HD
ENDBRANCH  30  31
ENDBRANCH   5  30
TORSDOF 10
ENDMDL
MODEL 8
REMARK VINA RESULT:      -7.0      3.373      9.337
REMARK  Name = 
REMARK  15 active torsions:
REMARK  status: ('A' for Active; 'I' for Inactive)
REMARK    1  A    between atoms: C_1  and  C_2
REMARK    2  A    between atoms: C_2  and  C_3
REMARK    3  A    between atoms: C_3  and  C_4
REMARK    4  A    between atoms: C_4  and  C_5
REMARK    5  A    between atoms: C_5  and  C_6
REMARK    6  A    between atoms: C_7  and  C_8
REMARK    7  A    between atoms: C_8  and  C_9
REMARK    8  A    between atoms: C_8  and  C_10
REMARK    9  A    between atoms: C_12  and  C_13
REMARK   10  A    between atoms: C_13  and  C_14
REMARK   11  A    between atoms: C_13  and  C_15
REMARK   12  A    between atoms: C_16  and  C_17
REMARK   13  A    between atoms: C_17  and  O_18
REMARK   14  A    between atoms: C_19  and  C_20
REMARK   15  A    between atoms: C_23  and  C_24
REMARK                            x       y       z     vdW  Elec       q    Type
REMARK                         _______ _______ _______ _____ _____    ______ ____
ROOT
ATOM      1  C   UNL     1      -0.641  12.013  20.297  0.00  0.00    +0.000 A 
ATOM      2  C   UNL     1      -1.688  12.919  20.548  0.00  0.00    +0.000 A 
ATOM      3  N   UNL     1      -2.896  12.810  19.946  0.00  0.00    +0.000 NA
ATOM      4  C   UNL     1      -3.149  11.794  19.085  0.00  0.00    +0.000 A 
ATOM      5  C   UNL     1      -2.175  10.825  18.753  0.00  0.00    +0.000 A 
ATOM      6  C   UNL     1      -0.882  10.925  19.378  0.00  0.00    +0.000 A 
ENDROOT
BRANCH   6   7
ATOM      7  C   UNL     1       0.173   9.892  19.138  0.00  0.00    +0.000 A 
ATOM      8  C   UNL     1       0.818   9.751  17.897  0.00  0.00    +0.000 A 
ATOM      9  C   UNL     1       1.877   8.852  17.711  0.00  0.00    +0.000 A 
ATOM     10  C   UNL     1       2.249   7.953  18.716  0.00  0.00    +0.000 A 
ATOM     11  C   UNL     1       1.552   8.026  19.928  0.00  0.00    +0.000 A 
ATOM     12  C   UNL     1       0.580   9.008  20.150  0.00  0.00    +0.000 A 
BRANCH  10  13
ATOM     13  C   UNL     1       3.326   6.964  18.512  0.00  0.00    +0.000 A 
ATOM     14  C   UNL     1       3.542   5.924  19.430  0.00  0.00    +0.000 A 
ATOM     15  C   UNL     1       4.547   4.975  19.231  0.00  0.00    +0.000 A 
ATOM     16  C   UNL     1       5.358   5.046  18.101  0.00  0.00    +0.000 A 
ATOM     17  C   UNL     1       5.167   6.070  17.178  0.00  0.00    +0.000 A 
ATOM     18  C   UNL     1       4.164   7.020  17.384  0.00  0.00    +0.000 A 
ENDBRANCH  10  13
ENDBRANCH   6   7
BRANCH   2  19
ATOM     19  C   UNL     1      -1.540  14.134  21.466  0.00  0.00    +0.000 C 
ATOM     20  C   UNL     1      -2.169  15.365  20.807  0.00  0.00    +0.000 C 
ATOM     21  C   UNL     1      -2.137  13.927  22.861  0.00  0.00    +0.000 C 
ENDBRANCH   2  19
BRANCH   4  22
ATOM     22  C   UNL     1      -4.601  11.720  18.618  0.00  0.00    +0.000 C 
ATOM     23  C   UNL     1      -5.476  12.649  19.462  0.00  0.00    +0.000 C 
ATOM     24  C   UNL     1      -4.776  12.029  17.125  0.00  0.00    +0.000 C 
ENDBRANCH   4  22
BRANCH   1  25
ATOM     25  C   UNL     1       0.676  12.175  21.049  0.00  0.00    +0.000 C 
BRANCH  25  26
ATOM     26  C   UNL     1       1.744  12.936  20.258  0.00  0.00    +0.000 C 
BRANCH  26  27
ATOM     27  C   UNL     1       2.092  14.263  20.944  0.00  0.00    +0.000 C 
BRANCH  27  29
ATOM     28  C   UNL     1       0.982  15.066  18.822  0.00  0.00    +0.000 C 
ATOM     29  C   UNL     1       1.841  15.454  20.019  0.00  0.00    +0.000 C 
ENDBRANCH  27  29
ENDBRANCH  26  27
ENDBRANCH  25  26
ENDBRANCH   1  25
BRANCH   5  30
ATOM     30  C   UNL     1      -2.594   9.656  17.867  0.00  0.00    +0.000 C 
BRANCH  30  31
ATOM     31  O   UNL     1      -2.286   9.767  16.490  0.00  0.00    +0.000 OA
ATOM     32  H   UNL     1      -3.111   9.943  16.015  0.00  0.00    +0.000 HD
ENDBRANCH  30  31
ENDBRANCH   5  30
TORSDOF 10
ENDMDL
MODEL 9
REMARK VINA RESULT:      -7.0      7.214      9.979
REMARK  Name = 
REMARK  15 active torsions:
REMARK  status: ('A' for Active; 'I' for Inactive)
REMARK    1  A    between atoms: C_1  and  C_2
REMARK    2  A    between atoms: C_2  and  C_3
REMARK    3  A    between atoms: C_3  and  C_4
REMARK    4  A    between atoms: C_4  and  C_5
REMARK    5  A    between atoms: C_5  and  C_6
REMARK    6  A    between atoms: C_7  and  C_8
REMARK    7  A    between atoms: C_8  and  C_9
REMARK    8  A    between atoms: C_8  and  C_10
REMARK    9  A    between atoms: C_12  and  C_13
REMARK   10  A    between atoms: C_13  and  C_14
REMARK   11  A    between atoms: C_13  and  C_15
REMARK   12  A    between atoms: C_16  and  C_17
REMARK   13  A    between atoms: C_17  and  O_18
REMARK   14  A    between atoms: C_19  and  C_20
REMARK   15  A    between atoms: C_23  and  C_24
REMARK                            x       y       z     vdW  Elec       q    Type
REMARK                         _______ _______ _______ _____ _____    ______ ____
ROOT
ATOM      1  C   UNL     1      -2.326  12.367  19.136  0.00  0.00    +0.000 A 
ATOM      2  C   UNL     1      -2.982  11.674  18.103  0.00  0.00    +0.000 A 
ATOM      3  N   UNL     1      -4.311  11.415  18.139  0.00  0.00    +0.000 NA
ATOM      4  C   UNL     1      -5.069  11.842  19.178  0.00  0.00    +0.000 A 
ATOM      5  C   UNL     1      -4.521  12.546  20.274  0.00  0.00    +0.000 A 
ATOM      6  C   UNL     1      -3.110  12.828  20.258  0.00  0.00    +0.000 A 
ENDROOT
BRANCH   6   7
ATOM      7  C   UNL     1      -2.472  13.637  21.343  0.00  0.00    +0.000 A 
ATOM      8  C   UNL     1      -2.342  15.034  21.261  0.00  0.00    +0.000 A 
ATOM      9  C   UNL     1      -1.839  15.795  22.324  0.00  0.00    +0.000 A 
ATOM     10  C   UNL     1      -1.312  15.184  23.467  0.00  0.00    +0.000 A 
ATOM     11  C   UNL     1      -1.357  13.785  23.521  0.00  0.00    +0.000 A 
ATOM     12  C   UNL     1      -1.973  13.038  22.511  0.00  0.00    +0.000 A 
BRANCH  10  13
ATOM     13  C   UNL     1      -0.729  15.972  24.570  0.00  0.00    +0.000 A 
ATOM     14  C   UNL     1      -1.115  15.755  25.903  0.00  0.00    +0.000 A 
ATOM     15  C   UNL     1      -0.551  16.485  26.952  0.00  0.00    +0.000 A 
ATOM     16  C   UNL     1       0.418  17.450  26.686  0.00  0.00    +0.000 A 
ATOM     17  C   UNL     1       0.815  17.686  25.373  0.00  0.00    +0.000 A 
ATOM     18  C   UNL     1       0.244  16.957  24.328  0.00  0.00    +0.000 A 
ENDBRANCH  10  13
ENDBRANCH   6   7
BRANCH   2  19
ATOM     19  C   UNL     1      -2.253  11.099  16.886  0.00  0.00    +0.000 C 
ATOM     20  C   UNL     1      -1.685   9.718  17.224  0.00  0.00    +0.000 C 
ATOM     21  C   UNL     1      -3.127  11.011  15.631  0.00  0.00    +0.000 C 
ENDBRANCH   2  19
BRANCH   4  22
ATOM     22  C   UNL     1      -6.568  11.611  18.992  0.00  0.00    +0.000 C 
ATOM     23  C   UNL     1      -7.056  12.309  17.720  0.00  0.00    +0.000 C 
ATOM     24  C   UNL     1      -6.957  10.128  18.972  0.00  0.00    +0.000 C 
ENDBRANCH   4  22
BRANCH   1  25
ATOM     25  C   UNL     1      -0.835  12.662  19.001  0.00  0.00    +0.000 C 
BRANCH  25  26
ATOM     26  C   UNL     1       0.055  11.691  19.784  0.00  0.00    +0.000 C 
BRANCH  26  27
ATOM     27  C   UNL     1       1.273  12.416  20.369  0.00  0.00    +0.000 C 
BRANCH  27  29
ATOM     28  C   UNL     1       1.717  14.609  21.541  0.00  0.00    +0.000 C 
ATOM     29  C   UNL     1       1.097  13.933  20.324  0.00  0.00    +0.000 C 
ENDBRANCH  27  29
ENDBRANCH  26  27
ENDBRANCH  25  26
ENDBRANCH   1  25
BRANCH   5  30
ATOM     30  C   UNL     1      -5.476  13.086  21.334  0.00  0.00    +0.000 C 
BRANCH  30  31
ATOM     31  O   UNL     1      -5.595  12.325  22.522  0.00  0.00    +0.000 OA
ATOM     32  H   UNL     1      -5.401  11.402  22.304  0.00  0.00    +0.000 HD
ENDBRANCH  30  31
ENDBRANCH   5  30
TORSDOF 10
ENDMDL
