MODEL 1
REMARK VINA RESULT:      -9.6      0.000      0.000
REMARK  Name = 
REMARK  3 active torsions:
REMARK  status: ('A' for Active; 'I' for Inactive)
REMARK    1  A    between atoms: C_1  and  C_2
REMARK    2  A    between atoms: C_9  and  O_10
REMARK    3  A    between atoms: C_19  and  C_20
REMARK                            x       y       z     vdW  Elec       q    Type
REMARK                         _______ _______ _______ _____ _____    ______ ____
ROOT
ATOM      1  C   UNL     1       1.463   4.026  18.381  0.00  0.00    +0.000 C 
ATOM      2  C   UNL     1       2.743   4.585  19.034  0.00  0.00    +0.000 C 
ATOM      3  C   UNL     1       2.542   4.807  20.528  0.00  0.00    +0.000 C 
ATOM      4  C   UNL     1       1.621   6.012  20.799  0.00  0.00    +0.000 C 
ATOM      5  C   UNL     1       2.068   7.306  20.066  0.00  0.00    +0.000 C 
ATOM      6  C   UNL     1       1.186   8.525  20.305  0.00  0.00    +0.000 A 
ATOM      7  C   UNL     1       0.572   8.736  21.553  0.00  0.00    +0.000 A 
ATOM      8  C   UNL     1      -0.174   9.890  21.811  0.00  0.00    +0.000 A 
ATOM      9  C   UNL     1      -0.303  10.851  20.822  0.00  0.00    +0.000 A 
ATOM     10  C   UNL     1       0.299  10.677  19.582  0.00  0.00    +0.000 A 
ATOM     11  C   UNL     1       1.060   9.527  19.317  0.00  0.00    +0.000 A 
ATOM     12  C   UNL     1       1.679   9.389  17.948  0.00  0.00    +0.000 C 
ATOM     13  C   UNL     1       2.766   8.322  17.868  0.00  0.00    +0.000 C 
ATOM     14  C   UNL     1       2.288   7.038  18.545  0.00  0.00    +0.000 C 
ATOM     15  C   UNL     1       3.293   5.892  18.415  0.00  0.00    +0.000 C 
ATOM     16  C   UNL     1       3.820   5.494  17.035  0.00  0.00    +0.000 C 
ATOM     17  C   UNL     1       4.486   4.177  17.352  0.00  0.00    +0.000 C 
ATOM     18  C   UNL     1       5.449   3.505  16.710  0.00  0.00    +0.000 C 
ATOM     19  C   UNL     1       3.883   3.670  18.634  0.00  0.00    +0.000 C 
ATOM     20  O   UNL     1       4.238   2.660  19.219  0.00  0.00    +0.000 OA
ENDROOT
BRANCH  18  21
ATOM     21  C   UNL     1       6.019   3.956  15.441  0.00  0.00    +0.000 A 
ATOM     22  C   UNL     1       5.544   3.470  14.223  0.00  0.00    +0.000 A 
ATOM     23  C   UNL     1       6.166   3.900  13.062  0.00  0.00    +0.000 A 
ATOM     24  N   UNL     1       7.197   4.772  13.038  0.00  0.00    +0.000 NA
ATOM     25  C   UNL     1       7.621   5.243  14.231  0.00  0.00    +0.000 A 
ATOM     26  C   UNL     1       7.073   4.868  15.446  0.00  0.00    +0.000 A 
ENDBRANCH  18  21
BRANCH   9  27
ATOM     27  O   UNL     1      -1.012  11.998  21.032  0.00  0.00    +0.000 OA
ATOM     28  H   UNL     1      -0.939  12.551  20.236  0.00  0.00    +0.000 HD
ENDBRANCH   9  27
TORSDOF 2
ENDMDL
MODEL 2
REMARK VINA RESULT:      -7.3      3.938      5.421
REMARK  Name = 
REMARK  3 active torsions:
REMARK  status: ('A' for Active; 'I' for Inactive)
REMARK    1  A    between atoms: C_1  and  C_2
REMARK    2  A    between atoms: C_9  and  O_10
REMARK    3  A    between atoms: C_19  and  C_20
REMARK                            x       y       z     vdW  Elec       q    Type
REMARK                         _______ _______ _______ _____ _____    ______ ____
ROOT
ATOM      1  C   UNL     1       7.512   4.317  17.565  0.00  0.00    +0.000 C 
ATOM      2  C   UNL     1       6.341   5.055  16.886  0.00  0.00    +0.000 C 
ATOM      3  C   UNL     1       5.789   6.152  17.790  0.00  0.00    +0.000 C 
ATOM      4  C   UNL     1       5.008   5.561  18.979  0.00  0.00    +0.000 C 
ATOM      5  C   UNL     1       3.916   4.542  18.555  0.00  0.00    +0.000 C 
ATOM      6  C   UNL     1       3.117   3.931  19.699  0.00  0.00    +0.000 A 
ATOM      7  C   UNL     1       2.805   4.688  20.844  0.00  0.00    +0.000 A 
ATOM      8  C   UNL     1       2.006   4.166  21.865  0.00  0.00    +0.000 A 
ATOM      9  C   UNL     1       1.501   2.882  21.745  0.00  0.00    +0.000 A 
ATOM     10  C   UNL     1       1.782   2.113  20.623  0.00  0.00    +0.000 A 
ATOM     11  C   UNL     1       2.575   2.632  19.586  0.00  0.00    +0.000 A 
ATOM     12  C   UNL     1       2.856   1.744  18.399  0.00  0.00    +0.000 C 
ATOM     13  C   UNL     1       3.397   2.492  17.184  0.00  0.00    +0.000 C 
ATOM     14  C   UNL     1       4.509   3.449  17.613  0.00  0.00    +0.000 C 
ATOM     15  C   UNL     1       5.164   4.161  16.428  0.00  0.00    +0.000 C 
ATOM     16  C   UNL     1       5.712   3.343  15.256  0.00  0.00    +0.000 C 
ATOM     17  C   UNL     1       6.517   4.392  14.528  0.00  0.00    +0.000 C 
ATOM     18  C   UNL     1       6.923   4.457  13.254  0.00  0.00    +0.000 C 
ATOM     19  C   UNL     1       6.820   5.486  15.515  0.00  0.00    +0.000 C 
ATOM     20  O   UNL     1       7.399   6.526  15.247  0.00  0.00    +0.000 OA
ENDROOT
BRANCH  18  21
ATOM     21  C   UNL     1       6.677   3.387  12.289  0.00  0.00    +0.000 A 
ATOM     22  C   UNL     1       5.381   2.975  11.983  0.00  0.00    +0.000 A 
ATOM     23  C   UNL     1       5.223   1.918  11.100  0.00  0.00    +0.000 A 
ATOM     24  N   UNL     1       6.250   1.271  10.509  0.00  0.00    +0.000 NA
ATOM     25  C   UNL     1       7.494   1.706  10.808  0.00  0.00    +0.000 A 
ATOM     26  C   UNL     1       7.756   2.745  11.684  0.00  0.00    +0.000 A 
ENDBRANCH  18  21
BRANCH   9  27
ATOM     27  O   UNL     1       0.707   2.336  22.711  0.00  0.00    +0.000 OA
ATOM     28  H   UNL     1       1.255   1.751  23.260  0.00  0.00    +0.000 HD
ENDBRANCH   9  27
TORSDOF 2
ENDMDL
MODEL 3
REMARK VINA RESULT:      -7.3      9.668     12.631
REMARK  Name = 
REMARK  3 active torsions:
REMARK  status: ('A' for Active; 'I' for Inactive)
REMARK    1  A    between atoms: C_1  and  C_2
REMARK    2  A    between atoms: C_9  and  O_10
REMARK    3  A    between atoms: C_19  and  C_20
REMARK                            x       y       z     vdW  Elec       q    Type
REMARK                         _______ _______ _______ _____ _____    ______ ____
ROOT
ATOM      1  C   UNL     1       6.704  15.185  23.106  0.00  0.00    +0.000 C 
ATOM      2  C   UNL     1       7.948  14.775  23.919  0.00  0.00    +0.000 C 
ATOM      3  C   UNL     1       9.150  15.638  23.551  0.00  0.00    +0.000 C 
ATOM      4  C   UNL     1       9.685  15.288  22.149  0.00  0.00    +0.000 C 
ATOM      5  C   UNL     1       9.967  13.773  21.957  0.00  0.00    +0.000 C 
ATOM      6  C   UNL     1      10.499  13.380  20.585  0.00  0.00    +0.000 A 
ATOM      7  C   UNL     1      11.362  14.235  19.875  0.00  0.00    +0.000 A 
ATOM      8  C   UNL     1      11.920  13.853  18.652  0.00  0.00    +0.000 A 
ATOM      9  C   UNL     1      11.628  12.603  18.132  0.00  0.00    +0.000 A 
ATOM     10  C   UNL     1      10.787  11.732  18.813  0.00  0.00    +0.000 A 
ATOM     11  C   UNL     1      10.229  12.102  20.048  0.00  0.00    +0.000 A 
ATOM     12  C   UNL     1       9.314  11.117  20.733  0.00  0.00    +0.000 C 
ATOM     13  C   UNL     1       9.056  11.435  22.202  0.00  0.00    +0.000 C 
ATOM     14  C   UNL     1       8.726  12.919  22.365  0.00  0.00    +0.000 C 
ATOM     15  C   UNL     1       8.360  13.288  23.804  0.00  0.00    +0.000 C 
ATOM     16  C   UNL     1       7.265  12.509  24.535  0.00  0.00    +0.000 C 
ATOM     17  C   UNL     1       7.034  13.396  25.734  0.00  0.00    +0.000 C 
ATOM     18  C   UNL     1       6.512  13.126  26.936  0.00  0.00    +0.000 C 
ATOM     19  C   UNL     1       7.544  14.766  25.379  0.00  0.00    +0.000 C 
ATOM     20  O   UNL     1       7.576  15.717  26.143  0.00  0.00    +0.000 OA
ENDROOT
BRANCH  18  21
ATOM     21  C   UNL     1       5.972  11.814  27.289  0.00  0.00    +0.000 A 
ATOM     22  C   UNL     1       4.709  11.413  26.854  0.00  0.00    +0.000 A 
ATOM     23  C   UNL     1       4.237  10.178  27.270  0.00  0.00    +0.000 A 
ATOM     24  N   UNL     1       4.933   9.334  28.062  0.00  0.00    +0.000 NA
ATOM     25  C   UNL     1       6.162   9.739  28.449  0.00  0.00    +0.000 A 
ATOM     26  C   UNL     1       6.718  10.957  28.096  0.00  0.00    +0.000 A 
ENDBRANCH  18  21
BRANCH   9  27
ATOM     27  O   UNL     1      12.159  12.183  16.947  0.00  0.00    +0.000 OA
ATOM     28  H   UNL     1      12.338  11.230  17.016  0.00  0.00    +0.000 HD
ENDBRANCH   9  27
TORSDOF 2
ENDMDL
MODEL 4
REMARK VINA RESULT:      -7.0      4.280      9.896
REMARK  Name = 
REMARK  3 active torsions:
REMARK  status: ('A' for Active; 'I' for Inactive)
REMARK    1  A    between atoms: C_1  and  C_2
REMARK    2  A    between atoms: C_9  and  O_10
REMARK    3  A    between atoms: C_19  and  C_20
REMARK                            x       y       z     vdW  Elec       q    Type
REMARK                         _______ _______ _______ _____ _____    ______ ____
ROOT
ATOM      1  C   UNL     1      -1.144  10.382  17.851  0.00  0.00    +0.000 C 
ATOM      2  C   UNL     1       0.066  10.995  18.584  0.00  0.00    +0.000 C 
ATOM      3  C   UNL     1       1.342  10.830  17.766  0.00  0.00    +0.000 C 
ATOM      4  C   UNL     1       1.817   9.364  17.757  0.00  0.00    +0.000 C 
ATOM      5  C   UNL     1       1.944   8.748  19.177  0.00  0.00    +0.000 C 
ATOM      6  C   UNL     1       2.412   7.299  19.217  0.00  0.00    +0.000 A 
ATOM      7  C   UNL     1       3.345   6.818  18.279  0.00  0.00    +0.000 A 
ATOM      8  C   UNL     1       3.843   5.514  18.353  0.00  0.00    +0.000 A 
ATOM      9  C   UNL     1       3.419   4.681  19.375  0.00  0.00    +0.000 A 
ATOM     10  C   UNL     1       2.507   5.128  20.321  0.00  0.00    +0.000 A 
ATOM     11  C   UNL     1       2.009   6.441  20.263  0.00  0.00    +0.000 A 
ATOM     12  C   UNL     1       1.010   6.864  21.312  0.00  0.00    +0.000 C 
ATOM     13  C   UNL     1       0.809   8.375  21.396  0.00  0.00    +0.000 C 
ATOM     14  C   UNL     1       0.631   8.956  19.994  0.00  0.00    +0.000 C 
ATOM     15  C   UNL     1       0.326  10.455  20.010  0.00  0.00    +0.000 C 
ATOM     16  C   UNL     1      -0.830  10.988  20.860  0.00  0.00    +0.000 C 
ATOM     17  C   UNL     1      -0.952  12.395  20.328  0.00  0.00    +0.000 C 
ATOM     18  C   UNL     1      -1.479  13.496  20.874  0.00  0.00    +0.000 C 
ATOM     19  C   UNL     1      -0.314  12.412  18.965  0.00  0.00    +0.000 C 
ATOM     20  O   UNL     1      -0.175  13.407  18.273  0.00  0.00    +0.000 OA
ENDROOT
BRANCH  18  21
ATOM     21  C   UNL     1      -2.141  13.494  22.178  0.00  0.00    +0.000 A 
ATOM     22  C   UNL     1      -3.290  12.736  22.402  0.00  0.00    +0.000 A 
ATOM     23  C   UNL     1      -3.897  12.823  23.645  0.00  0.00    +0.000 A 
ATOM     24  N   UNL     1      -3.435  13.589  24.656  0.00  0.00    +0.000 NA
ATOM     25  C   UNL     1      -2.309  14.295  24.418  0.00  0.00    +0.000 A 
ATOM     26  C   UNL     1      -1.635  14.284  23.208  0.00  0.00    +0.000 A 
ENDBRANCH  18  21
BRANCH   9  27
ATOM     27  O   UNL     1       3.887   3.404  19.493  0.00  0.00    +0.000 OA
ATOM     28  H   UNL     1       3.448   2.988  20.254  0.00  0.00    +0.000 HD
ENDBRANCH   9  27
TORSDOF 2
ENDMDL
MODEL 5
REMARK VINA RESULT:      -7.0      5.324     10.979
REMARK  Name = 
REMARK  3 active torsions:
REMARK  status: ('A' for Active; 'I' for Inactive)
REMARK    1  A    between atoms: C_1  and  C_2
REMARK    2  A    between atoms: C_9  and  O_10
REMARK    3  A    between atoms: C_19  and  C_20
REMARK                            x       y       z     vdW  Elec       q    Type
REMARK                         _______ _______ _______ _____ _____    ______ ____
ROOT
ATOM      1  C   UNL     1      -0.554  13.268  22.601  0.00  0.00    +0.000 C 
ATOM      2  C   UNL     1      -1.659  12.204  22.450  0.00  0.00    +0.000 C 
ATOM      3  C   UNL     1      -1.267  10.907  23.149  0.00  0.00    +0.000 C 
ATOM      4  C   UNL     1      -0.153  10.169  22.382  0.00  0.00    +0.000 C 
ATOM      5  C   UNL     1      -0.478   9.953  20.879  0.00  0.00    +0.000 C 
ATOM      6  C   UNL     1       0.596   9.226  20.080  0.00  0.00    +0.000 A 
ATOM      7  C   UNL     1       1.365   8.206  20.670  0.00  0.00    +0.000 A 
ATOM      8  C   UNL     1       2.298   7.477  19.927  0.00  0.00    +0.000 A 
ATOM      9  C   UNL     1       2.462   7.755  18.580  0.00  0.00    +0.000 A 
ATOM     10  C   UNL     1       1.711   8.749  17.966  0.00  0.00    +0.000 A 
ATOM     11  C   UNL     1       0.763   9.480  18.701  0.00  0.00    +0.000 A 
ATOM     12  C   UNL     1      -0.013  10.555  17.981  0.00  0.00    +0.000 C 
ATOM     13  C   UNL     1      -1.250  11.033  18.737  0.00  0.00    +0.000 C 
ATOM     14  C   UNL     1      -0.898  11.294  20.202  0.00  0.00    +0.000 C 
ATOM     15  C   UNL     1      -2.070  11.870  20.997  0.00  0.00    +0.000 C 
ATOM     16  C   UNL     1      -2.797  13.117  20.487  0.00  0.00    +0.000 C 
ATOM     17  C   UNL     1      -3.613  13.489  21.701  0.00  0.00    +0.000 C 
ATOM     18  C   UNL     1      -4.729  14.219  21.817  0.00  0.00    +0.000 C 
ATOM     19  C   UNL     1      -2.958  12.844  22.893  0.00  0.00    +0.000 C 
ATOM     20  O   UNL     1      -3.394  12.880  24.032  0.00  0.00    +0.000 OA
ENDROOT
BRANCH  18  21
ATOM     21  C   UNL     1      -5.358  14.889  20.681  0.00  0.00    +0.000 A 
ATOM     22  C   UNL     1      -6.205  14.199  19.814  0.00  0.00    +0.000 A 
ATOM     23  C   UNL     1      -6.724  14.883  18.726  0.00  0.00    +0.000 A 
ATOM     24  N   UNL     1      -6.468  16.182  18.462  0.00  0.00    +0.000 NA
ATOM     25  C   UNL     1      -5.662  16.831  19.329  0.00  0.00    +0.000 A 
ATOM     26  C   UNL     1      -5.086  16.235  20.439  0.00  0.00    +0.000 A 
ENDBRANCH  18  21
BRANCH   9  27
ATOM     27  O   UNL     1       3.352   7.062  17.813  0.00  0.00    +0.000 OA
ATOM     28  H   UNL     1       3.068   7.125  16.885  0.00  0.00    +0.000 HD
ENDBRANCH   9  27
TORSDOF 2
ENDMDL
MODEL 6
REMARK VINA RESULT:      -6.9      8.619      9.523
REMARK  Name = 
REMARK  3 active torsions:
REMARK  status: ('A' for Active; 'I' for Inactive)
REMARK    1  A    between atoms: C_1  and  C_2
REMARK    2  A    between atoms: C_9  and  O_10
REMARK    3  A    between atoms: C_19  and  C_20
REMARK                            x       y       z     vdW  Elec       q    Type
REMARK                         _______ _______ _______ _____ _____    ______ ____
ROOT
ATOM      1  C   UNL     1      11.594  11.885  20.194  0.00  0.00    +0.000 C 
ATOM      2  C   UNL     1      10.210  12.430  19.787  0.00  0.00    +0.000 C 
ATOM      3  C   UNL     1      10.183  13.953  19.845  0.00  0.00    +0.000 C 
ATOM      4  C   UNL     1      10.193  14.460  21.300  0.00  0.00    +0.000 C 
ATOM      5  C   UNL     1       9.091  13.818  22.185  0.00  0.00    +0.000 C 
ATOM      6  C   UNL     1       9.062  14.290  23.633  0.00  0.00    +0.000 A 
ATOM      7  C   UNL     1       9.382  15.620  23.962  0.00  0.00    +0.000 A 
ATOM      8  C   UNL     1       9.283  16.088  25.276  0.00  0.00    +0.000 A 
ATOM      9  C   UNL     1       8.850  15.229  26.273  0.00  0.00    +0.000 A 
ATOM     10  C   UNL     1       8.517  13.913  25.978  0.00  0.00    +0.000 A 
ATOM     11  C   UNL     1       8.603  13.437  24.659  0.00  0.00    +0.000 A 
ATOM     12  C   UNL     1       8.240  11.994  24.405  0.00  0.00    +0.000 C 
ATOM     13  C   UNL     1       8.007  11.669  22.933  0.00  0.00    +0.000 C 
ATOM     14  C   UNL     1       9.131  12.261  22.083  0.00  0.00    +0.000 C 
ATOM     15  C   UNL     1       9.013  11.888  20.604  0.00  0.00    +0.000 C 
ATOM     16  C   UNL     1       8.879  10.419  20.197  0.00  0.00    +0.000 C 
ATOM     17  C   UNL     1       9.118  10.511  18.710  0.00  0.00    +0.000 C 
ATOM     18  C   UNL     1       8.771   9.688  17.714  0.00  0.00    +0.000 C 
ATOM     19  C   UNL     1       9.856  11.798  18.457  0.00  0.00    +0.000 C 
ATOM     20  O   UNL     1      10.153  12.225  17.353  0.00  0.00    +0.000 OA
ENDROOT
BRANCH  18  21
ATOM     21  C   UNL     1       8.092   8.413  17.941  0.00  0.00    +0.000 A 
ATOM     22  C   UNL     1       8.568   7.499  18.880  0.00  0.00    +0.000 A 
ATOM     23  C   UNL     1       7.908   6.287  19.005  0.00  0.00    +0.000 A 
ATOM     24  N   UNL     1       6.822   5.944  18.280  0.00  0.00    +0.000 NA
ATOM     25  C   UNL     1       6.370   6.857  17.393  0.00  0.00    +0.000 A 
ATOM     26  C   UNL     1       6.965   8.090  17.187  0.00  0.00    +0.000 A 
ENDBRANCH  18  21
BRANCH   9  27
ATOM     27  O   UNL     1       8.727  15.645  27.566  0.00  0.00    +0.000 OA
ATOM     28  H   UNL     1       7.812  15.483  27.851  0.00  0.00    +0.000 HD
ENDBRANCH   9  27
TORSDOF 2
ENDMDL
MODEL 7
REMARK VINA RESULT:      -6.8      4.038      9.463
REMARK  Name = 
REMARK  3 active torsions:
REMARK  status: ('A' for Active; 'I' for Inactive)
REMARK    1  A    between atoms: C_1  and  C_2
REMARK    2  A    between atoms: C_9  and  O_10
REMARK    3  A    between atoms: C_19  and  C_20
REMARK                            x       y       z     vdW  Elec       q    Type
REMARK                         _______ _______ _______ _____ _____    ______ ____
ROOT
ATOM      1  C   UNL     1      -0.370   9.596  17.377  0.00  0.00    +0.000 C 
ATOM      2  C   UNL     1       0.685  10.185  18.334  0.00  0.00    +0.000 C 
ATOM      3  C   UNL     1       2.083  10.090  17.732  0.00  0.00    +0.000 C 
ATOM      4  C   UNL     1       2.592   8.637  17.722  0.00  0.00    +0.000 C 
ATOM      5  C   UNL     1       2.499   7.940  19.107  0.00  0.00    +0.000 C 
ATOM      6  C   UNL     1       2.993   6.500  19.145  0.00  0.00    +0.000 A 
ATOM      7  C   UNL     1       4.081   6.091  18.351  0.00  0.00    +0.000 A 
ATOM      8  C   UNL     1       4.595   4.793  18.435  0.00  0.00    +0.000 A 
ATOM      9  C   UNL     1       4.030   3.895  19.325  0.00  0.00    +0.000 A 
ATOM     10  C   UNL     1       2.962   4.271  20.129  0.00  0.00    +0.000 A 
ATOM     11  C   UNL     1       2.445   5.575  20.061  0.00  0.00    +0.000 A 
ATOM     12  C   UNL     1       1.276   5.919  20.950  0.00  0.00    +0.000 C 
ATOM     13  C   UNL     1       1.023   7.418  21.082  0.00  0.00    +0.000 C 
ATOM     14  C   UNL     1       1.064   8.078  19.704  0.00  0.00    +0.000 C 
ATOM     15  C   UNL     1       0.720   9.567  19.752  0.00  0.00    +0.000 C 
ATOM     16  C   UNL     1      -0.574  10.030  20.425  0.00  0.00    +0.000 C 
ATOM     17  C   UNL     1      -0.644  11.463  19.957  0.00  0.00    +0.000 C 
ATOM     18  C   UNL     1      -1.284  12.521  20.468  0.00  0.00    +0.000 C 
ATOM     19  C   UNL     1       0.209  11.570  18.723  0.00  0.00    +0.000 C 
ATOM     20  O   UNL     1       0.434  12.607  18.119  0.00  0.00    +0.000 OA
ENDROOT
BRANCH  18  21
ATOM     21  C   UNL     1      -2.152  12.431  21.640  0.00  0.00    +0.000 A 
ATOM     22  C   UNL     1      -1.679  11.929  22.852  0.00  0.00    +0.000 A 
ATOM     23  C   UNL     1      -2.571  11.821  23.907  0.00  0.00    +0.000 A 
ATOM     24  N   UNL     1      -3.869  12.185  23.836  0.00  0.00    +0.000 NA
ATOM     25  C   UNL     1      -4.295  12.689  22.657  0.00  0.00    +0.000 A 
ATOM     26  C   UNL     1      -3.485  12.827  21.542  0.00  0.00    +0.000 A 
ENDBRANCH  18  21
BRANCH   9  27
ATOM     27  O   UNL     1       4.507   2.622  19.450  0.00  0.00    +0.000 OA
ATOM     28  H   UNL     1       4.367   2.334  20.367  0.00  0.00    +0.000 HD
ENDBRANCH   9  27
TORSDOF 2
ENDMDL
MODEL 8
REMARK VINA RESULT:      -6.7      9.006     12.085
REMARK  Name = 
REMARK  3 active torsions:
REMARK  status: ('A' for Active; 'I' for Inactive)
REMARK    1  A    between atoms: C_1  and  C_2
REMARK    2  A    between atoms: C_9  and  O_10
REMARK    3  A    between atoms: C_19  and  C_20
REMARK                            x       y       z     vdW  Elec       q    Type
REMARK                         _______ _______ _______ _____ _____    ______ ____
ROOT
ATOM      1  C   UNL     1       4.937  13.914  22.154  0.00  0.00    +0.000 C 
ATOM      2  C   UNL     1       6.148  14.367  22.993  0.00  0.00    +0.000 C 
ATOM      3  C   UNL     1       6.848  15.556  22.344  0.00  0.00    +0.000 C 
ATOM      4  C   UNL     1       7.612  15.135  21.074  0.00  0.00    +0.000 C 
ATOM      5  C   UNL     1       8.575  13.938  21.302  0.00  0.00    +0.000 C 
ATOM      6  C   UNL     1       9.353  13.487  20.073  0.00  0.00    +0.000 A 
ATOM      7  C   UNL     1       9.788  14.420  19.114  0.00  0.00    +0.000 A 
ATOM      8  C   UNL     1      10.571  14.030  18.023  0.00  0.00    +0.000 A 
ATOM      9  C   UNL     1      10.935  12.701  17.888  0.00  0.00    +0.000 A 
ATOM     10  C   UNL     1      10.530  11.757  18.823  0.00  0.00    +0.000 A 
ATOM     11  C   UNL     1       9.753  12.140  19.929  0.00  0.00    +0.000 A 
ATOM     12  C   UNL     1       9.332  11.067  20.903  0.00  0.00    +0.000 C 
ATOM     13  C   UNL     1       8.822  11.610  22.235  0.00  0.00    +0.000 C 
ATOM     14  C   UNL     1       7.833  12.750  21.989  0.00  0.00    +0.000 C 
ATOM     15  C   UNL     1       7.206  13.276  23.281  0.00  0.00    +0.000 C 
ATOM     16  C   UNL     1       6.529  12.304  24.250  0.00  0.00    +0.000 C 
ATOM     17  C   UNL     1       5.807  13.266  25.162  0.00  0.00    +0.000 C 
ATOM     18  C   UNL     1       5.357  13.118  26.413  0.00  0.00    +0.000 C 
ATOM     19  C   UNL     1       5.660  14.563  24.413  0.00  0.00    +0.000 C 
ATOM     20  O   UNL     1       5.180  15.585  24.877  0.00  0.00    +0.000 OA
ENDROOT
BRANCH  18  21
ATOM     21  C   UNL     1       5.451  11.855  27.144  0.00  0.00    +0.000 A 
ATOM     22  C   UNL     1       6.549  11.569  27.953  0.00  0.00    +0.000 A 
ATOM     23  C   UNL     1       6.599  10.331  28.573  0.00  0.00    +0.000 A 
ATOM     24  N   UNL     1       5.640   9.389  28.450  0.00  0.00    +0.000 NA
ATOM     25  C   UNL     1       4.576   9.702  27.678  0.00  0.00    +0.000 A 
ATOM     26  C   UNL     1       4.439  10.906  27.009  0.00  0.00    +0.000 A 
ENDBRANCH  18  21
BRANCH   9  27
ATOM     27  O   UNL     1      11.708  12.276  16.847  0.00  0.00    +0.000 OA
ATOM     28  H   UNL     1      12.593  12.665  16.947  0.00  0.00    +0.000 HD
ENDBRANCH   9  27
TORSDOF 2
ENDMDL
