MODEL 1
REMARK VINA RESULT:      -7.9      0.000      0.000
REMARK  Name = 
REMARK  8 active torsions:
REMARK  status: ('A' for Active; 'I' for Inactive)
REMARK    1  A    between atoms: C_1  and  C_2
REMARK    2  A    between atoms: C_5  and  C_6
REMARK    3  A    between atoms: C_7  and  C_8
REMARK    4  A    between atoms: C_8  and  C_9
REMARK    5  A    between atoms: C_9  and  C_10
REMARK    6  A    between atoms: C_9  and  C_11
REMARK    7  A    between atoms: N_13  and  C_14
REMARK    8  A    between atoms: C_16  and  C_17
REMARK                            x       y       z     vdW  Elec       q    Type
REMARK                         _______ _______ _______ _____ _____    ______ ____
ROOT
ATOM      1  C   UNL     1       3.199   5.405  18.362  0.00  0.00    +0.000 C 
ATOM      2  O   UNL     1       3.482   5.295  19.552  0.00  0.00    +0.000 OA
ATOM      3  N   UNL     1       2.603   6.543  17.833  0.00  0.00    +0.000 N 
ATOM      4  H   UNL     1       2.481   6.624  16.831  0.00  0.00    +0.000 HD
ENDROOT
BRANCH   3   5
ATOM      5  C   UNL     1       2.425   7.705  18.650  0.00  0.00    +0.000 C 
ATOM      6  C   UNL     1       2.607   9.034  17.977  0.00  0.00    +0.000 C 
ATOM      7  C   UNL     1       1.271   8.692  18.594  0.00  0.00    +0.000 C 
BRANCH   7   8
ATOM      8  C   UNL     1       0.861   9.338  19.911  0.00  0.00    +0.000 A 
ATOM      9  C   UNL     1       0.750   8.599  21.106  0.00  0.00    +0.000 A 
ATOM     10  C   UNL     1       0.198   9.160  22.259  0.00  0.00    +0.000 A 
ATOM     11  C   UNL     1      -0.214  10.486  22.247  0.00  0.00    +0.000 A 
ATOM     12  F   UNL     1      -0.781  11.010  23.340  0.00  0.00    +0.000 F 
ATOM     13  C   UNL     1      -0.052  11.269  21.114  0.00  0.00    +0.000 A 
ATOM     14  C   UNL     1       0.486  10.692  19.967  0.00  0.00    +0.000 A 
ATOM     15  F   UNL     1       0.614  11.454  18.870  0.00  0.00    +0.000 F 
ENDBRANCH   7   8
ENDBRANCH   3   5
BRANCH   1  16
ATOM     16  C   UNL     1       3.515   4.322  17.332  0.00  0.00    +0.000 C 
ATOM     17  C   UNL     1       2.503   3.182  17.451  0.00  0.00    +0.000 C 
BRANCH  16  18
ATOM     18  C   UNL     1       4.967   3.839  17.513  0.00  0.00    +0.000 C 
BRANCH  18  25
ATOM     19  C   UNL     1       5.627   4.100  14.342  0.00  0.00    +0.000 C 
ATOM     20  C   UNL     1       6.271   4.825  15.468  0.00  0.00    +0.000 A 
ATOM     21  N   UNL     1       7.245   5.704  15.215  0.00  0.00    +0.000 NA
ATOM     22  N   UNL     1       7.625   6.129  16.425  0.00  0.00    +0.000 N 
ATOM     23  C   UNL     1       6.929   5.556  17.453  0.00  0.00    +0.000 A 
ATOM     24  C   UNL     1       7.252   5.874  18.863  0.00  0.00    +0.000 C 
ATOM     25  C   UNL     1       6.004   4.714  16.860  0.00  0.00    +0.000 A 
ATOM     26  H   UNL     1       8.370   6.816  16.474  0.00  0.00    +0.000 HD
ENDBRANCH  18  25
ENDBRANCH  16  18
ENDBRANCH   1  16
TORSDOF 5
ENDMDL
MODEL 2
REMARK VINA RESULT:      -7.7      0.320      1.687
REMARK  Name = 
REMARK  8 active torsions:
REMARK  status: ('A' for Active; 'I' for Inactive)
REMARK    1  A    between atoms: C_1  and  C_2
REMARK    2  A    between atoms: C_5  and  C_6
REMARK    3  A    between atoms: C_7  and  C_8
REMARK    4  A    between atoms: C_8  and  C_9
REMARK    5  A    between atoms: C_9  and  C_10
REMARK    6  A    between atoms: C_9  and  C_11
REMARK    7  A    between atoms: N_13  and  C_14
REMARK    8  A    between atoms: C_16  and  C_17
REMARK                            x       y       z     vdW  Elec       q    Type
REMARK                         _______ _______ _______ _____ _____    ______ ____
ROOT
ATOM      1  C   UNL     1       2.979   5.301  18.246  0.00  0.00    +0.000 C 
ATOM      2  O   UNL     1       2.720   5.088  19.427  0.00  0.00    +0.000 OA
ATOM      3  N   UNL     1       2.895   6.565  17.674  0.00  0.00    +0.000 N 
ATOM      4  H   UNL     1       3.215   6.705  16.723  0.00  0.00    +0.000 HD
ENDROOT
BRANCH   3   5
ATOM      5  C   UNL     1       2.635   7.707  18.496  0.00  0.00    +0.000 C 
ATOM      6  C   UNL     1       2.616   9.041  17.806  0.00  0.00    +0.000 C 
ATOM      7  C   UNL     1       1.372   8.552  18.511  0.00  0.00    +0.000 C 
BRANCH   7   8
ATOM      8  C   UNL     1       0.976   9.161  19.850  0.00  0.00    +0.000 A 
ATOM      9  C   UNL     1       1.152   8.476  21.068  0.00  0.00    +0.000 A 
ATOM     10  C   UNL     1       0.619   8.964  22.262  0.00  0.00    +0.000 A 
ATOM     11  C   UNL     1      -0.066  10.172  22.263  0.00  0.00    +0.000 A 
ATOM     12  F   UNL     1      -0.613  10.619  23.400  0.00  0.00    +0.000 F 
ATOM     13  C   UNL     1      -0.196  10.916  21.100  0.00  0.00    +0.000 A 
ATOM     14  C   UNL     1       0.328  10.408  19.913  0.00  0.00    +0.000 A 
ATOM     15  F   UNL     1       0.173  11.125  18.790  0.00  0.00    +0.000 F 
ENDBRANCH   7   8
ENDBRANCH   3   5
BRANCH   1  16
ATOM     16  C   UNL     1       3.464   4.210  17.294  0.00  0.00    +0.000 C 
ATOM     17  C   UNL     1       2.542   2.993  17.385  0.00  0.00    +0.000 C 
BRANCH  16  18
ATOM     18  C   UNL     1       4.932   3.858  17.609  0.00  0.00    +0.000 C 
BRANCH  18  25
ATOM     19  C   UNL     1       7.079   5.933  18.888  0.00  0.00    +0.000 C 
ATOM     20  C   UNL     1       6.888   5.591  17.455  0.00  0.00    +0.000 A 
ATOM     21  N   UNL     1       7.659   6.170  16.531  0.00  0.00    +0.000 NA
ATOM     22  N   UNL     1       7.202   5.684  15.372  0.00  0.00    +0.000 N 
ATOM     23  C   UNL     1       6.161   4.808  15.514  0.00  0.00    +0.000 A 
ATOM     24  C   UNL     1       5.499   4.212  14.331  0.00  0.00    +0.000 C 
ATOM     25  C   UNL     1       5.947   4.696  16.877  0.00  0.00    +0.000 A 
ATOM     26  H   UNL     1       7.650   5.996  14.517  0.00  0.00    +0.000 HD
ENDBRANCH  18  25
ENDBRANCH  16  18
ENDBRANCH   1  16
TORSDOF 5
ENDMDL
MODEL 3
REMARK VINA RESULT:      -7.6      1.457      2.507
REMARK  Name = 
REMARK  8 active torsions:
REMARK  status: ('A' for Active; 'I' for Inactive)
REMARK    1  A    between atoms: C_1  and  C_2
REMARK    2  A    between atoms: C_5  and  C_6
REMARK    3  A    between atoms: C_7  and  C_8
REMARK    4  A    between atoms: C_8  and  C_9
REMARK    5  A    between atoms: C_9  and  C_10
REMARK    6  A    between atoms: C_9  and  C_11
REMARK    7  A    between atoms: N_13  and  C_14
REMARK    8  A    between atoms: C_16  and  C_17
REMARK                            x       y       z     vdW  Elec       q    Type
REMARK                         _______ _______ _______ _____ _____    ______ ____
ROOT
ATOM      1  C   UNL     1       2.899   6.825  18.619  0.00  0.00    +0.000 C 
ATOM      2  O   UNL     1       2.608   6.586  19.788  0.00  0.00    +0.000 OA
ATOM      3  N   UNL     1       2.548   8.011  17.986  0.00  0.00    +0.000 N 
ATOM      4  H   UNL     1       2.897   8.201  17.054  0.00  0.00    +0.000 HD
ENDROOT
BRANCH   3   5
ATOM      5  C   UNL     1       1.948   9.073  18.733  0.00  0.00    +0.000 C 
ATOM      6  C   UNL     1       1.596  10.317  17.970  0.00  0.00    +0.000 C 
ATOM      7  C   UNL     1       0.502   9.536  18.660  0.00  0.00    +0.000 C 
BRANCH   7   8
ATOM      8  C   UNL     1      -0.108  10.072  19.949  0.00  0.00    +0.000 A 
ATOM      9  C   UNL     1      -0.593  11.389  20.059  0.00  0.00    +0.000 A 
ATOM     10  C   UNL     1      -0.977  11.925  21.290  0.00  0.00    +0.000 A 
ATOM     11  C   UNL     1      -0.920  11.132  22.428  0.00  0.00    +0.000 A 
ATOM     12  F   UNL     1      -1.249  11.658  23.614  0.00  0.00    +0.000 F 
ATOM     13  C   UNL     1      -0.520   9.807  22.352  0.00  0.00    +0.000 A 
ATOM     14  C   UNL     1      -0.126   9.292  21.120  0.00  0.00    +0.000 A 
ATOM     15  F   UNL     1       0.283   8.015  21.063  0.00  0.00    +0.000 F 
ENDBRANCH   7   8
ENDBRANCH   3   5
BRANCH   1  16
ATOM     16  C   UNL     1       3.715   5.865  17.756  0.00  0.00    +0.000 C 
ATOM     17  C   UNL     1       3.922   4.545  18.499  0.00  0.00    +0.000 C 
BRANCH  16  18
ATOM     18  C   UNL     1       5.047   6.529  17.356  0.00  0.00    +0.000 C 
BRANCH  18  25
ATOM     19  C   UNL     1       7.586   5.796  19.246  0.00  0.00    +0.000 C 
ATOM     20  C   UNL     1       7.262   5.245  17.905  0.00  0.00    +0.000 A 
ATOM     21  N   UNL     1       8.069   4.334  17.354  0.00  0.00    +0.000 NA
ATOM     22  N   UNL     1       7.522   4.092  16.158  0.00  0.00    +0.000 N 
ATOM     23  C   UNL     1       6.386   4.815  15.916  0.00  0.00    +0.000 A 
ATOM     24  C   UNL     1       5.676   4.709  14.621  0.00  0.00    +0.000 C 
ATOM     25  C   UNL     1       6.163   5.562  17.060  0.00  0.00    +0.000 A 
ATOM     26  H   UNL     1       7.980   3.418  15.554  0.00  0.00    +0.000 HD
ENDBRANCH  18  25
ENDBRANCH  16  18
ENDBRANCH   1  16
TORSDOF 5
ENDMDL
MODEL 4
REMARK VINA RESULT:      -7.6      1.207      1.423
REMARK  Name = 
REMARK  8 active torsions:
REMARK  status: ('A' for Active; 'I' for Inactive)
REMARK    1  A    between atoms: C_1  and  C_2
REMARK    2  A    between atoms: C_5  and  C_6
REMARK    3  A    between atoms: C_7  and  C_8
REMARK    4  A    between atoms: C_8  and  C_9
REMARK    5  A    between atoms: C_9  and  C_10
REMARK    6  A    between atoms: C_9  and  C_11
REMARK    7  A    between atoms: N_13  and  C_14
REMARK    8  A    between atoms: C_16  and  C_17
REMARK                            x       y       z     vdW  Elec       q    Type
REMARK                         _______ _______ _______ _____ _____    ______ ____
ROOT
ATOM      1  C   UNL     1       3.284   5.598  18.278  0.00  0.00    +0.000 C 
ATOM      2  O   UNL     1       3.887   5.858  19.317  0.00  0.00    +0.000 OA
ATOM      3  N   UNL     1       2.308   6.433  17.748  0.00  0.00    +0.000 N 
ATOM      4  H   UNL     1       1.911   6.224  16.840  0.00  0.00    +0.000 HD
ENDROOT
BRANCH   3   5
ATOM      5  C   UNL     1       2.069   7.718  18.332  0.00  0.00    +0.000 C 
ATOM      6  C   UNL     1       2.938   8.845  17.855  0.00  0.00    +0.000 C 
ATOM      7  C   UNL     1       1.443   8.926  17.655  0.00  0.00    +0.000 C 
BRANCH   7   8
ATOM      8  C   UNL     1       0.613   9.848  18.538  0.00  0.00    +0.000 A 
ATOM      9  C   UNL     1       1.100  10.356  19.759  0.00  0.00    +0.000 A 
ATOM     10  C   UNL     1       0.269  11.045  20.644  0.00  0.00    +0.000 A 
ATOM     11  C   UNL     1      -1.057  11.275  20.300  0.00  0.00    +0.000 A 
ATOM     12  F   UNL     1      -1.863  11.899  21.167  0.00  0.00    +0.000 F 
ATOM     13  C   UNL     1      -1.556  10.858  19.076  0.00  0.00    +0.000 A 
ATOM     14  C   UNL     1      -0.719  10.158  18.210  0.00  0.00    +0.000 A 
ATOM     15  F   UNL     1      -1.221   9.738  17.039  0.00  0.00    +0.000 F 
ENDBRANCH   7   8
ENDBRANCH   3   5
BRANCH   1  16
ATOM     16  C   UNL     1       3.576   4.357  17.438  0.00  0.00    +0.000 C 
ATOM     17  C   UNL     1       2.581   3.249  17.786  0.00  0.00    +0.000 C 
BRANCH  16  18
ATOM     18  C   UNL     1       5.039   3.918  17.647  0.00  0.00    +0.000 C 
BRANCH  18  25
ATOM     19  C   UNL     1       5.543   4.107  14.444  0.00  0.00    +0.000 C 
ATOM     20  C   UNL     1       6.254   4.842  15.521  0.00  0.00    +0.000 A 
ATOM     21  N   UNL     1       7.227   5.700  15.202  0.00  0.00    +0.000 NA
ATOM     22  N   UNL     1       7.674   6.143  16.382  0.00  0.00    +0.000 N 
ATOM     23  C   UNL     1       7.022   5.601  17.456  0.00  0.00    +0.000 A 
ATOM     24  C   UNL     1       7.420   5.941  18.841  0.00  0.00    +0.000 C 
ATOM     25  C   UNL     1       6.055   4.763  16.926  0.00  0.00    +0.000 A 
ATOM     26  H   UNL     1       8.432   6.817  16.380  0.00  0.00    +0.000 HD
ENDBRANCH  18  25
ENDBRANCH  16  18
ENDBRANCH   1  16
TORSDOF 5
ENDMDL
MODEL 5
REMARK VINA RESULT:      -7.5      1.239      2.181
REMARK  Name = 
REMARK  8 active torsions:
REMARK  status: ('A' for Active; 'I' for Inactive)
REMARK    1  A    between atoms: C_1  and  C_2
REMARK    2  A    between atoms: C_5  and  C_6
REMARK    3  A    between atoms: C_7  and  C_8
REMARK    4  A    between atoms: C_8  and  C_9
REMARK    5  A    between atoms: C_9  and  C_10
REMARK    6  A    between atoms: C_9  and  C_11
REMARK    7  A    between atoms: N_13  and  C_14
REMARK    8  A    between atoms: C_16  and  C_17
REMARK                            x       y       z     vdW  Elec       q    Type
REMARK                         _______ _______ _______ _____ _____    ______ ____
ROOT
ATOM      1  C   UNL     1       2.923   6.892  18.479  0.00  0.00    +0.000 C 
ATOM      2  O   UNL     1       2.574   6.577  19.614  0.00  0.00    +0.000 OA
ATOM      3  N   UNL     1       2.667   8.145  17.935  0.00  0.00    +0.000 N 
ATOM      4  H   UNL     1       3.062   8.388  17.034  0.00  0.00    +0.000 HD
ENDROOT
BRANCH   3   5
ATOM      5  C   UNL     1       2.100   9.177  18.747  0.00  0.00    +0.000 C 
ATOM      6  C   UNL     1       1.664  10.428  18.039  0.00  0.00    +0.000 C 
ATOM      7  C   UNL     1       0.643   9.607  18.792  0.00  0.00    +0.000 C 
BRANCH   7   8
ATOM      8  C   UNL     1       0.119  10.103  20.133  0.00  0.00    +0.000 A 
ATOM      9  C   UNL     1       0.261   9.353  21.317  0.00  0.00    +0.000 A 
ATOM     10  C   UNL     1      -0.382   9.728  22.499  0.00  0.00    +0.000 A 
ATOM     11  C   UNL     1      -1.145  10.888  22.524  0.00  0.00    +0.000 A 
ATOM     12  F   UNL     1      -1.795  11.224  23.645  0.00  0.00    +0.000 F 
ATOM     13  C   UNL     1      -1.249  11.694  21.401  0.00  0.00    +0.000 A 
ATOM     14  C   UNL     1      -0.615  11.298  20.226  0.00  0.00    +0.000 A 
ATOM     15  F   UNL     1      -0.744  12.075  19.139  0.00  0.00    +0.000 F 
ENDBRANCH   7   8
ENDBRANCH   3   5
BRANCH   1  16
ATOM     16  C   UNL     1       3.715   5.958  17.567  0.00  0.00    +0.000 C 
ATOM     17  C   UNL     1       3.837   4.579  18.214  0.00  0.00    +0.000 C 
BRANCH  16  18
ATOM     18  C   UNL     1       5.090   6.580  17.251  0.00  0.00    +0.000 C 
BRANCH  18  25
ATOM     19  C   UNL     1       7.606   5.850  19.172  0.00  0.00    +0.000 C 
ATOM     20  C   UNL     1       7.273   5.264  17.848  0.00  0.00    +0.000 A 
ATOM     21  N   UNL     1       8.061   4.318  17.329  0.00  0.00    +0.000 NA
ATOM     22  N   UNL     1       7.511   4.051  16.139  0.00  0.00    +0.000 N 
ATOM     23  C   UNL     1       6.392   4.791  15.870  0.00  0.00    +0.000 A 
ATOM     24  C   UNL     1       5.684   4.660  14.577  0.00  0.00    +0.000 C 
ATOM     25  C   UNL     1       6.184   5.579  16.990  0.00  0.00    +0.000 A 
ATOM     26  H   UNL     1       7.955   3.348  15.558  0.00  0.00    +0.000 HD
ENDBRANCH  18  25
ENDBRANCH  16  18
ENDBRANCH   1  16
TORSDOF 5
ENDMDL
MODEL 6
REMARK VINA RESULT:      -7.4      4.245      8.810
REMARK  Name = 
REMARK  8 active torsions:
REMARK  status: ('A' for Active; 'I' for Inactive)
REMARK    1  A    between atoms: C_1  and  C_2
REMARK    2  A    between atoms: C_5  and  C_6
REMARK    3  A    between atoms: C_7  and  C_8
REMARK    4  A    between atoms: C_8  and  C_9
REMARK    5  A    between atoms: C_9  and  C_10
REMARK    6  A    between atoms: C_9  and  C_11
REMARK    7  A    between atoms: N_13  and  C_14
REMARK    8  A    between atoms: C_16  and  C_17
REMARK                            x       y       z     vdW  Elec       q    Type
REMARK                         _______ _______ _______ _____ _____    ______ ____
ROOT
ATOM      1  C   UNL     1       1.431   9.587  18.363  0.00  0.00    +0.000 C 
ATOM      2  O   UNL     1       2.081   9.647  17.322  0.00  0.00    +0.000 OA
ATOM      3  N   UNL     1       1.537   8.527  19.255  0.00  0.00    +0.000 N 
ATOM      4  H   UNL     1       1.056   8.573  20.145  0.00  0.00    +0.000 HD
ENDROOT
BRANCH   3   5
ATOM      5  C   UNL     1       2.532   7.518  19.055  0.00  0.00    +0.000 C 
ATOM      6  C   UNL     1       2.343   6.229  19.801  0.00  0.00    +0.000 C 
ATOM      7  C   UNL     1       2.369   6.215  18.291  0.00  0.00    +0.000 C 
BRANCH   7   8
ATOM      8  C   UNL     1       3.602   5.692  17.564  0.00  0.00    +0.000 A 
ATOM      9  C   UNL     1       4.511   6.551  16.915  0.00  0.00    +0.000 A 
ATOM     10  C   UNL     1       5.529   6.053  16.100  0.00  0.00    +0.000 A 
ATOM     11  C   UNL     1       5.679   4.680  15.954  0.00  0.00    +0.000 A 
ATOM     12  F   UNL     1       6.628   4.204  15.140  0.00  0.00    +0.000 F 
ATOM     13  C   UNL     1       4.853   3.799  16.635  0.00  0.00    +0.000 A 
ATOM     14  C   UNL     1       3.832   4.311  17.432  0.00  0.00    +0.000 A 
ATOM     15  F   UNL     1       3.024   3.448  18.066  0.00  0.00    +0.000 F 
ENDBRANCH   7   8
ENDBRANCH   3   5
BRANCH   1  16
ATOM     16  C   UNL     1       0.475  10.692  18.808  0.00  0.00    +0.000 C 
ATOM     17  C   UNL     1       1.078  11.458  19.986  0.00  0.00    +0.000 C 
BRANCH  16  18
ATOM     18  C   UNL     1      -0.901  10.086  19.145  0.00  0.00    +0.000 C 
BRANCH  18  25
ATOM     19  C   UNL     1      -2.480   9.783  16.322  0.00  0.00    +0.000 C 
ATOM     20  C   UNL     1      -2.763  10.738  17.424  0.00  0.00    +0.000 A 
ATOM     21  N   UNL     1      -3.775  11.603  17.304  0.00  0.00    +0.000 NA
ATOM     22  N   UNL     1      -3.722  12.327  18.427  0.00  0.00    +0.000 N 
ATOM     23  C   UNL     1      -2.710  11.960  19.272  0.00  0.00    +0.000 A 
ATOM     24  C   UNL     1      -2.473  12.689  20.539  0.00  0.00    +0.000 C 
ATOM     25  C   UNL     1      -2.076  10.892  18.659  0.00  0.00    +0.000 A 
ATOM     26  H   UNL     1      -4.411  13.061  18.552  0.00  0.00    +0.000 HD
ENDBRANCH  18  25
ENDBRANCH  16  18
ENDBRANCH   1  16
TORSDOF 5
ENDMDL
MODEL 7
REMARK VINA RESULT:      -7.4      1.221      1.410
REMARK  Name = 
REMARK  8 active torsions:
REMARK  status: ('A' for Active; 'I' for Inactive)
REMARK    1  A    between atoms: C_1  and  C_2
REMARK    2  A    between atoms: C_5  and  C_6
REMARK    3  A    between atoms: C_7  and  C_8
REMARK    4  A    between atoms: C_8  and  C_9
REMARK    5  A    between atoms: C_9  and  C_10
REMARK    6  A    between atoms: C_9  and  C_11
REMARK    7  A    between atoms: N_13  and  C_14
REMARK    8  A    between atoms: C_16  and  C_17
REMARK                            x       y       z     vdW  Elec       q    Type
REMARK                         _______ _______ _______ _____ _____    ______ ____
ROOT
ATOM      1  C   UNL     1       2.879   6.836  18.544  0.00  0.00    +0.000 C 
ATOM      2  O   UNL     1       2.529   6.535  19.682  0.00  0.00    +0.000 OA
ATOM      3  N   UNL     1       2.635   8.086  17.988  0.00  0.00    +0.000 N 
ATOM      4  H   UNL     1       3.031   8.316  17.085  0.00  0.00    +0.000 HD
ENDROOT
BRANCH   3   5
ATOM      5  C   UNL     1       2.081   9.132  18.791  0.00  0.00    +0.000 C 
ATOM      6  C   UNL     1       1.668  10.384  18.074  0.00  0.00    +0.000 C 
ATOM      7  C   UNL     1       0.630   9.584  18.826  0.00  0.00    +0.000 C 
BRANCH   7   8
ATOM      8  C   UNL     1       0.108  10.096  20.162  0.00  0.00    +0.000 A 
ATOM      9  C   UNL     1       0.235   9.353  21.352  0.00  0.00    +0.000 A 
ATOM     10  C   UNL     1      -0.407   9.745  22.528  0.00  0.00    +0.000 A 
ATOM     11  C   UNL     1      -1.155  10.915  22.542  0.00  0.00    +0.000 A 
ATOM     12  F   UNL     1      -1.804  11.269  23.658  0.00  0.00    +0.000 F 
ATOM     13  C   UNL     1      -1.243  11.715  21.414  0.00  0.00    +0.000 A 
ATOM     14  C   UNL     1      -0.610  11.303  20.244  0.00  0.00    +0.000 A 
ATOM     15  F   UNL     1      -0.723  12.074  19.152  0.00  0.00    +0.000 F 
ENDBRANCH   7   8
ENDBRANCH   3   5
BRANCH   1  16
ATOM     16  C   UNL     1       3.660   5.885  17.639  0.00  0.00    +0.000 C 
ATOM     17  C   UNL     1       3.915   4.565  18.369  0.00  0.00    +0.000 C 
BRANCH  16  18
ATOM     18  C   UNL     1       4.966   6.560  17.175  0.00  0.00    +0.000 C 
BRANCH  18  25
ATOM     19  C   UNL     1       5.595   4.677  14.604  0.00  0.00    +0.000 C 
ATOM     20  C   UNL     1       6.392   4.809  15.850  0.00  0.00    +0.000 A 
ATOM     21  N   UNL     1       7.513   4.097  15.995  0.00  0.00    +0.000 NA
ATOM     22  N   UNL     1       7.946   4.414  17.220  0.00  0.00    +0.000 N 
ATOM     23  C   UNL     1       7.144   5.308  17.874  0.00  0.00    +0.000 A 
ATOM     24  C   UNL     1       7.446   5.731  19.260  0.00  0.00    +0.000 C 
ATOM     25  C   UNL     1       6.125   5.618  16.989  0.00  0.00    +0.000 A 
ATOM     26  H   UNL     1       8.802   3.978  17.548  0.00  0.00    +0.000 HD
ENDBRANCH  18  25
ENDBRANCH  16  18
ENDBRANCH   1  16
TORSDOF 5
ENDMDL
MODEL 8
REMARK VINA RESULT:      -7.4      3.921      8.479
REMARK  Name = 
REMARK  8 active torsions:
REMARK  status: ('A' for Active; 'I' for Inactive)
REMARK    1  A    between atoms: C_1  and  C_2
REMARK    2  A    between atoms: C_5  and  C_6
REMARK    3  A    between atoms: C_7  and  C_8
REMARK    4  A    between atoms: C_8  and  C_9
REMARK    5  A    between atoms: C_9  and  C_10
REMARK    6  A    between atoms: C_9  and  C_11
REMARK    7  A    between atoms: N_13  and  C_14
REMARK    8  A    between atoms: C_16  and  C_17
REMARK                            x       y       z     vdW  Elec       q    Type
REMARK                         _______ _______ _______ _____ _____    ______ ____
ROOT
ATOM      1  C   UNL     1       1.507   8.757  19.831  0.00  0.00    +0.000 C 
ATOM      2  O   UNL     1       1.851   9.050  18.689  0.00  0.00    +0.000 OA
ATOM      3  N   UNL     1       1.838   7.547  20.429  0.00  0.00    +0.000 N 
ATOM      4  H   UNL     1       1.615   7.395  21.406  0.00  0.00    +0.000 HD
ENDROOT
BRANCH   3   5
ATOM      5  C   UNL     1       2.729   6.642  19.770  0.00  0.00    +0.000 C 
ATOM      6  C   UNL     1       2.436   5.178  19.924  0.00  0.00    +0.000 C 
ATOM      7  C   UNL     1       2.427   5.795  18.545  0.00  0.00    +0.000 C 
BRANCH   7   8
ATOM      8  C   UNL     1       3.589   5.532  17.596  0.00  0.00    +0.000 A 
ATOM      9  C   UNL     1       4.360   6.576  17.046  0.00  0.00    +0.000 A 
ATOM     10  C   UNL     1       5.297   6.337  16.039  0.00  0.00    +0.000 A 
ATOM     11  C   UNL     1       5.507   5.038  15.594  0.00  0.00    +0.000 A 
ATOM     12  F   UNL     1       6.375   4.816  14.600  0.00  0.00    +0.000 F 
ATOM     13  C   UNL     1       4.824   3.973  16.161  0.00  0.00    +0.000 A 
ATOM     14  C   UNL     1       3.881   4.229  17.154  0.00  0.00    +0.000 A 
ATOM     15  F   UNL     1       3.209   3.193  17.677  0.00  0.00    +0.000 F 
ENDBRANCH   7   8
ENDBRANCH   3   5
BRANCH   1  16
ATOM     16  C   UNL     1       0.720   9.710  20.729  0.00  0.00    +0.000 C 
ATOM     17  C   UNL     1       0.720   9.188  22.167  0.00  0.00    +0.000 C 
BRANCH  16  18
ATOM     18  C   UNL     1      -0.705   9.894  20.173  0.00  0.00    +0.000 C 
BRANCH  18  25
ATOM     19  C   UNL     1      -0.010  13.015  20.747  0.00  0.00    +0.000 C 
ATOM     20  C   UNL     1      -0.543  12.418  19.496  0.00  0.00    +0.000 A 
ATOM     21  N   UNL     1      -0.787  13.202  18.442  0.00  0.00    +0.000 NA
ATOM     22  N   UNL     1      -1.290  12.371  17.524  0.00  0.00    +0.000 N 
ATOM     23  C   UNL     1      -1.379  11.072  17.946  0.00  0.00    +0.000 A 
ATOM     24  C   UNL     1      -1.960  10.026  17.075  0.00  0.00    +0.000 C 
ATOM     25  C   UNL     1      -0.864  11.058  19.231  0.00  0.00    +0.000 A 
ATOM     26  H   UNL     1      -1.554  12.760  16.625  0.00  0.00    +0.000 HD
ENDBRANCH  18  25
ENDBRANCH  16  18
ENDBRANCH   1  16
TORSDOF 5
ENDMDL
MODEL 9
REMARK VINA RESULT:      -7.4      1.462      2.573
REMARK  Name = 
REMARK  8 active torsions:
REMARK  status: ('A' for Active; 'I' for Inactive)
REMARK    1  A    between atoms: C_1  and  C_2
REMARK    2  A    between atoms: C_5  and  C_6
REMARK    3  A    between atoms: C_7  and  C_8
REMARK    4  A    between atoms: C_8  and  C_9
REMARK    5  A    between atoms: C_9  and  C_10
REMARK    6  A    between atoms: C_9  and  C_11
REMARK    7  A    between atoms: N_13  and  C_14
REMARK    8  A    between atoms: C_16  and  C_17
REMARK                            x       y       z     vdW  Elec       q    Type
REMARK                         _______ _______ _______ _____ _____    ______ ____
ROOT
ATOM      1  C   UNL     1       3.288   4.878  17.676  0.00  0.00    +0.000 C 
ATOM      2  O   UNL     1       3.474   6.040  17.324  0.00  0.00    +0.000 OA
ATOM      3  N   UNL     1       2.520   4.542  18.785  0.00  0.00    +0.000 N 
ATOM      4  H   UNL     1       2.316   3.568  18.974  0.00  0.00    +0.000 HD
ENDROOT
BRANCH   3   5
ATOM      5  C   UNL     1       1.790   5.554  19.484  0.00  0.00    +0.000 C 
ATOM      6  C   UNL     1       1.810   5.483  20.983  0.00  0.00    +0.000 C 
ATOM      7  C   UNL     1       2.369   6.704  20.291  0.00  0.00    +0.000 C 
BRANCH   7   8
ATOM      8  C   UNL     1       1.573   8.003  20.295  0.00  0.00    +0.000 A 
ATOM      9  C   UNL     1       0.720   8.357  21.358  0.00  0.00    +0.000 A 
ATOM     10  C   UNL     1      -0.141   9.453  21.267  0.00  0.00    +0.000 A 
ATOM     11  C   UNL     1      -0.130  10.238  20.123  0.00  0.00    +0.000 A 
ATOM     12  F   UNL     1      -0.985  11.264  20.019  0.00  0.00    +0.000 F 
ATOM     13  C   UNL     1       0.748   9.969  19.084  0.00  0.00    +0.000 A 
ATOM     14  C   UNL     1       1.589   8.864  19.183  0.00  0.00    +0.000 A 
ATOM     15  F   UNL     1       2.417   8.600  18.160  0.00  0.00    +0.000 F 
ENDBRANCH   7   8
ENDBRANCH   3   5
BRANCH   1  16
ATOM     16  C   UNL     1       3.842   3.680  16.907  0.00  0.00    +0.000 C 
ATOM     17  C   UNL     1       3.048   2.422  17.260  0.00  0.00    +0.000 C 
BRANCH  16  18
ATOM     18  C   UNL     1       5.348   3.524  17.198  0.00  0.00    +0.000 C 
BRANCH  18  25
ATOM     19  C   UNL     1       7.034   6.017  18.421  0.00  0.00    +0.000 C 
ATOM     20  C   UNL     1       6.974   5.567  17.007  0.00  0.00    +0.000 A 
ATOM     21  N   UNL     1       7.674   6.222  16.076  0.00  0.00    +0.000 NA
ATOM     22  N   UNL     1       7.364   5.598  14.934  0.00  0.00    +0.000 N 
ATOM     23  C   UNL     1       6.487   4.560  15.094  0.00  0.00    +0.000 A 
ATOM     24  C   UNL     1       5.997   3.791  13.928  0.00  0.00    +0.000 C 
ATOM     25  C   UNL     1       6.233   4.487  16.453  0.00  0.00    +0.000 A 
ATOM     26  H   UNL     1       7.790   5.937  14.078  0.00  0.00    +0.000 HD
ENDBRANCH  18  25
ENDBRANCH  16  18
ENDBRANCH   1  16
TORSDOF 5
ENDMDL
