MODEL 1
REMARK VINA RESULT:      -8.5      0.000      0.000
REMARK  Name = 
REMARK  9 active torsions:
REMARK  status: ('A' for Active; 'I' for Inactive)
REMARK    1  A    between atoms: C_1  and  C_2
REMARK    2  A    between atoms: C_2  and  O_3
REMARK    3  A    between atoms: O_3  and  C_4
REMARK    4  A    between atoms: C_4  and  C_6
REMARK    5  A    between atoms: C_11  and  C_12
REMARK    6  A    between atoms: C_12  and  S_13
REMARK    7  A    between atoms: S_13  and  C_14
REMARK    8  A    between atoms: C_17  and  C_18
REMARK    9  A    between atoms: N_25  and  C_26
REMARK                            x       y       z     vdW  Elec       q    Type
REMARK                         _______ _______ _______ _____ _____    ______ ____
ROOT
ATOM      1  C   UNL     1       5.699   5.072  16.616  0.00  0.00    +0.000 A 
ATOM      2  C   UNL     1       5.369   6.416  16.379  0.00  0.00    +0.000 A 
ATOM      3  C   UNL     1       4.426   7.071  17.180  0.00  0.00    +0.000 A 
ATOM      4  C   UNL     1       3.789   6.391  18.220  0.00  0.00    +0.000 A 
ATOM      5  N   UNL     1       2.873   7.043  19.059  0.00  0.00    +0.000 N 
ATOM      6  C   UNL     1       2.198   6.376  20.072  0.00  0.00    +0.000 A 
ATOM      7  C   UNL     1       2.463   5.090  20.366  0.00  0.00    +0.000 A 
ATOM      8  C   UNL     1       3.476   4.344  19.581  0.00  0.00    +0.000 A 
ATOM      9  O   UNL     1       3.730   3.175  19.845  0.00  0.00    +0.000 OA
ATOM     10  C   UNL     1       4.147   5.056  18.469  0.00  0.00    +0.000 A 
ATOM     11  C   UNL     1       5.089   4.392  17.675  0.00  0.00    +0.000 A 
ATOM     12  H   UNL     1       2.487   7.930  18.751  0.00  0.00    +0.000 HD
ENDROOT
BRANCH   1  13
ATOM     13  C   UNL     1       6.628   4.399  15.669  0.00  0.00    +0.000 C 
ATOM     14  O   UNL     1       7.820   4.650  15.600  0.00  0.00    +0.000 OA
BRANCH  13  15
ATOM     15  O   UNL     1       5.926   3.596  14.835  0.00  0.00    +0.000 OA
BRANCH  15  17
ATOM     16  C   UNL     1       5.988   3.242  12.479  0.00  0.00    +0.000 C 
ATOM     17  C   UNL     1       5.547   4.184  13.585  0.00  0.00    +0.000 C 
ENDBRANCH  15  17
ENDBRANCH  13  15
ENDBRANCH   1  13
BRANCH   6  18
ATOM     18  C   UNL     1       1.162   7.151  20.875  0.00  0.00    +0.000 C 
BRANCH  18  19
ATOM     19  S   UNL     1       1.086   8.868  20.282  0.00  0.00    +0.000 S 
BRANCH  19  20
ATOM     20  C   UNL     1       0.357   9.684  21.625  0.00  0.00    +0.000 A 
ATOM     21  N   UNL     1       0.516   9.422  22.896  0.00  0.00    +0.000 NA
ATOM     22  N   UNL     1      -0.240  10.332  23.601  0.00  0.00    +0.000 NA
ATOM     23  C   UNL     1      -0.869  11.130  22.749  0.00  0.00    +0.000 A 
ATOM     24  N   UNL     1      -0.491  10.754  21.473  0.00  0.00    +0.000 N 
ATOM     25  C   UNL     1      -0.816  11.375  20.214  0.00  0.00    +0.000 C 
BRANCH  23  26
ATOM     26  C   UNL     1      -1.742  12.249  23.140  0.00  0.00    +0.000 A 
ATOM     27  C   UNL     1      -1.235  13.561  23.118  0.00  0.00    +0.000 A 
ATOM     28  C   UNL     1      -2.044  14.660  23.437  0.00  0.00    +0.000 A 
ATOM     29  C   UNL     1      -3.378  14.463  23.780  0.00  0.00    +0.000 A 
ATOM     30  C   UNL     1      -3.876  13.169  23.835  0.00  0.00    +0.000 A 
ATOM     31  F   UNL     1      -5.160  12.970  24.160  0.00  0.00    +0.000 F 
ATOM     32  C   UNL     1      -3.070  12.069  23.549  0.00  0.00    +0.000 A 
ENDBRANCH  23  26
ENDBRANCH  19  20
ENDBRANCH  18  19
ENDBRANCH   6  18
TORSDOF 7
ENDMDL
MODEL 2
REMARK VINA RESULT:      -8.3      0.883      1.217
REMARK  Name = 
REMARK  9 active torsions:
REMARK  status: ('A' for Active; 'I' for Inactive)
REMARK    1  A    between atoms: C_1  and  C_2
REMARK    2  A    between atoms: C_2  and  O_3
REMARK    3  A    between atoms: O_3  and  C_4
REMARK    4  A    between atoms: C_4  and  C_6
REMARK    5  A    between atoms: C_11  and  C_12
REMARK    6  A    between atoms: C_12  and  S_13
REMARK    7  A    between atoms: S_13  and  C_14
REMARK    8  A    between atoms: C_17  and  C_18
REMARK    9  A    between atoms: N_25  and  C_26
REMARK                            x       y       z     vdW  Elec       q    Type
REMARK                         _______ _______ _______ _____ _____    ______ ____
ROOT
ATOM      1  C   UNL     1       5.528   5.053  16.498  0.00  0.00    +0.000 A 
ATOM      2  C   UNL     1       5.189   6.391  16.246  0.00  0.00    +0.000 A 
ATOM      3  C   UNL     1       4.288   7.067  17.078  0.00  0.00    +0.000 A 
ATOM      4  C   UNL     1       3.703   6.413  18.164  0.00  0.00    +0.000 A 
ATOM      5  N   UNL     1       2.831   7.087  19.033  0.00  0.00    +0.000 N 
ATOM      6  C   UNL     1       2.206   6.444  20.093  0.00  0.00    +0.000 A 
ATOM      7  C   UNL     1       2.484   5.165  20.403  0.00  0.00    +0.000 A 
ATOM      8  C   UNL     1       3.455   4.398  19.586  0.00  0.00    +0.000 A 
ATOM      9  O   UNL     1       3.720   3.234  19.863  0.00  0.00    +0.000 OA
ATOM     10  C   UNL     1       4.071   5.083  18.426  0.00  0.00    +0.000 A 
ATOM     11  C   UNL     1       4.971   4.399  17.601  0.00  0.00    +0.000 A 
ATOM     12  H   UNL     1       2.431   7.967  18.724  0.00  0.00    +0.000 HD
ENDROOT
BRANCH   1  13
ATOM     13  C   UNL     1       6.408   4.355  15.521  0.00  0.00    +0.000 C 
ATOM     14  O   UNL     1       7.596   4.152  15.709  0.00  0.00    +0.000 OA
BRANCH  13  15
ATOM     15  O   UNL     1       5.723   4.122  14.376  0.00  0.00    +0.000 OA
BRANCH  15  17
ATOM     16  C   UNL     1       5.838   3.105  12.224  0.00  0.00    +0.000 C 
ATOM     17  C   UNL     1       6.515   4.068  13.184  0.00  0.00    +0.000 C 
ENDBRANCH  15  17
ENDBRANCH  13  15
ENDBRANCH   1  13
BRANCH   6  18
ATOM     18  C   UNL     1       1.213   7.240  20.929  0.00  0.00    +0.000 C 
BRANCH  18  19
ATOM     19  S   UNL     1       1.099   8.939  20.292  0.00  0.00    +0.000 S 
BRANCH  19  20
ATOM     20  C   UNL     1       0.356   9.774  21.615  0.00  0.00    +0.000 A 
ATOM     21  N   UNL     1       0.486   9.517  22.892  0.00  0.00    +0.000 NA
ATOM     22  N   UNL     1      -0.271  10.442  23.576  0.00  0.00    +0.000 NA
ATOM     23  C   UNL     1      -0.871  11.244  22.707  0.00  0.00    +0.000 A 
ATOM     24  N   UNL     1      -0.474  10.855  21.441  0.00  0.00    +0.000 N 
ATOM     25  C   UNL     1      -0.765  11.473  20.172  0.00  0.00    +0.000 C 
BRANCH  23  26
ATOM     26  C   UNL     1      -1.736  12.378  23.073  0.00  0.00    +0.000 A 
ATOM     27  C   UNL     1      -3.133  12.212  23.068  0.00  0.00    +0.000 A 
ATOM     28  C   UNL     1      -3.991  13.249  23.454  0.00  0.00    +0.000 A 
ATOM     29  C   UNL     1      -3.464  14.473  23.857  0.00  0.00    +0.000 A 
ATOM     30  C   UNL     1      -2.089  14.654  23.834  0.00  0.00    +0.000 A 
ATOM     31  F   UNL     1      -1.572  15.827  24.224  0.00  0.00    +0.000 F 
ATOM     32  C   UNL     1      -1.229  13.637  23.422  0.00  0.00    +0.000 A 
ENDBRANCH  23  26
ENDBRANCH  19  20
ENDBRANCH  18  19
ENDBRANCH   6  18
TORSDOF 7
ENDMDL
MODEL 3
REMARK VINA RESULT:      -8.2      7.596      9.823
REMARK  Name = 
REMARK  9 active torsions:
REMARK  status: ('A' for Active; 'I' for Inactive)
REMARK    1  A    between atoms: C_1  and  C_2
REMARK    2  A    between atoms: C_2  and  O_3
REMARK    3  A    between atoms: O_3  and  C_4
REMARK    4  A    between atoms: C_4  and  C_6
REMARK    5  A    between atoms: C_11  and  C_12
REMARK    6  A    between atoms: C_12  and  S_13
REMARK    7  A    between atoms: S_13  and  C_14
REMARK    8  A    between atoms: C_17  and  C_18
REMARK    9  A    between atoms: N_25  and  C_26
REMARK                            x       y       z     vdW  Elec       q    Type
REMARK                         _______ _______ _______ _____ _____    ______ ____
ROOT
ATOM      1  C   UNL     1       4.489   4.044  17.972  0.00  0.00    +0.000 A 
ATOM      2  C   UNL     1       4.088   4.903  16.937  0.00  0.00    +0.000 A 
ATOM      3  C   UNL     1       4.806   6.072  16.662  0.00  0.00    +0.000 A 
ATOM      4  C   UNL     1       5.927   6.409  17.425  0.00  0.00    +0.000 A 
ATOM      5  N   UNL     1       6.683   7.555  17.137  0.00  0.00    +0.000 N 
ATOM      6  C   UNL     1       7.775   7.929  17.908  0.00  0.00    +0.000 A 
ATOM      7  C   UNL     1       8.226   7.156  18.913  0.00  0.00    +0.000 A 
ATOM      8  C   UNL     1       7.534   5.885  19.237  0.00  0.00    +0.000 A 
ATOM      9  O   UNL     1       7.940   5.170  20.145  0.00  0.00    +0.000 OA
ATOM     10  C   UNL     1       6.338   5.529  18.438  0.00  0.00    +0.000 A 
ATOM     11  C   UNL     1       5.628   4.356  18.721  0.00  0.00    +0.000 A 
ATOM     12  H   UNL     1       6.269   8.267  16.544  0.00  0.00    +0.000 HD
ENDROOT
BRANCH   1  13
ATOM     13  C   UNL     1       3.628   2.871  18.285  0.00  0.00    +0.000 C 
ATOM     14  O   UNL     1       3.313   2.027  17.463  0.00  0.00    +0.000 OA
BRANCH  13  15
ATOM     15  O   UNL     1       3.158   2.977  19.550  0.00  0.00    +0.000 OA
BRANCH  15  17
ATOM     16  C   UNL     1       1.216   3.170  20.919  0.00  0.00    +0.000 C 
ATOM     17  C   UNL     1       1.864   2.405  19.779  0.00  0.00    +0.000 C 
ENDBRANCH  15  17
ENDBRANCH  13  15
ENDBRANCH   1  13
BRANCH   6  18
ATOM     18  C   UNL     1       8.481   9.234  17.566  0.00  0.00    +0.000 C 
BRANCH  18  19
ATOM     19  S   UNL     1       9.039  10.048  19.093  0.00  0.00    +0.000 S 
BRANCH  19  20
ATOM     20  C   UNL     1       9.933  11.399  18.479  0.00  0.00    +0.000 A 
ATOM     21  N   UNL     1      10.697  11.430  17.418  0.00  0.00    +0.000 NA
ATOM     22  N   UNL     1      11.191  12.711  17.305  0.00  0.00    +0.000 NA
ATOM     23  C   UNL     1      10.737  13.445  18.312  0.00  0.00    +0.000 A 
ATOM     24  N   UNL     1       9.911  12.637  19.073  0.00  0.00    +0.000 N 
ATOM     25  C   UNL     1       9.098  12.991  20.209  0.00  0.00    +0.000 C 
BRANCH  23  26
ATOM     26  C   UNL     1      11.026  14.875  18.503  0.00  0.00    +0.000 A 
ATOM     27  C   UNL     1      11.975  15.266  19.466  0.00  0.00    +0.000 A 
ATOM     28  C   UNL     1      12.315  16.612  19.649  0.00  0.00    +0.000 A 
ATOM     29  C   UNL     1      11.712  17.593  18.866  0.00  0.00    +0.000 A 
ATOM     30  C   UNL     1      10.753  17.218  17.938  0.00  0.00    +0.000 A 
ATOM     31  F   UNL     1      10.170  18.154  17.177  0.00  0.00    +0.000 F 
ATOM     32  C   UNL     1      10.386  15.884  17.771  0.00  0.00    +0.000 A 
ENDBRANCH  23  26
ENDBRANCH  19  20
ENDBRANCH  18  19
ENDBRANCH   6  18
TORSDOF 7
ENDMDL
MODEL 4
REMARK VINA RESULT:      -8.1      2.611      3.228
REMARK  Name = 
REMARK  9 active torsions:
REMARK  status: ('A' for Active; 'I' for Inactive)
REMARK    1  A    between atoms: C_1  and  C_2
REMARK    2  A    between atoms: C_2  and  O_3
REMARK    3  A    between atoms: O_3  and  C_4
REMARK    4  A    between atoms: C_4  and  C_6
REMARK    5  A    between atoms: C_11  and  C_12
REMARK    6  A    between atoms: C_12  and  S_13
REMARK    7  A    between atoms: S_13  and  C_14
REMARK    8  A    between atoms: C_17  and  C_18
REMARK    9  A    between atoms: N_25  and  C_26
REMARK                            x       y       z     vdW  Elec       q    Type
REMARK                         _______ _______ _______ _____ _____    ______ ____
ROOT
ATOM      1  C   UNL     1       5.905   4.952  15.802  0.00  0.00    +0.000 A 
ATOM      2  C   UNL     1       6.313   5.998  16.644  0.00  0.00    +0.000 A 
ATOM      3  C   UNL     1       5.539   6.366  17.751  0.00  0.00    +0.000 A 
ATOM      4  C   UNL     1       4.340   5.705  18.025  0.00  0.00    +0.000 A 
ATOM      5  N   UNL     1       3.573   6.033  19.154  0.00  0.00    +0.000 N 
ATOM      6  C   UNL     1       2.358   5.418  19.422  0.00  0.00    +0.000 A 
ATOM      7  C   UNL     1       1.901   4.402  18.666  0.00  0.00    +0.000 A 
ATOM      8  C   UNL     1       2.687   3.936  17.498  0.00  0.00    +0.000 A 
ATOM      9  O   UNL     1       2.283   3.008  16.808  0.00  0.00    +0.000 OA
ATOM     10  C   UNL     1       3.954   4.641  17.195  0.00  0.00    +0.000 A 
ATOM     11  C   UNL     1       4.721   4.264  16.087  0.00  0.00    +0.000 A 
ATOM     12  H   UNL     1       3.759   6.915  19.621  0.00  0.00    +0.000 HD
ENDROOT
BRANCH   1  13
ATOM     13  C   UNL     1       6.712   4.674  14.584  0.00  0.00    +0.000 C 
ATOM     14  O   UNL     1       7.608   5.402  14.187  0.00  0.00    +0.000 OA
BRANCH  13  15
ATOM     15  O   UNL     1       6.209   3.596  13.939  0.00  0.00    +0.000 OA
BRANCH  15  17
ATOM     16  C   UNL     1       5.083   3.236  11.869  0.00  0.00    +0.000 C 
ATOM     17  C   UNL     1       6.412   3.573  12.521  0.00  0.00    +0.000 C 
ENDBRANCH  15  17
ENDBRANCH  13  15
ENDBRANCH   1  13
BRANCH   6  18
ATOM     18  C   UNL     1       1.560   5.900  20.625  0.00  0.00    +0.000 C 
BRANCH  18  19
ATOM     19  S   UNL     1       2.151   7.543  21.134  0.00  0.00    +0.000 S 
BRANCH  19  20
ATOM     20  C   UNL     1       1.279   8.590  20.065  0.00  0.00    +0.000 A 
ATOM     21  N   UNL     1       1.607   8.933  18.845  0.00  0.00    +0.000 NA
ATOM     22  N   UNL     1       0.617   9.765  18.372  0.00  0.00    +0.000 NA
ATOM     23  C   UNL     1      -0.298   9.937  19.317  0.00  0.00    +0.000 A 
ATOM     24  N   UNL     1       0.088   9.180  20.409  0.00  0.00    +0.000 N 
ATOM     25  C   UNL     1      -0.619   8.950  21.643  0.00  0.00    +0.000 C 
BRANCH  23  26
ATOM     26  C   UNL     1      -1.523  10.738  19.161  0.00  0.00    +0.000 A 
ATOM     27  C   UNL     1      -1.760  11.816  20.033  0.00  0.00    +0.000 A 
ATOM     28  C   UNL     1      -2.890  12.633  19.891  0.00  0.00    +0.000 A 
ATOM     29  C   UNL     1      -3.801  12.385  18.869  0.00  0.00    +0.000 A 
ATOM     30  C   UNL     1      -3.590  11.304  18.026  0.00  0.00    +0.000 A 
ATOM     31  F   UNL     1      -4.460  11.061  17.036  0.00  0.00    +0.000 F 
ATOM     32  C   UNL     1      -2.485  10.469  18.178  0.00  0.00    +0.000 A 
ENDBRANCH  23  26
ENDBRANCH  19  20
ENDBRANCH  18  19
ENDBRANCH   6  18
TORSDOF 7
ENDMDL
MODEL 5
REMARK VINA RESULT:      -7.9      4.499      6.767
REMARK  Name = 
REMARK  9 active torsions:
REMARK  status: ('A' for Active; 'I' for Inactive)
REMARK    1  A    between atoms: C_1  and  C_2
REMARK    2  A    between atoms: C_2  and  O_3
REMARK    3  A    between atoms: O_3  and  C_4
REMARK    4  A    between atoms: C_4  and  C_6
REMARK    5  A    between atoms: C_11  and  C_12
REMARK    6  A    between atoms: C_12  and  S_13
REMARK    7  A    between atoms: S_13  and  C_14
REMARK    8  A    between atoms: C_17  and  C_18
REMARK    9  A    between atoms: N_25  and  C_26
REMARK                            x       y       z     vdW  Elec       q    Type
REMARK                         _______ _______ _______ _____ _____    ______ ____
ROOT
ATOM      1  C   UNL     1       7.880   8.047  18.005  0.00  0.00    +0.000 A 
ATOM      2  C   UNL     1       8.300   7.058  18.907  0.00  0.00    +0.000 A 
ATOM      3  C   UNL     1       7.763   5.766  18.850  0.00  0.00    +0.000 A 
ATOM      4  C   UNL     1       6.788   5.448  17.901  0.00  0.00    +0.000 A 
ATOM      5  N   UNL     1       6.269   4.149  17.801  0.00  0.00    +0.000 N 
ATOM      6  C   UNL     1       5.270   3.822  16.894  0.00  0.00    +0.000 A 
ATOM      7  C   UNL     1       4.820   4.713  15.992  0.00  0.00    +0.000 A 
ATOM      8  C   UNL     1       5.370   6.090  15.972  0.00  0.00    +0.000 A 
ATOM      9  O   UNL     1       4.972   6.907  15.151  0.00  0.00    +0.000 OA
ATOM     10  C   UNL     1       6.396   6.436  16.984  0.00  0.00    +0.000 A 
ATOM     11  C   UNL     1       6.928   7.730  17.031  0.00  0.00    +0.000 A 
ATOM     12  H   UNL     1       6.413   3.514  18.580  0.00  0.00    +0.000 HD
ENDROOT
BRANCH   1  13
ATOM     13  C   UNL     1       8.409   9.427  18.180  0.00  0.00    +0.000 C 
ATOM     14  O   UNL     1       8.183  10.340  17.403  0.00  0.00    +0.000 OA
BRANCH  13  15
ATOM     15  O   UNL     1       9.264   9.458  19.229  0.00  0.00    +0.000 OA
BRANCH  15  17
ATOM     16  C   UNL     1       9.353  11.175  20.881  0.00  0.00    +0.000 C 
ATOM     17  C   UNL     1       9.848  10.735  19.514  0.00  0.00    +0.000 C 
ENDBRANCH  15  17
ENDBRANCH  13  15
ENDBRANCH   1  13
BRANCH   6  18
ATOM     18  C   UNL     1       4.714   2.405  16.919  0.00  0.00    +0.000 C 
BRANCH  18  19
ATOM     19  S   UNL     1       3.457   2.264  18.226  0.00  0.00    +0.000 S 
BRANCH  19  20
ATOM     20  C   UNL     1       3.475   3.850  18.921  0.00  0.00    +0.000 A 
ATOM     21  N   UNL     1       4.303   4.315  19.821  0.00  0.00    +0.000 NA
ATOM     22  N   UNL     1       3.953   5.625  20.064  0.00  0.00    +0.000 NA
ATOM     23  C   UNL     1       2.900   5.941  19.320  0.00  0.00    +0.000 A 
ATOM     24  N   UNL     1       2.582   4.830  18.561  0.00  0.00    +0.000 N 
ATOM     25  C   UNL     1       1.588   4.697  17.526  0.00  0.00    +0.000 C 
BRANCH  23  26
ATOM     26  C   UNL     1       2.267   7.269  19.288  0.00  0.00    +0.000 A 
ATOM     27  C   UNL     1       2.315   8.029  18.105  0.00  0.00    +0.000 A 
ATOM     28  C   UNL     1       1.687   9.277  18.014  0.00  0.00    +0.000 A 
ATOM     29  C   UNL     1       0.994   9.786  19.109  0.00  0.00    +0.000 A 
ATOM     30  C   UNL     1       0.970   9.057  20.289  0.00  0.00    +0.000 A 
ATOM     31  F   UNL     1       0.302   9.537  21.347  0.00  0.00    +0.000 F 
ATOM     32  C   UNL     1       1.618   7.828  20.397  0.00  0.00    +0.000 A 
ENDBRANCH  23  26
ENDBRANCH  19  20
ENDBRANCH  18  19
ENDBRANCH   6  18
TORSDOF 7
ENDMDL
MODEL 6
REMARK VINA RESULT:      -7.9      4.660      6.900
REMARK  Name = 
REMARK  9 active torsions:
REMARK  status: ('A' for Active; 'I' for Inactive)
REMARK    1  A    between atoms: C_1  and  C_2
REMARK    2  A    between atoms: C_2  and  O_3
REMARK    3  A    between atoms: O_3  and  C_4
REMARK    4  A    between atoms: C_4  and  C_6
REMARK    5  A    between atoms: C_11  and  C_12
REMARK    6  A    between atoms: C_12  and  S_13
REMARK    7  A    between atoms: S_13  and  C_14
REMARK    8  A    between atoms: C_17  and  C_18
REMARK    9  A    between atoms: N_25  and  C_26
REMARK                            x       y       z     vdW  Elec       q    Type
REMARK                         _______ _______ _______ _____ _____    ______ ____
ROOT
ATOM      1  C   UNL     1       7.887   8.063  18.007  0.00  0.00    +0.000 A 
ATOM      2  C   UNL     1       8.342   7.072  18.889  0.00  0.00    +0.000 A 
ATOM      3  C   UNL     1       7.834   5.769  18.821  0.00  0.00    +0.000 A 
ATOM      4  C   UNL     1       6.855   5.441  17.880  0.00  0.00    +0.000 A 
ATOM      5  N   UNL     1       6.365   4.131  17.769  0.00  0.00    +0.000 N 
ATOM      6  C   UNL     1       5.363   3.794  16.869  0.00  0.00    +0.000 A 
ATOM      7  C   UNL     1       4.880   4.686  15.986  0.00  0.00    +0.000 A 
ATOM      8  C   UNL     1       5.397   6.076  15.979  0.00  0.00    +0.000 A 
ATOM      9  O   UNL     1       4.969   6.895  15.174  0.00  0.00    +0.000 OA
ATOM     10  C   UNL     1       6.428   6.432  16.982  0.00  0.00    +0.000 A 
ATOM     11  C   UNL     1       6.930   7.737  17.041  0.00  0.00    +0.000 A 
ATOM     12  H   UNL     1       6.535   3.489  18.536  0.00  0.00    +0.000 HD
ENDROOT
BRANCH   1  13
ATOM     13  C   UNL     1       8.385   9.453  18.195  0.00  0.00    +0.000 C 
ATOM     14  O   UNL     1       8.067  10.387  17.477  0.00  0.00    +0.000 OA
BRANCH  13  15
ATOM     15  O   UNL     1       9.323   9.473  19.171  0.00  0.00    +0.000 OA
BRANCH  15  17
ATOM     16  C   UNL     1      10.713  11.371  19.556  0.00  0.00    +0.000 C 
ATOM     17  C   UNL     1       9.406  10.689  19.923  0.00  0.00    +0.000 C 
ENDBRANCH  15  17
ENDBRANCH  13  15
ENDBRANCH   1  13
BRANCH   6  18
ATOM     18  C   UNL     1       4.840   2.364  16.882  0.00  0.00    +0.000 C 
BRANCH  18  19
ATOM     19  S   UNL     1       3.449   2.229  18.045  0.00  0.00    +0.000 S 
BRANCH  19  20
ATOM     20  C   UNL     1       3.479   3.774  18.828  0.00  0.00    +0.000 A 
ATOM     21  N   UNL     1       4.346   4.202  19.710  0.00  0.00    +0.000 NA
ATOM     22  N   UNL     1       3.990   5.490  20.045  0.00  0.00    +0.000 NA
ATOM     23  C   UNL     1       2.897   5.829  19.375  0.00  0.00    +0.000 A 
ATOM     24  N   UNL     1       2.556   4.757  18.570  0.00  0.00    +0.000 N 
ATOM     25  C   UNL     1       1.512   4.666  17.580  0.00  0.00    +0.000 C 
BRANCH  23  26
ATOM     26  C   UNL     1       2.244   7.145  19.450  0.00  0.00    +0.000 A 
ATOM     27  C   UNL     1       1.594   7.528  20.637  0.00  0.00    +0.000 A 
ATOM     28  C   UNL     1       1.000   8.790  20.769  0.00  0.00    +0.000 A 
ATOM     29  C   UNL     1       1.049   9.694  19.712  0.00  0.00    +0.000 A 
ATOM     30  C   UNL     1       1.660   9.311  18.527  0.00  0.00    +0.000 A 
ATOM     31  F   UNL     1       1.716  10.176  17.505  0.00  0.00    +0.000 F 
ATOM     32  C   UNL     1       2.227   8.047  18.377  0.00  0.00    +0.000 A 
ENDBRANCH  23  26
ENDBRANCH  19  20
ENDBRANCH  18  19
ENDBRANCH   6  18
TORSDOF 7
ENDMDL
MODEL 7
REMARK VINA RESULT:      -7.9      7.434     10.763
REMARK  Name = 
REMARK  9 active torsions:
REMARK  status: ('A' for Active; 'I' for Inactive)
REMARK    1  A    between atoms: C_1  and  C_2
REMARK    2  A    between atoms: C_2  and  O_3
REMARK    3  A    between atoms: O_3  and  C_4
REMARK    4  A    between atoms: C_4  and  C_6
REMARK    5  A    between atoms: C_11  and  C_12
REMARK    6  A    between atoms: C_12  and  S_13
REMARK    7  A    between atoms: S_13  and  C_14
REMARK    8  A    between atoms: C_17  and  C_18
REMARK    9  A    between atoms: N_25  and  C_26
REMARK                            x       y       z     vdW  Elec       q    Type
REMARK                         _______ _______ _______ _____ _____    ______ ____
ROOT
ATOM      1  C   UNL     1      11.028  14.424  18.321  0.00  0.00    +0.000 A 
ATOM      2  C   UNL     1      11.874  13.605  19.084  0.00  0.00    +0.000 A 
ATOM      3  C   UNL     1      11.549  12.263  19.317  0.00  0.00    +0.000 A 
ATOM      4  C   UNL     1      10.367  11.724  18.802  0.00  0.00    +0.000 A 
ATOM      5  N   UNL     1      10.046  10.371  18.989  0.00  0.00    +0.000 N 
ATOM      6  C   UNL     1       8.857   9.826  18.523  0.00  0.00    +0.000 A 
ATOM      7  C   UNL     1       7.998  10.544  17.778  0.00  0.00    +0.000 A 
ATOM      8  C   UNL     1       8.296  11.962  17.464  0.00  0.00    +0.000 A 
ATOM      9  O   UNL     1       7.523  12.624  16.780  0.00  0.00    +0.000 OA
ATOM     10  C   UNL     1       9.542  12.543  18.015  0.00  0.00    +0.000 A 
ATOM     11  C   UNL     1       9.858  13.885  17.776  0.00  0.00    +0.000 A 
ATOM     12  H   UNL     1      10.541   9.855  19.709  0.00  0.00    +0.000 HD
ENDROOT
BRANCH   1  13
ATOM     13  C   UNL     1      11.372  15.866  18.196  0.00  0.00    +0.000 C 
ATOM     14  O   UNL     1      11.327  16.482  17.143  0.00  0.00    +0.000 OA
BRANCH  13  15
ATOM     15  O   UNL     1      11.860  16.323  19.373  0.00  0.00    +0.000 OA
BRANCH  15  17
ATOM     16  C   UNL     1      11.138  16.469  21.640  0.00  0.00    +0.000 C 
ATOM     17  C   UNL     1      10.910  16.972  20.226  0.00  0.00    +0.000 C 
ENDBRANCH  15  17
ENDBRANCH  13  15
ENDBRANCH   1  13
BRANCH   6  18
ATOM     18  C   UNL     1       8.561   8.368  18.848  0.00  0.00    +0.000 C 
BRANCH  18  19
ATOM     19  S   UNL     1       7.664   7.602  17.464  0.00  0.00    +0.000 S 
BRANCH  19  20
ATOM     20  C   UNL     1       6.773   6.347  18.259  0.00  0.00    +0.000 A 
ATOM     21  N   UNL     1       7.161   5.616  19.272  0.00  0.00    +0.000 NA
ATOM     22  N   UNL     1       6.127   4.760  19.582  0.00  0.00    +0.000 NA
ATOM     23  C   UNL     1       5.123   4.966  18.740  0.00  0.00    +0.000 A 
ATOM     24  N   UNL     1       5.498   5.992  17.891  0.00  0.00    +0.000 N 
ATOM     25  C   UNL     1       4.721   6.653  16.874  0.00  0.00    +0.000 C 
BRANCH  23  26
ATOM     26  C   UNL     1       3.833   4.259  18.786  0.00  0.00    +0.000 A 
ATOM     27  C   UNL     1       3.652   3.100  18.009  0.00  0.00    +0.000 A 
ATOM     28  C   UNL     1       2.458   2.369  18.057  0.00  0.00    +0.000 A 
ATOM     29  C   UNL     1       1.423   2.786  18.890  0.00  0.00    +0.000 A 
ATOM     30  C   UNL     1       1.583   3.945  19.634  0.00  0.00    +0.000 A 
ATOM     31  F   UNL     1       0.594   4.351  20.442  0.00  0.00    +0.000 F 
ATOM     32  C   UNL     1       2.756   4.695  19.569  0.00  0.00    +0.000 A 
ENDBRANCH  23  26
ENDBRANCH  19  20
ENDBRANCH  18  19
ENDBRANCH   6  18
TORSDOF 7
ENDMDL
MODEL 8
REMARK VINA RESULT:      -7.9      2.536      3.742
REMARK  Name = 
REMARK  9 active torsions:
REMARK  status: ('A' for Active; 'I' for Inactive)
REMARK    1  A    between atoms: C_1  and  C_2
REMARK    2  A    between atoms: C_2  and  O_3
REMARK    3  A    between atoms: O_3  and  C_4
REMARK    4  A    between atoms: C_4  and  C_6
REMARK    5  A    between atoms: C_11  and  C_12
REMARK    6  A    between atoms: C_12  and  S_13
REMARK    7  A    between atoms: S_13  and  C_14
REMARK    8  A    between atoms: C_17  and  C_18
REMARK    9  A    between atoms: N_25  and  C_26
REMARK                            x       y       z     vdW  Elec       q    Type
REMARK                         _______ _______ _______ _____ _____    ______ ____
ROOT
ATOM      1  C   UNL     1       3.266   4.188  19.692  0.00  0.00    +0.000 A 
ATOM      2  C   UNL     1       2.347   4.638  20.652  0.00  0.00    +0.000 A 
ATOM      3  C   UNL     1       1.837   5.940  20.594  0.00  0.00    +0.000 A 
ATOM      4  C   UNL     1       2.246   6.816  19.586  0.00  0.00    +0.000 A 
ATOM      5  N   UNL     1       1.714   8.110  19.488  0.00  0.00    +0.000 N 
ATOM      6  C   UNL     1       2.139   9.009  18.520  0.00  0.00    +0.000 A 
ATOM      7  C   UNL     1       3.012   8.651  17.561  0.00  0.00    +0.000 A 
ATOM      8  C   UNL     1       3.567   7.276  17.540  0.00  0.00    +0.000 A 
ATOM      9  O   UNL     1       4.357   6.938  16.667  0.00  0.00    +0.000 OA
ATOM     10  C   UNL     1       3.144   6.347  18.613  0.00  0.00    +0.000 A 
ATOM     11  C   UNL     1       3.659   5.047  18.661  0.00  0.00    +0.000 A 
ATOM     12  H   UNL     1       1.228   8.491  20.294  0.00  0.00    +0.000 HD
ENDROOT
BRANCH   1  13
ATOM     13  C   UNL     1       3.854   2.831  19.865  0.00  0.00    +0.000 C 
ATOM     14  O   UNL     1       5.041   2.630  20.063  0.00  0.00    +0.000 OA
BRANCH  13  15
ATOM     15  O   UNL     1       2.908   1.892  19.631  0.00  0.00    +0.000 OA
BRANCH  15  17
ATOM     16  C   UNL     1       0.739   2.144  18.675  0.00  0.00    +0.000 C 
ATOM     17  C   UNL     1       2.222   2.004  18.378  0.00  0.00    +0.000 C 
ENDBRANCH  15  17
ENDBRANCH  13  15
ENDBRANCH   1  13
BRANCH   6  18
ATOM     18  C   UNL     1       1.561  10.418  18.547  0.00  0.00    +0.000 C 
BRANCH  18  19
ATOM     19  S   UNL     1      -0.237  10.338  18.807  0.00  0.00    +0.000 S 
BRANCH  19  20
ATOM     20  C   UNL     1      -0.389  10.846  20.456  0.00  0.00    +0.000 A 
ATOM     21  N   UNL     1       0.329  10.456  21.477  0.00  0.00    +0.000 NA
ATOM     22  N   UNL     1      -0.132  11.131  22.585  0.00  0.00    +0.000 NA
ATOM     23  C   UNL     1      -1.142  11.914  22.231  0.00  0.00    +0.000 A 
ATOM     24  N   UNL     1      -1.318  11.769  20.867  0.00  0.00    +0.000 N 
ATOM     25  C   UNL     1      -2.215  12.481  19.991  0.00  0.00    +0.000 C 
BRANCH  23  26
ATOM     26  C   UNL     1      -1.864  12.814  23.145  0.00  0.00    +0.000 A 
ATOM     27  C   UNL     1      -3.164  12.475  23.564  0.00  0.00    +0.000 A 
ATOM     28  C   UNL     1      -3.870  13.278  24.469  0.00  0.00    +0.000 A 
ATOM     29  C   UNL     1      -3.284  14.435  24.974  0.00  0.00    +0.000 A 
ATOM     30  C   UNL     1      -2.016  14.792  24.539  0.00  0.00    +0.000 A 
ATOM     31  F   UNL     1      -1.442  15.902  25.023  0.00  0.00    +0.000 F 
ATOM     32  C   UNL     1      -1.319  14.015  23.616  0.00  0.00    +0.000 A 
ENDBRANCH  23  26
ENDBRANCH  19  20
ENDBRANCH  18  19
ENDBRANCH   6  18
TORSDOF 7
ENDMDL
MODEL 9
REMARK VINA RESULT:      -7.8      5.095     11.454
REMARK  Name = 
REMARK  9 active torsions:
REMARK  status: ('A' for Active; 'I' for Inactive)
REMARK    1  A    between atoms: C_1  and  C_2
REMARK    2  A    between atoms: C_2  and  O_3
REMARK    3  A    between atoms: O_3  and  C_4
REMARK    4  A    between atoms: C_4  and  C_6
REMARK    5  A    between atoms: C_11  and  C_12
REMARK    6  A    between atoms: C_12  and  S_13
REMARK    7  A    between atoms: S_13  and  C_14
REMARK    8  A    between atoms: C_17  and  C_18
REMARK    9  A    between atoms: N_25  and  C_26
REMARK                            x       y       z     vdW  Elec       q    Type
REMARK                         _______ _______ _______ _____ _____    ______ ____
ROOT
ATOM      1  C   UNL     1      -0.295  10.800  20.506  0.00  0.00    +0.000 A 
ATOM      2  C   UNL     1      -0.284  10.075  21.708  0.00  0.00    +0.000 A 
ATOM      3  C   UNL     1       0.431   8.876  21.810  0.00  0.00    +0.000 A 
ATOM      4  C   UNL     1       1.133   8.377  20.711  0.00  0.00    +0.000 A 
ATOM      5  N   UNL     1       1.889   7.198  20.808  0.00  0.00    +0.000 N 
ATOM      6  C   UNL     1       2.560   6.663  19.717  0.00  0.00    +0.000 A 
ATOM      7  C   UNL     1       2.602   7.301  18.534  0.00  0.00    +0.000 A 
ATOM      8  C   UNL     1       1.897   8.594  18.364  0.00  0.00    +0.000 A 
ATOM      9  O   UNL     1       1.935   9.188  17.292  0.00  0.00    +0.000 OA
ATOM     10  C   UNL     1       1.141   9.124  19.523  0.00  0.00    +0.000 A 
ATOM     11  C   UNL     1       0.431  10.324  19.410  0.00  0.00    +0.000 A 
ATOM     12  H   UNL     1       1.717   6.581  21.595  0.00  0.00    +0.000 HD
ENDROOT
BRANCH   1  13
ATOM     13  C   UNL     1      -1.156  12.012  20.425  0.00  0.00    +0.000 C 
ATOM     14  O   UNL     1      -1.341  12.640  19.395  0.00  0.00    +0.000 OA
BRANCH  13  15
ATOM     15  O   UNL     1      -1.566  12.364  21.666  0.00  0.00    +0.000 OA
BRANCH  15  17
ATOM     16  C   UNL     1      -1.536  13.900  23.488  0.00  0.00    +0.000 C 
ATOM     17  C   UNL     1      -1.466  13.758  21.978  0.00  0.00    +0.000 C 
ENDBRANCH  15  17
ENDBRANCH  13  15
ENDBRANCH   1  13
BRANCH   6  18
ATOM     18  C   UNL     1       3.285   5.336  19.901  0.00  0.00    +0.000 C 
BRANCH  18  19
ATOM     19  S   UNL     1       5.019   5.508  19.382  0.00  0.00    +0.000 S 
BRANCH  19  20
ATOM     20  C   UNL     1       5.030   4.666  17.868  0.00  0.00    +0.000 A 
ATOM     21  N   UNL     1       4.346   3.598  17.548  0.00  0.00    +0.000 NA
ATOM     22  N   UNL     1       4.655   3.288  16.242  0.00  0.00    +0.000 NA
ATOM     23  C   UNL     1       5.543   4.162  15.785  0.00  0.00    +0.000 A 
ATOM     24  N   UNL     1       5.789   5.071  16.798  0.00  0.00    +0.000 N 
ATOM     25  C   UNL     1       6.594   6.265  16.764  0.00  0.00    +0.000 C 
BRANCH  23  26
ATOM     26  C   UNL     1       6.083   4.167  14.416  0.00  0.00    +0.000 A 
ATOM     27  C   UNL     1       7.173   5.001  14.106  0.00  0.00    +0.000 A 
ATOM     28  C   UNL     1       7.748   5.004  12.828  0.00  0.00    +0.000 A 
ATOM     29  C   UNL     1       7.242   4.167  11.837  0.00  0.00    +0.000 A 
ATOM     30  C   UNL     1       6.147   3.366  12.127  0.00  0.00    +0.000 A 
ATOM     31  F   UNL     1       5.656   2.555  11.181  0.00  0.00    +0.000 F 
ATOM     32  C   UNL     1       5.549   3.380  13.386  0.00  0.00    +0.000 A 
ENDBRANCH  23  26
ENDBRANCH  19  20
ENDBRANCH  18  19
ENDBRANCH   6  18
TORSDOF 7
ENDMDL
