MODEL 1
REMARK VINA RESULT:      -7.0      0.000      0.000
REMARK  Name = 
REMARK  7 active torsions:
REMARK  status: ('A' for Active; 'I' for Inactive)
REMARK    1  A    between atoms: C_1  and  O_2
REMARK    2  A    between atoms: O_2  and  C_3
REMARK    3  A    between atoms: C_8  and  O_9
REMARK    4  A    between atoms: O_9  and  C_10
REMARK    5  A    between atoms: C_13  and  C_15
REMARK    6  A    between atoms: C_15  and  C_16
REMARK    7  A    between atoms: C_16  and  N_17
REMARK                            x       y       z     vdW  Elec       q    Type
REMARK                         _______ _______ _______ _____ _____    ______ ____
ROOT
ATOM      1  C   UNL     1       3.168   4.611  19.453  0.00  0.00    +0.000 A 
ATOM      2  C   UNL     1       4.538   4.928  19.378  0.00  0.00    +0.000 A 
ATOM      3  C   UNL     1       5.280   4.615  18.240  0.00  0.00    +0.000 A 
ATOM      4  C   UNL     1       4.654   3.945  17.182  0.00  0.00    +0.000 A 
ATOM      5  C   UNL     1       3.289   3.642  17.246  0.00  0.00    +0.000 A 
ATOM      6  C   UNL     1       2.528   3.990  18.362  0.00  0.00    +0.000 A 
ATOM      7  C   UNL     1       5.478   3.530  15.998  0.00  0.00    +0.000 C 
ATOM      8  N   UNL     1       6.453   4.538  15.594  0.00  0.00    +0.000 N 
ATOM      9  C   UNL     1       6.862   4.713  14.272  0.00  0.00    +0.000 C 
ATOM     10  O   UNL     1       7.686   5.563  13.946  0.00  0.00    +0.000 OA
ATOM     11  C   UNL     1       7.001   5.426  16.633  0.00  0.00    +0.000 C 
ATOM     12  C   UNL     1       6.737   4.953  18.073  0.00  0.00    +0.000 C 
ENDROOT
BRANCH   1  14
ATOM     13  C   UNL     1       2.306   4.020  21.590  0.00  0.00    +0.000 C 
ATOM     14  O   UNL     1       2.576   5.026  20.620  0.00  0.00    +0.000 OA
ENDBRANCH   1  14
BRANCH   6  15
ATOM     15  O   UNL     1       1.178   3.772  18.438  0.00  0.00    +0.000 OA
ATOM     16  C   UNL     1       0.719   2.467  18.757  0.00  0.00    +0.000 C 
ENDBRANCH   6  15
BRANCH   9  17
ATOM     17  C   UNL     1       6.225   3.776  13.252  0.00  0.00    +0.000 C 
BRANCH  17  18
ATOM     18  C   UNL     1       7.032   3.640  11.970  0.00  0.00    +0.000 C 
BRANCH  18  19
ATOM     19  N   UNL     1       7.049   2.238  11.543  0.00  0.00    +0.000 NA
ATOM     20  H   UNL     1       6.096   1.918  11.377  0.00  0.00    +0.000 HD
ATOM     21  H   UNL     1       7.409   1.663  12.304  0.00  0.00    +0.000 HD
ENDBRANCH  18  19
ENDBRANCH  17  18
ENDBRANCH   9  17
TORSDOF 5
ENDMDL
MODEL 2
REMARK VINA RESULT:      -6.6      2.594      6.894
REMARK  Name = 
REMARK  7 active torsions:
REMARK  status: ('A' for Active; 'I' for Inactive)
REMARK    1  A    between atoms: C_1  and  O_2
REMARK    2  A    between atoms: O_2  and  C_3
REMARK    3  A    between atoms: C_8  and  O_9
REMARK    4  A    between atoms: O_9  and  C_10
REMARK    5  A    between atoms: C_13  and  C_15
REMARK    6  A    between atoms: C_15  and  C_16
REMARK    7  A    between atoms: C_16  and  N_17
REMARK                            x       y       z     vdW  Elec       q    Type
REMARK                         _______ _______ _______ _____ _____    ______ ____
ROOT
ATOM      1  C   UNL     1       6.506   5.385  15.794  0.00  0.00    +0.000 A 
ATOM      2  C   UNL     1       5.811   4.161  15.785  0.00  0.00    +0.000 A 
ATOM      3  C   UNL     1       4.950   3.824  16.829  0.00  0.00    +0.000 A 
ATOM      4  C   UNL     1       4.813   4.703  17.910  0.00  0.00    +0.000 A 
ATOM      5  C   UNL     1       5.490   5.928  17.915  0.00  0.00    +0.000 A 
ATOM      6  C   UNL     1       6.319   6.294  16.854  0.00  0.00    +0.000 A 
ATOM      7  C   UNL     1       3.956   4.294  19.073  0.00  0.00    +0.000 C 
ATOM      8  N   UNL     1       2.725   3.619  18.672  0.00  0.00    +0.000 N 
ATOM      9  C   UNL     1       1.540   3.704  19.400  0.00  0.00    +0.000 C 
ATOM     10  O   UNL     1       0.512   3.128  19.054  0.00  0.00    +0.000 OA
ATOM     11  C   UNL     1       2.740   2.841  17.422  0.00  0.00    +0.000 C 
ATOM     12  C   UNL     1       4.148   2.550  16.873  0.00  0.00    +0.000 C 
ENDROOT
BRANCH   1  14
ATOM     13  C   UNL     1       7.052   4.695  13.583  0.00  0.00    +0.000 C 
ATOM     14  O   UNL     1       7.275   5.582  14.674  0.00  0.00    +0.000 OA
ENDBRANCH   1  14
BRANCH   6  15
ATOM     15  O   UNL     1       6.948   7.509  16.787  0.00  0.00    +0.000 OA
ATOM     16  C   UNL     1       7.852   7.862  17.824  0.00  0.00    +0.000 C 
ENDBRANCH   6  15
BRANCH   9  17
ATOM     17  C   UNL     1       1.599   4.554  20.665  0.00  0.00    +0.000 C 
BRANCH  17  18
ATOM     18  C   UNL     1       2.170   3.815  21.865  0.00  0.00    +0.000 C 
BRANCH  18  19
ATOM     19  N   UNL     1       1.617   2.458  21.917  0.00  0.00    +0.000 NA
ATOM     20  H   UNL     1       0.600   2.499  21.868  0.00  0.00    +0.000 HD
ATOM     21  H   UNL     1       1.837   2.044  22.823  0.00  0.00    +0.000 HD
ENDBRANCH  18  19
ENDBRANCH  17  18
ENDBRANCH   9  17
TORSDOF 5
ENDMDL
MODEL 3
REMARK VINA RESULT:      -6.6      2.498      6.517
REMARK  Name = 
REMARK  7 active torsions:
REMARK  status: ('A' for Active; 'I' for Inactive)
REMARK    1  A    between atoms: C_1  and  O_2
REMARK    2  A    between atoms: O_2  and  C_3
REMARK    3  A    between atoms: C_8  and  O_9
REMARK    4  A    between atoms: O_9  and  C_10
REMARK    5  A    between atoms: C_13  and  C_15
REMARK    6  A    between atoms: C_15  and  C_16
REMARK    7  A    between atoms: C_16  and  N_17
REMARK                            x       y       z     vdW  Elec       q    Type
REMARK                         _______ _______ _______ _____ _____    ______ ____
ROOT
ATOM      1  C   UNL     1       7.097   5.002  14.733  0.00  0.00    +0.000 A 
ATOM      2  C   UNL     1       6.944   5.516  16.035  0.00  0.00    +0.000 A 
ATOM      3  C   UNL     1       5.872   5.119  16.835  0.00  0.00    +0.000 A 
ATOM      4  C   UNL     1       4.925   4.230  16.312  0.00  0.00    +0.000 A 
ATOM      5  C   UNL     1       5.083   3.706  15.024  0.00  0.00    +0.000 A 
ATOM      6  C   UNL     1       6.175   4.063  14.232  0.00  0.00    +0.000 A 
ATOM      7  C   UNL     1       3.726   3.877  17.143  0.00  0.00    +0.000 C 
ATOM      8  N   UNL     1       4.042   3.676  18.554  0.00  0.00    +0.000 N 
ATOM      9  C   UNL     1       3.345   2.787  19.370  0.00  0.00    +0.000 C 
ATOM     10  O   UNL     1       3.619   2.630  20.557  0.00  0.00    +0.000 OA
ATOM     11  C   UNL     1       5.172   4.430  19.123  0.00  0.00    +0.000 C 
ATOM     12  C   UNL     1       5.661   5.596  18.247  0.00  0.00    +0.000 C 
ENDROOT
BRANCH   1  14
ATOM     13  C   UNL     1       8.102   5.749  12.709  0.00  0.00    +0.000 C 
ATOM     14  O   UNL     1       8.226   5.460  14.098  0.00  0.00    +0.000 OA
ENDBRANCH   1  14
BRANCH   6  15
ATOM     15  O   UNL     1       6.403   3.524  12.994  0.00  0.00    +0.000 OA
ATOM     16  C   UNL     1       5.291   3.288  12.143  0.00  0.00    +0.000 C 
ENDBRANCH   6  15
BRANCH   9  17
ATOM     17  C   UNL     1       2.210   2.022  18.698  0.00  0.00    +0.000 C 
BRANCH  17  18
ATOM     18  C   UNL     1       0.842   2.644  18.928  0.00  0.00    +0.000 C 
BRANCH  18  19
ATOM     19  N   UNL     1       0.726   3.079  20.324  0.00  0.00    +0.000 NA
ATOM     20  H   UNL     1      -0.257   3.188  20.569  0.00  0.00    +0.000 HD
ATOM     21  H   UNL     1       1.143   4.004  20.420  0.00  0.00    +0.000 HD
ENDBRANCH  18  19
ENDBRANCH  17  18
ENDBRANCH   9  17
TORSDOF 5
ENDMDL
MODEL 4
REMARK VINA RESULT:      -6.6      2.739      6.209
REMARK  Name = 
REMARK  7 active torsions:
REMARK  status: ('A' for Active; 'I' for Inactive)
REMARK    1  A    between atoms: C_1  and  O_2
REMARK    2  A    between atoms: O_2  and  C_3
REMARK    3  A    between atoms: C_8  and  O_9
REMARK    4  A    between atoms: O_9  and  C_10
REMARK    5  A    between atoms: C_13  and  C_15
REMARK    6  A    between atoms: C_15  and  C_16
REMARK    7  A    between atoms: C_16  and  N_17
REMARK                            x       y       z     vdW  Elec       q    Type
REMARK                         _______ _______ _______ _____ _____    ______ ____
ROOT
ATOM      1  C   UNL     1       6.353   6.347  16.741  0.00  0.00    +0.000 A 
ATOM      2  C   UNL     1       5.406   7.021  17.536  0.00  0.00    +0.000 A 
ATOM      3  C   UNL     1       4.178   6.430  17.835  0.00  0.00    +0.000 A 
ATOM      4  C   UNL     1       3.880   5.171  17.302  0.00  0.00    +0.000 A 
ATOM      5  C   UNL     1       4.825   4.491  16.524  0.00  0.00    +0.000 A 
ATOM      6  C   UNL     1       6.073   5.054  16.256  0.00  0.00    +0.000 A 
ATOM      7  C   UNL     1       2.523   4.581  17.551  0.00  0.00    +0.000 C 
ATOM      8  N   UNL     1       2.041   4.800  18.911  0.00  0.00    +0.000 N 
ATOM      9  C   UNL     1       1.207   3.902  19.576  0.00  0.00    +0.000 C 
ATOM     10  O   UNL     1       0.805   4.101  20.720  0.00  0.00    +0.000 OA
ATOM     11  C   UNL     1       2.488   6.013  19.616  0.00  0.00    +0.000 C 
ATOM     12  C   UNL     1       3.132   7.074  18.705  0.00  0.00    +0.000 C 
ENDROOT
BRANCH   1  14
ATOM     13  C   UNL     1       7.781   8.084  17.519  0.00  0.00    +0.000 C 
ATOM     14  O   UNL     1       7.524   7.046  16.580  0.00  0.00    +0.000 OA
ENDBRANCH   1  14
BRANCH   6  15
ATOM     15  O   UNL     1       7.050   4.397  15.556  0.00  0.00    +0.000 OA
ATOM     16  C   UNL     1       6.999   4.420  14.137  0.00  0.00    +0.000 C 
ENDBRANCH   6  15
BRANCH   9  17
ATOM     17  C   UNL     1       0.814   2.656  18.790  0.00  0.00    +0.000 C 
BRANCH  17  18
ATOM     18  C   UNL     1       1.620   1.424  19.170  0.00  0.00    +0.000 C 
BRANCH  18  19
ATOM     19  N   UNL     1       2.883   1.411  18.425  0.00  0.00    +0.000 NA
ATOM     20  H   UNL     1       3.613   0.983  18.993  0.00  0.00    +0.000 HD
ATOM     21  H   UNL     1       3.183   2.372  18.262  0.00  0.00    +0.000 HD
ENDBRANCH  18  19
ENDBRANCH  17  18
ENDBRANCH   9  17
TORSDOF 5
ENDMDL
MODEL 5
REMARK VINA RESULT:      -6.5      2.569      6.875
REMARK  Name = 
REMARK  7 active torsions:
REMARK  status: ('A' for Active; 'I' for Inactive)
REMARK    1  A    between atoms: C_1  and  O_2
REMARK    2  A    between atoms: O_2  and  C_3
REMARK    3  A    between atoms: C_8  and  O_9
REMARK    4  A    between atoms: O_9  and  C_10
REMARK    5  A    between atoms: C_13  and  C_15
REMARK    6  A    between atoms: C_15  and  C_16
REMARK    7  A    between atoms: C_16  and  N_17
REMARK                            x       y       z     vdW  Elec       q    Type
REMARK                         _______ _______ _______ _____ _____    ______ ____
ROOT
ATOM      1  C   UNL     1       6.747   5.177  15.819  0.00  0.00    +0.000 A 
ATOM      2  C   UNL     1       5.917   4.043  15.900  0.00  0.00    +0.000 A 
ATOM      3  C   UNL     1       5.085   3.848  17.003  0.00  0.00    +0.000 A 
ATOM      4  C   UNL     1       5.113   4.776  18.050  0.00  0.00    +0.000 A 
ATOM      5  C   UNL     1       5.926   5.913  17.965  0.00  0.00    +0.000 A 
ATOM      6  C   UNL     1       6.729   6.139  16.847  0.00  0.00    +0.000 A 
ATOM      7  C   UNL     1       4.284   4.514  19.274  0.00  0.00    +0.000 C 
ATOM      8  N   UNL     1       2.963   3.974  18.969  0.00  0.00    +0.000 N 
ATOM      9  C   UNL     1       1.840   4.225  19.756  0.00  0.00    +0.000 C 
ATOM     10  O   UNL     1       0.734   3.761  19.490  0.00  0.00    +0.000 OA
ATOM     11  C   UNL     1       2.815   3.154  17.755  0.00  0.00    +0.000 C 
ATOM     12  C   UNL     1       4.145   2.680  17.144  0.00  0.00    +0.000 C 
ENDROOT
BRANCH   1  14
ATOM     13  C   UNL     1       6.909   4.580  13.521  0.00  0.00    +0.000 C 
ATOM     14  O   UNL     1       7.468   5.241  14.651  0.00  0.00    +0.000 OA
ENDBRANCH   1  14
BRANCH   6  15
ATOM     15  O   UNL     1       7.488   7.269  16.694  0.00  0.00    +0.000 OA
ATOM     16  C   UNL     1       7.830   8.018  17.852  0.00  0.00    +0.000 C 
ENDBRANCH   6  15
BRANCH   9  17
ATOM     17  C   UNL     1       2.070   5.108  20.977  0.00  0.00    +0.000 C 
BRANCH  17  18
ATOM     18  C   UNL     1       1.409   6.473  20.869  0.00  0.00    +0.000 C 
BRANCH  18  19
ATOM     19  N   UNL     1       2.293   7.394  20.148  0.00  0.00    +0.000 NA
ATOM     20  H   UNL     1       1.740   8.006  19.551  0.00  0.00    +0.000 HD
ATOM     21  H   UNL     1       2.893   6.858  19.522  0.00  0.00    +0.000 HD
ENDBRANCH  18  19
ENDBRANCH  17  18
ENDBRANCH   9  17
TORSDOF 5
ENDMDL
MODEL 6
REMARK VINA RESULT:      -6.4      2.538      3.894
REMARK  Name = 
REMARK  7 active torsions:
REMARK  status: ('A' for Active; 'I' for Inactive)
REMARK    1  A    between atoms: C_1  and  O_2
REMARK    2  A    between atoms: O_2  and  C_3
REMARK    3  A    between atoms: C_8  and  O_9
REMARK    4  A    between atoms: O_9  and  C_10
REMARK    5  A    between atoms: C_13  and  C_15
REMARK    6  A    between atoms: C_15  and  C_16
REMARK    7  A    between atoms: C_16  and  N_17
REMARK                            x       y       z     vdW  Elec       q    Type
REMARK                         _______ _______ _______ _____ _____    ______ ____
ROOT
ATOM      1  C   UNL     1       1.597   4.438  19.716  0.00  0.00    +0.000 A 
ATOM      2  C   UNL     1       2.182   3.701  18.668  0.00  0.00    +0.000 A 
ATOM      3  C   UNL     1       3.218   4.243  17.908  0.00  0.00    +0.000 A 
ATOM      4  C   UNL     1       3.647   5.549  18.175  0.00  0.00    +0.000 A 
ATOM      5  C   UNL     1       3.079   6.279  19.226  0.00  0.00    +0.000 A 
ATOM      6  C   UNL     1       2.072   5.729  20.019  0.00  0.00    +0.000 A 
ATOM      7  C   UNL     1       4.699   6.160  17.296  0.00  0.00    +0.000 C 
ATOM      8  N   UNL     1       5.763   5.227  16.937  0.00  0.00    +0.000 N 
ATOM      9  C   UNL     1       7.079   5.626  16.710  0.00  0.00    +0.000 C 
ATOM     10  O   UNL     1       7.964   4.830  16.405  0.00  0.00    +0.000 OA
ATOM     11  C   UNL     1       5.425   3.797  16.844  0.00  0.00    +0.000 C 
ATOM     12  C   UNL     1       3.915   3.504  16.797  0.00  0.00    +0.000 C 
ENDROOT
BRANCH   1  14
ATOM     13  C   UNL     1       1.069   2.805  21.364  0.00  0.00    +0.000 C 
ATOM     14  O   UNL     1       0.623   3.744  20.391  0.00  0.00    +0.000 OA
ENDBRANCH   1  14
BRANCH   6  15
ATOM     15  O   UNL     1       1.535   6.382  21.097  0.00  0.00    +0.000 OA
ATOM     16  C   UNL     1       1.368   7.790  21.021  0.00  0.00    +0.000 C 
ENDBRANCH   6  15
BRANCH   9  17
ATOM     17  C   UNL     1       7.354   7.118  16.857  0.00  0.00    +0.000 C 
BRANCH  17  18
ATOM     18  C   UNL     1       7.978   7.489  18.193  0.00  0.00    +0.000 C 
BRANCH  18  19
ATOM     19  N   UNL     1       8.140   6.286  19.014  0.00  0.00    +0.000 NA
ATOM     20  H   UNL     1       8.783   5.641  18.556  0.00  0.00    +0.000 HD
ATOM     21  H   UNL     1       7.246   5.798  19.069  0.00  0.00    +0.000 HD
ENDBRANCH  18  19
ENDBRANCH  17  18
ENDBRANCH   9  17
TORSDOF 5
ENDMDL
MODEL 7
REMARK VINA RESULT:      -6.3      4.294      6.641
REMARK  Name = 
REMARK  7 active torsions:
REMARK  status: ('A' for Active; 'I' for Inactive)
REMARK    1  A    between atoms: C_1  and  O_2
REMARK    2  A    between atoms: O_2  and  C_3
REMARK    3  A    between atoms: C_8  and  O_9
REMARK    4  A    between atoms: O_9  and  C_10
REMARK    5  A    between atoms: C_13  and  C_15
REMARK    6  A    between atoms: C_15  and  C_16
REMARK    7  A    between atoms: C_16  and  N_17
REMARK                            x       y       z     vdW  Elec       q    Type
REMARK                         _______ _______ _______ _____ _____    ______ ____
ROOT
ATOM      1  C   UNL     1       1.472   9.343  18.830  0.00  0.00    +0.000 A 
ATOM      2  C   UNL     1       2.257   8.557  17.965  0.00  0.00    +0.000 A 
ATOM      3  C   UNL     1       2.741   7.315  18.374  0.00  0.00    +0.000 A 
ATOM      4  C   UNL     1       2.471   6.873  19.674  0.00  0.00    +0.000 A 
ATOM      5  C   UNL     1       1.678   7.644  20.532  0.00  0.00    +0.000 A 
ATOM      6  C   UNL     1       1.152   8.868  20.117  0.00  0.00    +0.000 A 
ATOM      7  C   UNL     1       3.071   5.578  20.139  0.00  0.00    +0.000 C 
ATOM      8  N   UNL     1       3.047   4.534  19.120  0.00  0.00    +0.000 N 
ATOM      9  C   UNL     1       2.933   3.178  19.423  0.00  0.00    +0.000 C 
ATOM     10  O   UNL     1       2.919   2.308  18.555  0.00  0.00    +0.000 OA
ATOM     11  C   UNL     1       3.117   4.945  17.708  0.00  0.00    +0.000 C 
ATOM     12  C   UNL     1       3.556   6.404  17.494  0.00  0.00    +0.000 C 
ENDROOT
BRANCH   1  14
ATOM     13  C   UNL     1       1.800  11.683  18.547  0.00  0.00    +0.000 C 
ATOM     14  O   UNL     1       1.039  10.514  18.259  0.00  0.00    +0.000 OA
ENDBRANCH   1  14
BRANCH   6  15
ATOM     15  O   UNL     1       0.319   9.623  20.900  0.00  0.00    +0.000 OA
ATOM     16  C   UNL     1       0.317   9.396  22.302  0.00  0.00    +0.000 C 
ENDBRANCH   6  15
BRANCH   9  17
ATOM     17  C   UNL     1       2.834   2.837  20.906  0.00  0.00    +0.000 C 
BRANCH  17  18
ATOM     18  C   UNL     1       1.403   2.675  21.395  0.00  0.00    +0.000 C 
BRANCH  18  19
ATOM     19  N   UNL     1       0.471   3.029  20.321  0.00  0.00    +0.000 NA
ATOM     20  H   UNL     1      -0.184   3.735  20.653  0.00  0.00    +0.000 HD
ATOM     21  H   UNL     1      -0.092   2.213  20.086  0.00  0.00    +0.000 HD
ENDBRANCH  18  19
ENDBRANCH  17  18
ENDBRANCH   9  17
TORSDOF 5
ENDMDL
MODEL 8
REMARK VINA RESULT:      -6.3      3.359      4.279
REMARK  Name = 
REMARK  7 active torsions:
REMARK  status: ('A' for Active; 'I' for Inactive)
REMARK    1  A    between atoms: C_1  and  O_2
REMARK    2  A    between atoms: O_2  and  C_3
REMARK    3  A    between atoms: C_8  and  O_9
REMARK    4  A    between atoms: O_9  and  C_10
REMARK    5  A    between atoms: C_13  and  C_15
REMARK    6  A    between atoms: C_15  and  C_16
REMARK    7  A    between atoms: C_16  and  N_17
REMARK                            x       y       z     vdW  Elec       q    Type
REMARK                         _______ _______ _______ _____ _____    ______ ____
ROOT
ATOM      1  C   UNL     1       1.437   8.077  20.112  0.00  0.00    +0.000 A 
ATOM      2  C   UNL     1       1.934   6.800  20.433  0.00  0.00    +0.000 A 
ATOM      3  C   UNL     1       2.817   6.143  19.576  0.00  0.00    +0.000 A 
ATOM      4  C   UNL     1       3.175   6.754  18.369  0.00  0.00    +0.000 A 
ATOM      5  C   UNL     1       2.695   8.031  18.053  0.00  0.00    +0.000 A 
ATOM      6  C   UNL     1       1.846   8.714  18.924  0.00  0.00    +0.000 A 
ATOM      7  C   UNL     1       4.053   6.005  17.409  0.00  0.00    +0.000 C 
ATOM      8  N   UNL     1       5.129   5.270  18.067  0.00  0.00    +0.000 N 
ATOM      9  C   UNL     1       6.370   5.046  17.472  0.00  0.00    +0.000 C 
ATOM     10  O   UNL     1       7.267   4.422  18.036  0.00  0.00    +0.000 OA
ATOM     11  C   UNL     1       4.894   4.776  19.434  0.00  0.00    +0.000 C 
ATOM     12  C   UNL     1       3.418   4.794  19.868  0.00  0.00    +0.000 C 
ENDROOT
BRANCH   1  14
ATOM     13  C   UNL     1       1.253   9.127  22.239  0.00  0.00    +0.000 C 
ATOM     14  O   UNL     1       0.616   8.601  21.080  0.00  0.00    +0.000 OA
ENDBRANCH   1  14
BRANCH   6  15
ATOM     15  O   UNL     1       1.406   9.989  18.685  0.00  0.00    +0.000 OA
ATOM     16  C   UNL     1       0.079  10.170  18.213  0.00  0.00    +0.000 C 
ENDBRANCH   6  15
BRANCH   9  17
ATOM     17  C   UNL     1       6.546   5.616  16.070  0.00  0.00    +0.000 C 
BRANCH  17  18
ATOM     18  C   UNL     1       6.828   4.556  15.017  0.00  0.00    +0.000 C 
BRANCH  18  19
ATOM     19  N   UNL     1       6.215   3.287  15.417  0.00  0.00    +0.000 NA
ATOM     20  H   UNL     1       6.080   3.274  16.427  0.00  0.00    +0.000 HD
ATOM     21  H   UNL     1       6.862   2.526  15.212  0.00  0.00    +0.000 HD
ENDBRANCH  18  19
ENDBRANCH  17  18
ENDBRANCH   9  17
TORSDOF 5
ENDMDL
MODEL 9
REMARK VINA RESULT:      -6.2      3.894      5.091
REMARK  Name = 
REMARK  7 active torsions:
REMARK  status: ('A' for Active; 'I' for Inactive)
REMARK    1  A    between atoms: C_1  and  O_2
REMARK    2  A    between atoms: O_2  and  C_3
REMARK    3  A    between atoms: C_8  and  O_9
REMARK    4  A    between atoms: O_9  and  C_10
REMARK    5  A    between atoms: C_13  and  C_15
REMARK    6  A    between atoms: C_15  and  C_16
REMARK    7  A    between atoms: C_16  and  N_17
REMARK                            x       y       z     vdW  Elec       q    Type
REMARK                         _______ _______ _______ _____ _____    ______ ____
ROOT
ATOM      1  C   UNL     1       1.159   8.980  20.087  0.00  0.00    +0.000 A 
ATOM      2  C   UNL     1       1.517   7.726  20.619  0.00  0.00    +0.000 A 
ATOM      3  C   UNL     1       2.198   6.791  19.840  0.00  0.00    +0.000 A 
ATOM      4  C   UNL     1       2.490   7.099  18.506  0.00  0.00    +0.000 A 
ATOM      5  C   UNL     1       2.150   8.351  17.979  0.00  0.00    +0.000 A 
ATOM      6  C   UNL     1       1.508   9.309  18.763  0.00  0.00    +0.000 A 
ATOM      7  C   UNL     1       3.142   6.055  17.647  0.00  0.00    +0.000 C 
ATOM      8  N   UNL     1       4.181   5.302  18.344  0.00  0.00    +0.000 N 
ATOM      9  C   UNL     1       5.302   4.781  17.701  0.00  0.00    +0.000 C 
ATOM     10  O   UNL     1       6.167   4.146  18.299  0.00  0.00    +0.000 OA
ATOM     11  C   UNL     1       4.043   5.119  19.798  0.00  0.00    +0.000 C 
ATOM     12  C   UNL     1       2.644   5.446  20.348  0.00  0.00    +0.000 C 
ENDROOT
BRANCH   1  14
ATOM     13  C   UNL     1       0.120   9.195  22.217  0.00  0.00    +0.000 C 
ATOM     14  O   UNL     1       0.535   9.798  20.996  0.00  0.00    +0.000 OA
ENDBRANCH   1  14
BRANCH   6  15
ATOM     15  O   UNL     1       1.216  10.568  18.307  0.00  0.00    +0.000 OA
ATOM     16  C   UNL     1       2.279  11.500  18.165  0.00  0.00    +0.000 C 
ENDBRANCH   6  15
BRANCH   9  17
ATOM     17  C   UNL     1       5.387   5.041  16.201  0.00  0.00    +0.000 C 
BRANCH  17  18
ATOM     18  C   UNL     1       6.812   5.199  15.694  0.00  0.00    +0.000 C 
BRANCH  18  19
ATOM     19  N   UNL     1       7.473   6.291  16.414  0.00  0.00    +0.000 NA
ATOM     20  H   UNL     1       6.801   7.031  16.610  0.00  0.00    +0.000 HD
ATOM     21  H   UNL     1       8.180   6.709  15.810  0.00  0.00    +0.000 HD
ENDBRANCH  18  19
ENDBRANCH  17  18
ENDBRANCH   9  17
TORSDOF 5
ENDMDL
