MODEL 1
REMARK VINA RESULT:      -6.4      0.000      0.000
REMARK  Name = 
REMARK  6 active torsions:
REMARK  status: ('A' for Active; 'I' for Inactive)
REMARK    1  A    between atoms: C_1  and  C_2
REMARK    2  A    between atoms: C_2  and  O_3
REMARK    3  A    between atoms: O_3  and  C_4
REMARK    4  A    between atoms: C_7  and  C_8
REMARK    5  A    between atoms: N_9  and  C_10
REMARK    6  A    between atoms: C_15  and  O_16
REMARK                            x       y       z     vdW  Elec       q    Type
REMARK                         _______ _______ _______ _____ _____    ______ ____
ROOT
ATOM      1  C   UNL     1       3.175   5.147  19.787  0.00  0.00    +0.000 A 
ATOM      2  C   UNL     1       2.713   5.906  18.705  0.00  0.00    +0.000 A 
ATOM      3  C   UNL     1       3.453   5.990  17.518  0.00  0.00    +0.000 A 
ATOM      4  C   UNL     1       4.666   5.306  17.412  0.00  0.00    +0.000 A 
ATOM      5  C   UNL     1       5.136   4.566  18.504  0.00  0.00    +0.000 A 
ATOM      6  C   UNL     1       4.400   4.489  19.684  0.00  0.00    +0.000 A 
ENDROOT
BRANCH   4   7
ATOM      7  C   UNL     1       5.399   5.340  16.125  0.00  0.00    +0.000 C 
ATOM      8  N   UNL     1       5.821   4.239  15.584  0.00  0.00    +0.000 NA
BRANCH   8   9
ATOM      9  C   UNL     1       6.408   4.376  14.373  0.00  0.00    +0.000 A 
ATOM     10  N   UNL     1       6.249   3.762  13.218  0.00  0.00    +0.000 NA
ATOM     11  N   UNL     1       7.172   4.266  12.325  0.00  0.00    +0.000 NA
ATOM     12  C   UNL     1       7.870   5.180  12.955  0.00  0.00    +0.000 A 
ATOM     13  N   UNL     1       7.414   5.294  14.229  0.00  0.00    +0.000 N 
ATOM     14  H   UNL     1       7.753   5.903  14.954  0.00  0.00    +0.000 HD
ENDBRANCH   8   9
ENDBRANCH   4   7
BRANCH   5  15
ATOM     15  O   UNL     1       6.316   3.870  18.486  0.00  0.00    +0.000 OA
ATOM     16  H   UNL     1       6.906   4.338  17.860  0.00  0.00    +0.000 HD
ENDBRANCH   5  15
BRANCH   1  17
ATOM     17  O   UNL     1       2.347   5.113  20.878  0.00  0.00    +0.000 OA
BRANCH  17  19
ATOM     18  C   UNL     1       1.104   3.083  20.591  0.00  0.00    +0.000 C 
ATOM     19  C   UNL     1       2.109   3.825  21.452  0.00  0.00    +0.000 C 
ENDBRANCH  17  19
ENDBRANCH   1  17
TORSDOF 5
ENDMDL
MODEL 2
REMARK VINA RESULT:      -6.4      0.718      1.005
REMARK  Name = 
REMARK  6 active torsions:
REMARK  status: ('A' for Active; 'I' for Inactive)
REMARK    1  A    between atoms: C_1  and  C_2
REMARK    2  A    between atoms: C_2  and  O_3
REMARK    3  A    between atoms: O_3  and  C_4
REMARK    4  A    between atoms: C_7  and  C_8
REMARK    5  A    between atoms: N_9  and  C_10
REMARK    6  A    between atoms: C_15  and  O_16
REMARK                            x       y       z     vdW  Elec       q    Type
REMARK                         _______ _______ _______ _____ _____    ______ ____
ROOT
ATOM      1  C   UNL     1       3.148   4.756  19.881  0.00  0.00    +0.000 A 
ATOM      2  C   UNL     1       2.458   5.175  18.737  0.00  0.00    +0.000 A 
ATOM      3  C   UNL     1       3.074   5.157  17.479  0.00  0.00    +0.000 A 
ATOM      4  C   UNL     1       4.393   4.714  17.364  0.00  0.00    +0.000 A 
ATOM      5  C   UNL     1       5.089   4.317  18.514  0.00  0.00    +0.000 A 
ATOM      6  C   UNL     1       4.474   4.341  19.763  0.00  0.00    +0.000 A 
ENDROOT
BRANCH   4   7
ATOM      7  C   UNL     1       5.007   4.627  16.018  0.00  0.00    +0.000 C 
ATOM      8  N   UNL     1       6.243   4.978  15.840  0.00  0.00    +0.000 NA
BRANCH   8   9
ATOM      9  C   UNL     1       6.726   4.785  14.592  0.00  0.00    +0.000 A 
ATOM     10  N   UNL     1       7.616   5.424  13.858  0.00  0.00    +0.000 NA
ATOM     11  N   UNL     1       7.671   4.825  12.617  0.00  0.00    +0.000 NA
ATOM     12  C   UNL     1       6.815   3.830  12.623  0.00  0.00    +0.000 A 
ATOM     13  N   UNL     1       6.219   3.758  13.840  0.00  0.00    +0.000 N 
ATOM     14  H   UNL     1       5.516   3.107  14.146  0.00  0.00    +0.000 HD
ENDBRANCH   8   9
ENDBRANCH   4   7
BRANCH   5  15
ATOM     15  O   UNL     1       6.385   3.875  18.490  0.00  0.00    +0.000 OA
ATOM     16  H   UNL     1       6.510   3.424  17.630  0.00  0.00    +0.000 HD
ENDBRANCH   5  15
BRANCH   1  17
ATOM     17  O   UNL     1       2.428   4.785  21.046  0.00  0.00    +0.000 OA
BRANCH  17  19
ATOM     18  C   UNL     1       1.201   2.727  20.958  0.00  0.00    +0.000 C 
ATOM     19  C   UNL     1       2.246   3.531  21.709  0.00  0.00    +0.000 C 
ENDBRANCH  17  19
ENDBRANCH   1  17
TORSDOF 5
ENDMDL
MODEL 3
REMARK VINA RESULT:      -6.3      1.590      2.146
REMARK  Name = 
REMARK  6 active torsions:
REMARK  status: ('A' for Active; 'I' for Inactive)
REMARK    1  A    between atoms: C_1  and  C_2
REMARK    2  A    between atoms: C_2  and  O_3
REMARK    3  A    between atoms: O_3  and  C_4
REMARK    4  A    between atoms: C_7  and  C_8
REMARK    5  A    between atoms: N_9  and  C_10
REMARK    6  A    between atoms: C_15  and  O_16
REMARK                            x       y       z     vdW  Elec       q    Type
REMARK                         _______ _______ _______ _____ _____    ______ ____
ROOT
ATOM      1  C   UNL     1       1.808   3.902  18.887  0.00  0.00    +0.000 A 
ATOM      2  C   UNL     1       2.510   2.924  18.172  0.00  0.00    +0.000 A 
ATOM      3  C   UNL     1       3.558   3.277  17.312  0.00  0.00    +0.000 A 
ATOM      4  C   UNL     1       3.910   4.620  17.168  0.00  0.00    +0.000 A 
ATOM      5  C   UNL     1       3.191   5.598  17.867  0.00  0.00    +0.000 A 
ATOM      6  C   UNL     1       2.147   5.245  18.718  0.00  0.00    +0.000 A 
ENDROOT
BRANCH   4   7
ATOM      7  C   UNL     1       5.069   4.971  16.315  0.00  0.00    +0.000 C 
ATOM      8  N   UNL     1       5.454   4.167  15.373  0.00  0.00    +0.000 NA
BRANCH   8   9
ATOM      9  C   UNL     1       6.471   4.618  14.604  0.00  0.00    +0.000 A 
ATOM     10  N   UNL     1       7.436   5.494  14.805  0.00  0.00    +0.000 NA
ATOM     11  N   UNL     1       8.164   5.617  13.640  0.00  0.00    +0.000 NA
ATOM     12  C   UNL     1       7.629   4.811  12.755  0.00  0.00    +0.000 A 
ATOM     13  N   UNL     1       6.583   4.154  13.320  0.00  0.00    +0.000 N 
ATOM     14  H   UNL     1       5.974   3.478  12.892  0.00  0.00    +0.000 HD
ENDBRANCH   8   9
ENDBRANCH   4   7
BRANCH   5  15
ATOM     15  O   UNL     1       3.467   6.937  17.779  0.00  0.00    +0.000 OA
ATOM     16  H   UNL     1       4.437   7.030  17.884  0.00  0.00    +0.000 HD
ENDBRANCH   5  15
BRANCH   1  17
ATOM     17  O   UNL     1       0.830   3.433  19.723  0.00  0.00    +0.000 OA
BRANCH  17  19
ATOM     18  C   UNL     1       2.213   3.593  21.675  0.00  0.00    +0.000 C 
ATOM     19  C   UNL     1       1.273   2.710  20.874  0.00  0.00    +0.000 C 
ENDBRANCH  17  19
ENDBRANCH   1  17
TORSDOF 5
ENDMDL
MODEL 4
REMARK VINA RESULT:      -6.2      1.406      1.766
REMARK  Name = 
REMARK  6 active torsions:
REMARK  status: ('A' for Active; 'I' for Inactive)
REMARK    1  A    between atoms: C_1  and  C_2
REMARK    2  A    between atoms: C_2  and  O_3
REMARK    3  A    between atoms: O_3  and  C_4
REMARK    4  A    between atoms: C_7  and  C_8
REMARK    5  A    between atoms: N_9  and  C_10
REMARK    6  A    between atoms: C_15  and  O_16
REMARK                            x       y       z     vdW  Elec       q    Type
REMARK                         _______ _______ _______ _____ _____    ______ ____
ROOT
ATOM      1  C   UNL     1       3.483   3.295  19.632  0.00  0.00    +0.000 A 
ATOM      2  C   UNL     1       3.129   2.626  18.453  0.00  0.00    +0.000 A 
ATOM      3  C   UNL     1       3.681   3.001  17.221  0.00  0.00    +0.000 A 
ATOM      4  C   UNL     1       4.597   4.054  17.167  0.00  0.00    +0.000 A 
ATOM      5  C   UNL     1       4.932   4.735  18.345  0.00  0.00    +0.000 A 
ATOM      6  C   UNL     1       4.378   4.363  19.567  0.00  0.00    +0.000 A 
ENDROOT
BRANCH   4   7
ATOM      7  C   UNL     1       5.230   4.388  15.871  0.00  0.00    +0.000 C 
ATOM      8  N   UNL     1       6.521   4.346  15.743  0.00  0.00    +0.000 NA
BRANCH   8   9
ATOM      9  C   UNL     1       6.989   4.592  14.499  0.00  0.00    +0.000 A 
ATOM     10  N   UNL     1       7.793   5.510  14.001  0.00  0.00    +0.000 NA
ATOM     11  N   UNL     1       7.876   5.326  12.637  0.00  0.00    +0.000 NA
ATOM     12  C   UNL     1       7.124   4.296  12.333  0.00  0.00    +0.000 A 
ATOM     13  N   UNL     1       6.568   3.796  13.467  0.00  0.00    +0.000 N 
ATOM     14  H   UNL     1       5.940   3.014  13.555  0.00  0.00    +0.000 HD
ENDBRANCH   8   9
ENDBRANCH   4   7
BRANCH   5  15
ATOM     15  O   UNL     1       5.816   5.780  18.380  0.00  0.00    +0.000 OA
ATOM     16  H   UNL     1       6.710   5.393  18.271  0.00  0.00    +0.000 HD
ENDBRANCH   5  15
BRANCH   1  17
ATOM     17  O   UNL     1       2.906   2.814  20.777  0.00  0.00    +0.000 OA
BRANCH  17  19
ATOM     18  C   UNL     1       0.936   4.154  20.514  0.00  0.00    +0.000 C 
ATOM     19  C   UNL     1       1.478   2.764  20.795  0.00  0.00    +0.000 C 
ENDBRANCH  17  19
ENDBRANCH   1  17
TORSDOF 5
ENDMDL
MODEL 5
REMARK VINA RESULT:      -6.1      2.993      3.852
REMARK  Name = 
REMARK  6 active torsions:
REMARK  status: ('A' for Active; 'I' for Inactive)
REMARK    1  A    between atoms: C_1  and  C_2
REMARK    2  A    between atoms: C_2  and  O_3
REMARK    3  A    between atoms: O_3  and  C_4
REMARK    4  A    between atoms: C_7  and  C_8
REMARK    5  A    between atoms: N_9  and  C_10
REMARK    6  A    between atoms: C_15  and  O_16
REMARK                            x       y       z     vdW  Elec       q    Type
REMARK                         _______ _______ _______ _____ _____    ______ ____
ROOT
ATOM      1  C   UNL     1       1.236   8.634  19.834  0.00  0.00    +0.000 A 
ATOM      2  C   UNL     1       1.499   9.191  18.577  0.00  0.00    +0.000 A 
ATOM      3  C   UNL     1       2.438   8.608  17.715  0.00  0.00    +0.000 A 
ATOM      4  C   UNL     1       3.118   7.456  18.114  0.00  0.00    +0.000 A 
ATOM      5  C   UNL     1       2.870   6.914  19.382  0.00  0.00    +0.000 A 
ATOM      6  C   UNL     1       1.940   7.499  20.238  0.00  0.00    +0.000 A 
ENDROOT
BRANCH   4   7
ATOM      7  C   UNL     1       4.050   6.807  17.162  0.00  0.00    +0.000 C 
ATOM      8  N   UNL     1       5.310   6.698  17.453  0.00  0.00    +0.000 NA
BRANCH   8   9
ATOM      9  C   UNL     1       6.056   6.021  16.552  0.00  0.00    +0.000 A 
ATOM     10  N   UNL     1       7.307   6.128  16.151  0.00  0.00    +0.000 NA
ATOM     11  N   UNL     1       7.525   5.209  15.147  0.00  0.00    +0.000 NA
ATOM     12  C   UNL     1       6.402   4.557  14.960  0.00  0.00    +0.000 A 
ATOM     13  N   UNL     1       5.466   5.017  15.829  0.00  0.00    +0.000 N 
ATOM     14  H   UNL     1       4.510   4.719  15.922  0.00  0.00    +0.000 HD
ENDBRANCH   8   9
ENDBRANCH   4   7
BRANCH   5  15
ATOM     15  O   UNL     1       3.496   5.791  19.853  0.00  0.00    +0.000 OA
ATOM     16  H   UNL     1       3.416   5.816  20.829  0.00  0.00    +0.000 HD
ENDBRANCH   5  15
BRANCH   1  17
ATOM     17  O   UNL     1       0.273   9.271  20.571  0.00  0.00    +0.000 OA
BRANCH  17  19
ATOM     18  C   UNL     1      -0.275   9.495  22.895  0.00  0.00    +0.000 C 
ATOM     19  C   UNL     1       0.704   9.868  21.797  0.00  0.00    +0.000 C 
ENDBRANCH  17  19
ENDBRANCH   1  17
TORSDOF 5
ENDMDL
MODEL 6
REMARK VINA RESULT:      -6.0      3.575      6.972
REMARK  Name = 
REMARK  6 active torsions:
REMARK  status: ('A' for Active; 'I' for Inactive)
REMARK    1  A    between atoms: C_1  and  C_2
REMARK    2  A    between atoms: C_2  and  O_3
REMARK    3  A    between atoms: O_3  and  C_4
REMARK    4  A    between atoms: C_7  and  C_8
REMARK    5  A    between atoms: N_9  and  C_10
REMARK    6  A    between atoms: C_15  and  O_16
REMARK                            x       y       z     vdW  Elec       q    Type
REMARK                         _______ _______ _______ _____ _____    ______ ____
ROOT
ATOM      1  C   UNL     1       6.876   4.726  15.432  0.00  0.00    +0.000 A 
ATOM      2  C   UNL     1       5.590   4.302  15.073  0.00  0.00    +0.000 A 
ATOM      3  C   UNL     1       4.642   3.974  16.051  0.00  0.00    +0.000 A 
ATOM      4  C   UNL     1       4.983   4.072  17.402  0.00  0.00    +0.000 A 
ATOM      5  C   UNL     1       6.276   4.473  17.758  0.00  0.00    +0.000 A 
ATOM      6  C   UNL     1       7.218   4.795  16.783  0.00  0.00    +0.000 A 
ENDROOT
BRANCH   4   7
ATOM      7  C   UNL     1       3.947   3.795  18.424  0.00  0.00    +0.000 C 
ATOM      8  N   UNL     1       4.250   3.133  19.498  0.00  0.00    +0.000 NA
BRANCH   8   9
ATOM      9  C   UNL     1       3.252   3.005  20.401  0.00  0.00    +0.000 A 
ATOM     10  N   UNL     1       3.158   2.391  21.564  0.00  0.00    +0.000 NA
ATOM     11  N   UNL     1       1.867   2.533  22.030  0.00  0.00    +0.000 NA
ATOM     12  C   UNL     1       1.204   3.235  21.143  0.00  0.00    +0.000 A 
ATOM     13  N   UNL     1       2.034   3.566  20.121  0.00  0.00    +0.000 N 
ATOM     14  H   UNL     1       1.814   4.093  19.292  0.00  0.00    +0.000 HD
ENDBRANCH   8   9
ENDBRANCH   4   7
BRANCH   5  15
ATOM     15  O   UNL     1       6.694   4.591  19.057  0.00  0.00    +0.000 OA
ATOM     16  H   UNL     1       6.487   5.507  19.335  0.00  0.00    +0.000 HD
ENDBRANCH   5  15
BRANCH   1  17
ATOM     17  O   UNL     1       7.701   5.054  14.390  0.00  0.00    +0.000 OA
BRANCH  17  19
ATOM     18  C   UNL     1       7.324   3.992  12.273  0.00  0.00    +0.000 C 
ATOM     19  C   UNL     1       7.074   5.229  13.117  0.00  0.00    +0.000 C 
ENDBRANCH  17  19
ENDBRANCH   1  17
TORSDOF 5
ENDMDL
MODEL 7
REMARK VINA RESULT:      -5.9      3.582      7.030
REMARK  Name = 
REMARK  6 active torsions:
REMARK  status: ('A' for Active; 'I' for Inactive)
REMARK    1  A    between atoms: C_1  and  C_2
REMARK    2  A    between atoms: C_2  and  O_3
REMARK    3  A    between atoms: O_3  and  C_4
REMARK    4  A    between atoms: C_7  and  C_8
REMARK    5  A    between atoms: N_9  and  C_10
REMARK    6  A    between atoms: C_15  and  O_16
REMARK                            x       y       z     vdW  Elec       q    Type
REMARK                         _______ _______ _______ _____ _____    ______ ____
ROOT
ATOM      1  C   UNL     1       6.969   5.026  15.574  0.00  0.00    +0.000 A 
ATOM      2  C   UNL     1       5.793   4.366  15.198  0.00  0.00    +0.000 A 
ATOM      3  C   UNL     1       4.922   3.844  16.164  0.00  0.00    +0.000 A 
ATOM      4  C   UNL     1       5.229   3.987  17.519  0.00  0.00    +0.000 A 
ATOM      5  C   UNL     1       6.418   4.627  17.891  0.00  0.00    +0.000 A 
ATOM      6  C   UNL     1       7.284   5.140  16.928  0.00  0.00    +0.000 A 
ENDROOT
BRANCH   4   7
ATOM      7  C   UNL     1       4.262   3.499  18.529  0.00  0.00    +0.000 C 
ATOM      8  N   UNL     1       3.632   4.341  19.289  0.00  0.00    +0.000 NA
BRANCH   8   9
ATOM      9  C   UNL     1       2.715   3.796  20.121  0.00  0.00    +0.000 A 
ATOM     10  N   UNL     1       1.471   4.109  20.424  0.00  0.00    +0.000 NA
ATOM     11  N   UNL     1       1.026   3.239  21.397  0.00  0.00    +0.000 NA
ATOM     12  C   UNL     1       2.008   2.411  21.663  0.00  0.00    +0.000 A 
ATOM     13  N   UNL     1       3.073   2.711  20.876  0.00  0.00    +0.000 N 
ATOM     14  H   UNL     1       3.972   2.259  20.855  0.00  0.00    +0.000 HD
ENDBRANCH   8   9
ENDBRANCH   4   7
BRANCH   5  15
ATOM     15  O   UNL     1       6.798   4.804  19.195  0.00  0.00    +0.000 OA
ATOM     16  H   UNL     1       7.774   4.887  19.192  0.00  0.00    +0.000 HD
ENDBRANCH   5  15
BRANCH   1  17
ATOM     17  O   UNL     1       7.721   5.524  14.542  0.00  0.00    +0.000 OA
BRANCH  17  19
ATOM     18  C   UNL     1       8.103   5.833  12.196  0.00  0.00    +0.000 C 
ATOM     19  C   UNL     1       7.509   4.928  13.260  0.00  0.00    +0.000 C 
ENDBRANCH  17  19
ENDBRANCH   1  17
TORSDOF 5
ENDMDL
MODEL 8
REMARK VINA RESULT:      -5.8      1.928      2.379
REMARK  Name = 
REMARK  6 active torsions:
REMARK  status: ('A' for Active; 'I' for Inactive)
REMARK    1  A    between atoms: C_1  and  C_2
REMARK    2  A    between atoms: C_2  and  O_3
REMARK    3  A    between atoms: O_3  and  C_4
REMARK    4  A    between atoms: C_7  and  C_8
REMARK    5  A    between atoms: N_9  and  C_10
REMARK    6  A    between atoms: C_15  and  O_16
REMARK                            x       y       z     vdW  Elec       q    Type
REMARK                         _______ _______ _______ _____ _____    ______ ____
ROOT
ATOM      1  C   UNL     1       2.262   6.606  19.913  0.00  0.00    +0.000 A 
ATOM      2  C   UNL     1       2.391   7.581  18.916  0.00  0.00    +0.000 A 
ATOM      3  C   UNL     1       3.217   7.367  17.805  0.00  0.00    +0.000 A 
ATOM      4  C   UNL     1       3.919   6.166  17.688  0.00  0.00    +0.000 A 
ATOM      5  C   UNL     1       3.805   5.202  18.698  0.00  0.00    +0.000 A 
ATOM      6  C   UNL     1       2.987   5.419  19.804  0.00  0.00    +0.000 A 
ENDROOT
BRANCH   4   7
ATOM      7  C   UNL     1       4.727   5.922  16.471  0.00  0.00    +0.000 C 
ATOM      8  N   UNL     1       5.912   5.400  16.567  0.00  0.00    +0.000 NA
BRANCH   8   9
ATOM      9  C   UNL     1       6.531   5.148  15.391  0.00  0.00    +0.000 A 
ATOM     10  N   UNL     1       7.655   5.575  14.852  0.00  0.00    +0.000 NA
ATOM     11  N   UNL     1       7.765   5.036  13.587  0.00  0.00    +0.000 NA
ATOM     12  C   UNL     1       6.708   4.287  13.385  0.00  0.00    +0.000 A 
ATOM     13  N   UNL     1       5.922   4.313  14.492  0.00  0.00    +0.000 N 
ATOM     14  H   UNL     1       5.043   3.844  14.637  0.00  0.00    +0.000 HD
ENDBRANCH   8   9
ENDBRANCH   4   7
BRANCH   5  15
ATOM     15  O   UNL     1       4.462   4.000  18.665  0.00  0.00    +0.000 OA
ATOM     16  H   UNL     1       4.435   3.693  17.735  0.00  0.00    +0.000 HD
ENDBRANCH   5  15
BRANCH   1  17
ATOM     17  O   UNL     1       1.398   6.914  20.930  0.00  0.00    +0.000 OA
BRANCH  17  19
ATOM     18  C   UNL     1      -0.282   8.495  21.586  0.00  0.00    +0.000 C 
ATOM     19  C   UNL     1       1.163   8.305  21.162  0.00  0.00    +0.000 C 
ENDBRANCH  17  19
ENDBRANCH   1  17
TORSDOF 5
ENDMDL
MODEL 9
REMARK VINA RESULT:      -5.8      3.112      4.265
REMARK  Name = 
REMARK  6 active torsions:
REMARK  status: ('A' for Active; 'I' for Inactive)
REMARK    1  A    between atoms: C_1  and  C_2
REMARK    2  A    between atoms: C_2  and  O_3
REMARK    3  A    between atoms: O_3  and  C_4
REMARK    4  A    between atoms: C_7  and  C_8
REMARK    5  A    between atoms: N_9  and  C_10
REMARK    6  A    between atoms: C_15  and  O_16
REMARK                            x       y       z     vdW  Elec       q    Type
REMARK                         _______ _______ _______ _____ _____    ______ ____
ROOT
ATOM      1  C   UNL     1       1.212   8.855  19.607  0.00  0.00    +0.000 A 
ATOM      2  C   UNL     1       1.648   9.186  18.319  0.00  0.00    +0.000 A 
ATOM      3  C   UNL     1       2.578   8.383  17.646  0.00  0.00    +0.000 A 
ATOM      4  C   UNL     1       3.076   7.236  18.267  0.00  0.00    +0.000 A 
ATOM      5  C   UNL     1       2.655   6.920  19.566  0.00  0.00    +0.000 A 
ATOM      6  C   UNL     1       1.734   7.723  20.233  0.00  0.00    +0.000 A 
ENDROOT
BRANCH   4   7
ATOM      7  C   UNL     1       3.999   6.356  17.515  0.00  0.00    +0.000 C 
ATOM      8  N   UNL     1       5.021   6.859  16.893  0.00  0.00    +0.000 NA
BRANCH   8   9
ATOM      9  C   UNL     1       5.842   5.960  16.305  0.00  0.00    +0.000 A 
ATOM     10  N   UNL     1       7.143   5.925  16.096  0.00  0.00    +0.000 NA
ATOM     11  N   UNL     1       7.441   4.785  15.380  0.00  0.00    +0.000 NA
ATOM     12  C   UNL     1       6.314   4.147  15.171  0.00  0.00    +0.000 A 
ATOM     13  N   UNL     1       5.295   4.834  15.748  0.00  0.00    +0.000 N 
ATOM     14  H   UNL     1       4.317   4.601  15.752  0.00  0.00    +0.000 HD
ENDBRANCH   8   9
ENDBRANCH   4   7
BRANCH   5  15
ATOM     15  O   UNL     1       3.097   5.818  20.249  0.00  0.00    +0.000 OA
ATOM     16  H   UNL     1       2.556   5.760  21.064  0.00  0.00    +0.000 HD
ENDBRANCH   5  15
BRANCH   1  17
ATOM     17  O   UNL     1       0.274   9.696  20.147  0.00  0.00    +0.000 OA
BRANCH  17  19
ATOM     18  C   UNL     1      -1.148  11.601  19.837  0.00  0.00    +0.000 C 
ATOM     19  C   UNL     1      -0.628  10.312  19.225  0.00  0.00    +0.000 C 
ENDBRANCH  17  19
ENDBRANCH   1  17
TORSDOF 5
ENDMDL
