MODEL 1
REMARK VINA RESULT:      -7.1      0.000      0.000
REMARK  Name = 
REMARK  8 active torsions:
REMARK  status: ('A' for Active; 'I' for Inactive)
REMARK    1  A    between atoms: C_1  and  C_2
REMARK    2  A    between atoms: C_2  and  C_3
REMARK    3  A    between atoms: C_9  and  C_10
REMARK    4  A    between atoms: C_15  and  N_16
REMARK    5  A    between atoms: N_16  and  C_17
REMARK    6  A    between atoms: C_18  and  C_19
REMARK    7  A    between atoms: C_26  and  C_27
REMARK    8  A    between atoms: N_30  and  C_31
REMARK                            x       y       z     vdW  Elec       q    Type
REMARK                         _______ _______ _______ _____ _____    ______ ____
ROOT
ATOM      1  C   UNL     1       0.674  13.319  21.409  0.00  0.00    +0.000 A 
ATOM      2  C   UNL     1       1.503  14.391  21.585  0.00  0.00    +0.000 A 
ATOM      3  C   UNL     1       0.917  15.685  22.020  0.00  0.00    +0.000 A 
ATOM      4  N   UNL     1      -0.304  15.908  22.362  0.00  0.00    +0.000 NA
ATOM      5  N   UNL     1      -1.046  14.788  22.339  0.00  0.00    +0.000 N 
ATOM      6  C   UNL     1      -2.311  14.769  22.846  0.00  0.00    +0.000 A 
ATOM      7  C   UNL     1      -2.771  13.481  22.811  0.00  0.00    +0.000 A 
ATOM      8  C   UNL     1      -1.753  12.689  22.214  0.00  0.00    +0.000 A 
ATOM      9  C   UNL     1      -0.673  13.514  21.910  0.00  0.00    +0.000 A 
ENDROOT
BRANCH   7  10
ATOM     10  C   UNL     1      -4.045  13.034  23.347  0.00  0.00    +0.000 A 
ATOM     11  C   UNL     1      -4.284  12.378  24.567  0.00  0.00    +0.000 A 
ATOM     12  N   UNL     1      -5.584  12.131  24.764  0.00  0.00    +0.000 NA
ATOM     13  N   UNL     1      -6.170  12.637  23.662  0.00  0.00    +0.000 N 
ATOM     14  C   UNL     1      -7.604  12.588  23.506  0.00  0.00    +0.000 C 
ATOM     15  C   UNL     1      -5.289  13.185  22.779  0.00  0.00    +0.000 A 
ENDBRANCH   7  10
BRANCH   2  16
ATOM     16  C   UNL     1       2.967  14.421  21.352  0.00  0.00    +0.000 C 
ATOM     17  N   UNL     1       3.462  15.542  20.777  0.00  0.00    +0.000 N 
ATOM     18  O   UNL     1       3.705  13.516  21.725  0.00  0.00    +0.000 OA
ATOM     19  H   UNL     1       2.874  16.356  20.651  0.00  0.00    +0.000 HD
ATOM     20  H   UNL     1       4.465  15.636  20.710  0.00  0.00    +0.000 HD
ENDBRANCH   2  16
BRANCH   1  21
ATOM     21  N   UNL     1       1.138  12.104  20.843  0.00  0.00    +0.000 N 
ATOM     22  H   UNL     1       1.771  11.606  21.473  0.00  0.00    +0.000 HD
BRANCH  21  33
ATOM     23  C   UNL     1       1.326  11.314  18.401  0.00  0.00    +0.000 C 
ATOM     24  C   UNL     1       1.591   9.847  17.982  0.00  0.00    +0.000 C 
ATOM     25  N   UNL     1       1.622   9.130  19.248  0.00  0.00    +0.000 N 
ATOM     26  C   UNL     1       2.030   7.813  19.309  0.00  0.00    +0.000 A 
ATOM     27  C   UNL     1       1.758   7.011  20.421  0.00  0.00    +0.000 A 
ATOM     28  C   UNL     1       2.263   5.707  20.525  0.00  0.00    +0.000 A 
ATOM     29  C   UNL     1       3.057   5.202  19.507  0.00  0.00    +0.000 A 
ATOM     30  C   UNL     1       3.287   6.035  18.426  0.00  0.00    +0.000 A 
ATOM     31  N   UNL     1       2.788   7.303  18.308  0.00  0.00    +0.000 NA
ATOM     32  C   UNL     1       0.658   9.732  20.169  0.00  0.00    +0.000 C 
ATOM     33  C   UNL     1       0.588  11.236  19.783  0.00  0.00    +0.000 C 
BRANCH  23  35
ATOM     34  C   UNL     1       2.327  13.667  17.857  0.00  0.00    +0.000 C 
ATOM     35  C   UNL     1       2.564  12.217  18.255  0.00  0.00    +0.000 C 
ENDBRANCH  23  35
BRANCH  29  36
ATOM     36  C   UNL     1       3.622   3.884  19.574  0.00  0.00    +0.000 C 
ATOM     37  N   UNL     1       4.072   2.818  19.632  0.00  0.00    +0.000 NA
ENDBRANCH  29  36
ENDBRANCH  21  33
ENDBRANCH   1  21
TORSDOF 6
ENDMDL
MODEL 2
REMARK VINA RESULT:      -7.0      3.084      5.327
REMARK  Name = 
REMARK  8 active torsions:
REMARK  status: ('A' for Active; 'I' for Inactive)
REMARK    1  A    between atoms: C_1  and  C_2
REMARK    2  A    between atoms: C_2  and  C_3
REMARK    3  A    between atoms: C_9  and  C_10
REMARK    4  A    between atoms: C_15  and  N_16
REMARK    5  A    between atoms: N_16  and  C_17
REMARK    6  A    between atoms: C_18  and  C_19
REMARK    7  A    between atoms: C_26  and  C_27
REMARK    8  A    between atoms: N_30  and  C_31
REMARK                            x       y       z     vdW  Elec       q    Type
REMARK                         _______ _______ _______ _____ _____    ______ ____
ROOT
ATOM      1  C   UNL     1      -1.075  11.117  19.200  0.00  0.00    +0.000 A 
ATOM      2  C   UNL     1      -2.297  11.117  18.587  0.00  0.00    +0.000 A 
ATOM      3  C   UNL     1      -3.328  12.083  19.047  0.00  0.00    +0.000 A 
ATOM      4  N   UNL     1      -3.179  13.023  19.913  0.00  0.00    +0.000 NA
ATOM      5  N   UNL     1      -1.915  13.097  20.364  0.00  0.00    +0.000 N 
ATOM      6  C   UNL     1      -1.502  14.138  21.140  0.00  0.00    +0.000 A 
ATOM      7  C   UNL     1      -0.153  14.023  21.336  0.00  0.00    +0.000 A 
ATOM      8  C   UNL     1       0.264  12.831  20.684  0.00  0.00    +0.000 A 
ATOM      9  C   UNL     1      -0.846  12.245  20.081  0.00  0.00    +0.000 A 
ENDROOT
BRANCH   7  10
ATOM     10  C   UNL     1       0.675  14.989  22.036  0.00  0.00    +0.000 A 
ATOM     11  C   UNL     1       0.291  15.870  23.061  0.00  0.00    +0.000 A 
ATOM     12  N   UNL     1       1.314  16.611  23.505  0.00  0.00    +0.000 NA
ATOM     13  N   UNL     1       2.352  16.192  22.755  0.00  0.00    +0.000 N 
ATOM     14  C   UNL     1       3.670  16.744  22.953  0.00  0.00    +0.000 C 
ATOM     15  C   UNL     1       2.019  15.224  21.855  0.00  0.00    +0.000 A 
ENDBRANCH   7  10
BRANCH   2  16
ATOM     16  C   UNL     1      -2.739  10.210  17.501  0.00  0.00    +0.000 C 
ATOM     17  N   UNL     1      -2.233  10.454  16.270  0.00  0.00    +0.000 N 
ATOM     18  O   UNL     1      -3.465   9.245  17.713  0.00  0.00    +0.000 OA
ATOM     19  H   UNL     1      -1.490  11.130  16.145  0.00  0.00    +0.000 HD
ATOM     20  H   UNL     1      -2.429   9.786  15.537  0.00  0.00    +0.000 HD
ENDBRANCH   2  16
BRANCH   1  21
ATOM     21  N   UNL     1      -0.104  10.121  18.923  0.00  0.00    +0.000 N 
ATOM     22  H   UNL     1      -0.124   9.828  17.944  0.00  0.00    +0.000 HD
BRANCH  21  33
ATOM     23  C   UNL     1       0.999   9.241  21.076  0.00  0.00    +0.000 C 
ATOM     24  C   UNL     1       1.824   7.934  21.156  0.00  0.00    +0.000 C 
ATOM     25  N   UNL     1       1.844   7.457  19.781  0.00  0.00    +0.000 N 
ATOM     26  C   UNL     1       2.325   6.201  19.471  0.00  0.00    +0.000 A 
ATOM     27  C   UNL     1       2.664   5.848  18.161  0.00  0.00    +0.000 A 
ATOM     28  C   UNL     1       3.054   4.542  17.833  0.00  0.00    +0.000 A 
ATOM     29  C   UNL     1       3.096   3.574  18.825  0.00  0.00    +0.000 A 
ATOM     30  C   UNL     1       2.760   3.981  20.104  0.00  0.00    +0.000 A 
ATOM     31  N   UNL     1       2.392   5.255  20.439  0.00  0.00    +0.000 NA
ATOM     32  C   UNL     1       1.896   8.601  18.872  0.00  0.00    +0.000 C 
ATOM     33  C   UNL     1       1.156   9.756  19.603  0.00  0.00    +0.000 C 
BRANCH  23  35
ATOM     34  C   UNL     1      -0.688   9.853  22.978  0.00  0.00    +0.000 C 
ATOM     35  C   UNL     1      -0.410   9.103  21.683  0.00  0.00    +0.000 C 
ENDBRANCH  23  35
BRANCH  29  36
ATOM     36  C   UNL     1       3.462   2.216  18.539  0.00  0.00    +0.000 C 
ATOM     37  N   UNL     1       3.756   1.121  18.303  0.00  0.00    +0.000 NA
ENDBRANCH  29  36
ENDBRANCH  21  33
ENDBRANCH   1  21
TORSDOF 6
ENDMDL
MODEL 3
REMARK VINA RESULT:      -6.8      3.708      7.218
REMARK  Name = 
REMARK  8 active torsions:
REMARK  status: ('A' for Active; 'I' for Inactive)
REMARK    1  A    between atoms: C_1  and  C_2
REMARK    2  A    between atoms: C_2  and  C_3
REMARK    3  A    between atoms: C_9  and  C_10
REMARK    4  A    between atoms: C_15  and  N_16
REMARK    5  A    between atoms: N_16  and  C_17
REMARK    6  A    between atoms: C_18  and  C_19
REMARK    7  A    between atoms: C_26  and  C_27
REMARK    8  A    between atoms: N_30  and  C_31
REMARK                            x       y       z     vdW  Elec       q    Type
REMARK                         _______ _______ _______ _____ _____    ______ ____
ROOT
ATOM      1  C   UNL     1      -5.210  13.323  21.414  0.00  0.00    +0.000 A 
ATOM      2  C   UNL     1      -6.153  12.874  22.295  0.00  0.00    +0.000 A 
ATOM      3  C   UNL     1      -7.105  11.823  21.851  0.00  0.00    +0.000 A 
ATOM      4  N   UNL     1      -7.089  11.185  20.734  0.00  0.00    +0.000 NA
ATOM      5  N   UNL     1      -6.043  11.536  19.967  0.00  0.00    +0.000 N 
ATOM      6  C   UNL     1      -5.737  10.847  18.832  0.00  0.00    +0.000 A 
ATOM      7  C   UNL     1      -4.560  11.336  18.334  0.00  0.00    +0.000 A 
ATOM      8  C   UNL     1      -4.157  12.402  19.183  0.00  0.00    +0.000 A 
ATOM      9  C   UNL     1      -5.095  12.532  20.205  0.00  0.00    +0.000 A 
ENDROOT
BRANCH   7  10
ATOM     10  C   UNL     1      -3.855  10.802  17.182  0.00  0.00    +0.000 A 
ATOM     11  C   UNL     1      -2.678  10.033  17.173  0.00  0.00    +0.000 A 
ATOM     12  N   UNL     1      -2.310   9.682  15.935  0.00  0.00    +0.000 NA
ATOM     13  N   UNL     1      -3.262  10.232  15.157  0.00  0.00    +0.000 N 
ATOM     14  C   UNL     1      -3.234  10.053  13.726  0.00  0.00    +0.000 C 
ATOM     15  C   UNL     1      -4.208  10.918  15.858  0.00  0.00    +0.000 A 
ENDBRANCH   7  10
BRANCH   2  16
ATOM     16  C   UNL     1      -6.365  13.356  23.682  0.00  0.00    +0.000 C 
ATOM     17  N   UNL     1      -6.057  12.488  24.674  0.00  0.00    +0.000 N 
ATOM     18  O   UNL     1      -6.729  14.501  23.925  0.00  0.00    +0.000 OA
ATOM     19  H   UNL     1      -5.579  11.621  24.467  0.00  0.00    +0.000 HD
ATOM     20  H   UNL     1      -6.086  12.828  25.625  0.00  0.00    +0.000 HD
ENDBRANCH   2  16
BRANCH   1  21
ATOM     21  N   UNL     1      -4.378  14.432  21.715  0.00  0.00    +0.000 N 
ATOM     22  H   UNL     1      -4.851  15.114  22.312  0.00  0.00    +0.000 HD
BRANCH  21  33
ATOM     23  C   UNL     1      -2.233  14.548  23.132  0.00  0.00    +0.000 C 
ATOM     24  C   UNL     1      -1.054  13.553  23.004  0.00  0.00    +0.000 C 
ATOM     25  N   UNL     1      -1.459  12.682  21.910  0.00  0.00    +0.000 N 
ATOM     26  C   UNL     1      -0.752  11.534  21.617  0.00  0.00    +0.000 A 
ATOM     27  C   UNL     1      -0.905  10.869  20.396  0.00  0.00    +0.000 A 
ATOM     28  C   UNL     1      -0.265   9.648  20.142  0.00  0.00    +0.000 A 
ATOM     29  C   UNL     1       0.531   9.080  21.124  0.00  0.00    +0.000 A 
ATOM     30  C   UNL     1       0.654   9.784  22.309  0.00  0.00    +0.000 A 
ATOM     31  N   UNL     1       0.046  10.983  22.563  0.00  0.00    +0.000 NA
ATOM     32  C   UNL     1      -2.202  13.462  20.920  0.00  0.00    +0.000 C 
ATOM     33  C   UNL     1      -2.910  14.592  21.718  0.00  0.00    +0.000 C 
BRANCH  23  35
ATOM     34  C   UNL     1      -3.412  15.497  25.263  0.00  0.00    +0.000 C 
ATOM     35  C   UNL     1      -3.101  14.299  24.379  0.00  0.00    +0.000 C 
ENDBRANCH  23  35
BRANCH  29  36
ATOM     36  C   UNL     1       1.188   7.819  20.927  0.00  0.00    +0.000 C 
ATOM     37  N   UNL     1       1.722   6.804  20.765  0.00  0.00    +0.000 NA
ENDBRANCH  29  36
ENDBRANCH  21  33
ENDBRANCH   1  21
TORSDOF 6
ENDMDL
MODEL 4
REMARK VINA RESULT:      -6.8      2.430      9.125
REMARK  Name = 
REMARK  8 active torsions:
REMARK  status: ('A' for Active; 'I' for Inactive)
REMARK    1  A    between atoms: C_1  and  C_2
REMARK    2  A    between atoms: C_2  and  C_3
REMARK    3  A    between atoms: C_9  and  C_10
REMARK    4  A    between atoms: C_15  and  N_16
REMARK    5  A    between atoms: N_16  and  C_17
REMARK    6  A    between atoms: C_18  and  C_19
REMARK    7  A    between atoms: C_26  and  C_27
REMARK    8  A    between atoms: N_30  and  C_31
REMARK                            x       y       z     vdW  Elec       q    Type
REMARK                         _______ _______ _______ _____ _____    ______ ____
ROOT
ATOM      1  C   UNL     1       0.548  10.704  20.088  0.00  0.00    +0.000 A 
ATOM      2  C   UNL     1       0.153  10.769  21.395  0.00  0.00    +0.000 A 
ATOM      3  C   UNL     1       0.095   9.515  22.189  0.00  0.00    +0.000 A 
ATOM      4  N   UNL     1       0.481   8.344  21.820  0.00  0.00    +0.000 NA
ATOM      5  N   UNL     1       1.022   8.357  20.590  0.00  0.00    +0.000 N 
ATOM      6  C   UNL     1       1.662   7.264  20.089  0.00  0.00    +0.000 A 
ATOM      7  C   UNL     1       2.223   7.603  18.887  0.00  0.00    +0.000 A 
ATOM      8  C   UNL     1       1.868   8.955  18.628  0.00  0.00    +0.000 A 
ATOM      9  C   UNL     1       1.106   9.425  19.695  0.00  0.00    +0.000 A 
ENDROOT
BRANCH   7  10
ATOM     10  C   UNL     1       3.066   6.736  18.084  0.00  0.00    +0.000 A 
ATOM     11  C   UNL     1       3.015   5.335  17.986  0.00  0.00    +0.000 A 
ATOM     12  N   UNL     1       3.924   4.852  17.131  0.00  0.00    +0.000 NA
ATOM     13  N   UNL     1       4.551   5.956  16.683  0.00  0.00    +0.000 N 
ATOM     14  C   UNL     1       5.604   5.856  15.702  0.00  0.00    +0.000 C 
ATOM     15  C   UNL     1       4.077   7.111  17.229  0.00  0.00    +0.000 A 
ENDBRANCH   7  10
BRANCH   2  16
ATOM     16  C   UNL     1      -0.273  11.987  22.128  0.00  0.00    +0.000 C 
ATOM     17  N   UNL     1      -1.280  11.831  23.018  0.00  0.00    +0.000 N 
ATOM     18  O   UNL     1       0.301  13.061  21.994  0.00  0.00    +0.000 OA
ATOM     19  H   UNL     1      -1.614  10.907  23.259  0.00  0.00    +0.000 HD
ATOM     20  H   UNL     1      -1.513  12.616  23.610  0.00  0.00    +0.000 HD
ENDBRANCH   2  16
BRANCH   1  21
ATOM     21  N   UNL     1       0.472  11.830  19.230  0.00  0.00    +0.000 N 
ATOM     22  H   UNL     1       1.332  11.963  18.695  0.00  0.00    +0.000 HD
BRANCH  21  33
ATOM     23  C   UNL     1      -1.676  11.666  17.822  0.00  0.00    +0.000 C 
ATOM     24  C   UNL     1      -3.088  12.017  18.349  0.00  0.00    +0.000 C 
ATOM     25  N   UNL     1      -2.840  12.486  19.704  0.00  0.00    +0.000 N 
ATOM     26  C   UNL     1      -3.883  12.713  20.580  0.00  0.00    +0.000 A 
ATOM     27  C   UNL     1      -3.711  13.465  21.746  0.00  0.00    +0.000 A 
ATOM     28  C   UNL     1      -4.744  13.607  22.684  0.00  0.00    +0.000 A 
ATOM     29  C   UNL     1      -5.960  12.981  22.458  0.00  0.00    +0.000 A 
ATOM     30  C   UNL     1      -6.077  12.257  21.285  0.00  0.00    +0.000 A 
ATOM     31  N   UNL     1      -5.082  12.124  20.355  0.00  0.00    +0.000 NA
ATOM     32  C   UNL     1      -1.567  13.206  19.743  0.00  0.00    +0.000 C 
ATOM     33  C   UNL     1      -0.679  12.551  18.648  0.00  0.00    +0.000 C 
BRANCH  23  35
ATOM     34  C   UNL     1      -2.261   9.380  16.697  0.00  0.00    +0.000 C 
ATOM     35  C   UNL     1      -1.432  10.149  17.714  0.00  0.00    +0.000 C 
ENDBRANCH  23  35
BRANCH  29  36
ATOM     36  C   UNL     1      -7.040  13.071  23.398  0.00  0.00    +0.000 C 
ATOM     37  N   UNL     1      -7.916  13.145  24.152  0.00  0.00    +0.000 NA
ENDBRANCH  29  36
ENDBRANCH  21  33
ENDBRANCH   1  21
TORSDOF 6
ENDMDL
MODEL 5
REMARK VINA RESULT:      -6.7      6.697     10.938
REMARK  Name = 
REMARK  8 active torsions:
REMARK  status: ('A' for Active; 'I' for Inactive)
REMARK    1  A    between atoms: C_1  and  C_2
REMARK    2  A    between atoms: C_2  and  C_3
REMARK    3  A    between atoms: C_9  and  C_10
REMARK    4  A    between atoms: C_15  and  N_16
REMARK    5  A    between atoms: N_16  and  C_17
REMARK    6  A    between atoms: C_18  and  C_19
REMARK    7  A    between atoms: C_26  and  C_27
REMARK    8  A    between atoms: N_30  and  C_31
REMARK                            x       y       z     vdW  Elec       q    Type
REMARK                         _______ _______ _______ _____ _____    ______ ____
ROOT
ATOM      1  C   UNL     1       9.311  13.961  17.819  0.00  0.00    +0.000 A 
ATOM      2  C   UNL     1      10.570  14.459  17.630  0.00  0.00    +0.000 A 
ATOM      3  C   UNL     1      11.736  13.571  17.875  0.00  0.00    +0.000 A 
ATOM      4  N   UNL     1      11.708  12.315  18.155  0.00  0.00    +0.000 NA
ATOM      5  N   UNL     1      10.456  11.827  18.163  0.00  0.00    +0.000 N 
ATOM      6  C   UNL     1      10.221  10.488  18.251  0.00  0.00    +0.000 A 
ATOM      7  C   UNL     1       8.878  10.274  18.101  0.00  0.00    +0.000 A 
ATOM      8  C   UNL     1       8.265  11.549  17.961  0.00  0.00    +0.000 A 
ATOM      9  C   UNL     1       9.257  12.525  18.008  0.00  0.00    +0.000 A 
ENDROOT
BRANCH   7  10
ATOM     10  C   UNL     1       8.241   8.970  18.044  0.00  0.00    +0.000 A 
ATOM     11  C   UNL     1       8.566   7.820  18.783  0.00  0.00    +0.000 A 
ATOM     12  N   UNL     1       7.757   6.791  18.503  0.00  0.00    +0.000 NA
ATOM     13  N   UNL     1       6.914   7.297  17.581  0.00  0.00    +0.000 N 
ATOM     14  C   UNL     1       5.853   6.487  17.035  0.00  0.00    +0.000 C 
ATOM     15  C   UNL     1       7.167   8.599  17.269  0.00  0.00    +0.000 A 
ENDBRANCH   7  10
BRANCH   2  16
ATOM     16  C   UNL     1      10.919  15.843  17.226  0.00  0.00    +0.000 C 
ATOM     17  N   UNL     1      10.754  16.147  15.918  0.00  0.00    +0.000 N 
ATOM     18  O   UNL     1      11.270  16.690  18.040  0.00  0.00    +0.000 OA
ATOM     19  H   UNL     1      10.285  15.501  15.296  0.00  0.00    +0.000 HD
ATOM     20  H   UNL     1      10.877  17.110  15.637  0.00  0.00    +0.000 HD
ENDBRANCH   2  16
BRANCH   1  21
ATOM     21  N   UNL     1       8.165  14.794  17.761  0.00  0.00    +0.000 N 
ATOM     22  H   UNL     1       7.535  14.527  17.002  0.00  0.00    +0.000 HD
BRANCH  21  33
ATOM     23  C   UNL     1       5.949  15.468  18.884  0.00  0.00    +0.000 C 
ATOM     24  C   UNL     1       5.645  15.275  20.389  0.00  0.00    +0.000 C 
ATOM     25  N   UNL     1       6.886  14.729  20.921  0.00  0.00    +0.000 N 
ATOM     26  C   UNL     1       6.951  14.237  22.209  0.00  0.00    +0.000 A 
ATOM     27  C   UNL     1       8.174  14.022  22.851  0.00  0.00    +0.000 A 
ATOM     28  C   UNL     1       8.241  13.426  24.118  0.00  0.00    +0.000 A 
ATOM     29  C   UNL     1       7.070  13.031  24.747  0.00  0.00    +0.000 A 
ATOM     30  C   UNL     1       5.889  13.275  24.071  0.00  0.00    +0.000 A 
ATOM     31  N   UNL     1       5.810  13.869  22.841  0.00  0.00    +0.000 NA
ATOM     32  C   UNL     1       8.019  15.323  20.213  0.00  0.00    +0.000 C 
ATOM     33  C   UNL     1       7.505  15.636  18.780  0.00  0.00    +0.000 C 
BRANCH  23  35
ATOM     34  C   UNL     1       3.757  14.194  18.244  0.00  0.00    +0.000 C 
ATOM     35  C   UNL     1       5.238  14.437  17.988  0.00  0.00    +0.000 C 
ENDBRANCH  23  35
BRANCH  29  36
ATOM     36  C   UNL     1       7.084  12.392  26.032  0.00  0.00    +0.000 C 
ATOM     37  N   UNL     1       7.100  11.874  27.068  0.00  0.00    +0.000 NA
ENDBRANCH  29  36
ENDBRANCH  21  33
ENDBRANCH   1  21
TORSDOF 6
ENDMDL
MODEL 6
REMARK VINA RESULT:      -6.7      3.410      8.088
REMARK  Name = 
REMARK  8 active torsions:
REMARK  status: ('A' for Active; 'I' for Inactive)
REMARK    1  A    between atoms: C_1  and  C_2
REMARK    2  A    between atoms: C_2  and  C_3
REMARK    3  A    between atoms: C_9  and  C_10
REMARK    4  A    between atoms: C_15  and  N_16
REMARK    5  A    between atoms: N_16  and  C_17
REMARK    6  A    between atoms: C_18  and  C_19
REMARK    7  A    between atoms: C_26  and  C_27
REMARK    8  A    between atoms: N_30  and  C_31
REMARK                            x       y       z     vdW  Elec       q    Type
REMARK                         _______ _______ _______ _____ _____    ______ ____
ROOT
ATOM      1  C   UNL     1      -3.988  12.356  19.641  0.00  0.00    +0.000 A 
ATOM      2  C   UNL     1      -5.058  12.381  18.791  0.00  0.00    +0.000 A 
ATOM      3  C   UNL     1      -4.868  11.935  17.387  0.00  0.00    +0.000 A 
ATOM      4  N   UNL     1      -3.809  11.412  16.876  0.00  0.00    +0.000 NA
ATOM      5  N   UNL     1      -2.837  11.247  17.790  0.00  0.00    +0.000 N 
ATOM      6  C   UNL     1      -1.708  10.541  17.500  0.00  0.00    +0.000 A 
ATOM      7  C   UNL     1      -0.966  10.422  18.644  0.00  0.00    +0.000 A 
ATOM      8  C   UNL     1      -1.658  11.130  19.665  0.00  0.00    +0.000 A 
ATOM      9  C   UNL     1      -2.829  11.655  19.124  0.00  0.00    +0.000 A 
ENDROOT
BRANCH   7  10
ATOM     10  C   UNL     1       0.263   9.660  18.767  0.00  0.00    +0.000 A 
ATOM     11  C   UNL     1       0.871   9.191  19.944  0.00  0.00    +0.000 A 
ATOM     12  N   UNL     1       1.989   8.497  19.697  0.00  0.00    +0.000 NA
ATOM     13  N   UNL     1       2.086   8.528  18.353  0.00  0.00    +0.000 N 
ATOM     14  C   UNL     1       3.169   7.853  17.680  0.00  0.00    +0.000 C 
ATOM     15  C   UNL     1       1.077   9.218  17.750  0.00  0.00    +0.000 A 
ENDBRANCH   7  10
BRANCH   2  16
ATOM     16  C   UNL     1      -6.428  12.852  19.111  0.00  0.00    +0.000 C 
ATOM     17  N   UNL     1      -6.659  14.177  18.965  0.00  0.00    +0.000 N 
ATOM     18  O   UNL     1      -7.326  12.078  19.421  0.00  0.00    +0.000 OA
ATOM     19  H   UNL     1      -5.968  14.773  18.527  0.00  0.00    +0.000 HD
ATOM     20  H   UNL     1      -7.608  14.506  19.067  0.00  0.00    +0.000 HD
ENDBRANCH   2  16
BRANCH   1  21
ATOM     21  N   UNL     1      -4.057  12.917  20.942  0.00  0.00    +0.000 N 
ATOM     22  H   UNL     1      -4.560  12.311  21.594  0.00  0.00    +0.000 HD
BRANCH  21  33
ATOM     23  C   UNL     1      -2.429  13.401  22.876  0.00  0.00    +0.000 C 
ATOM     24  C   UNL     1      -0.972  13.885  22.681  0.00  0.00    +0.000 C 
ATOM     25  N   UNL     1      -0.851  14.036  21.239  0.00  0.00    +0.000 N 
ATOM     26  C   UNL     1       0.375  14.269  20.649  0.00  0.00    +0.000 A 
ATOM     27  C   UNL     1       0.480  14.743  19.338  0.00  0.00    +0.000 A 
ATOM     28  C   UNL     1       1.725  14.880  18.707  0.00  0.00    +0.000 A 
ATOM     29  C   UNL     1       2.878  14.531  19.392  0.00  0.00    +0.000 A 
ATOM     30  C   UNL     1       2.716  14.076  20.689  0.00  0.00    +0.000 A 
ATOM     31  N   UNL     1       1.509  13.952  21.320  0.00  0.00    +0.000 NA
ATOM     32  C   UNL     1      -2.124  14.502  20.692  0.00  0.00    +0.000 C 
ATOM     33  C   UNL     1      -3.223  13.924  21.628  0.00  0.00    +0.000 C 
BRANCH  23  35
ATOM     34  C   UNL     1      -1.269  11.070  23.103  0.00  0.00    +0.000 C 
ATOM     35  C   UNL     1      -2.524  11.914  23.264  0.00  0.00    +0.000 C 
ENDBRANCH  23  35
BRANCH  29  36
ATOM     36  C   UNL     1       4.175  14.626  18.784  0.00  0.00    +0.000 C 
ATOM     37  N   UNL     1       5.219  14.708  18.291  0.00  0.00    +0.000 NA
ENDBRANCH  29  36
ENDBRANCH  21  33
ENDBRANCH   1  21
TORSDOF 6
ENDMDL
MODEL 7
REMARK VINA RESULT:      -6.6      3.784      6.404
REMARK  Name = 
REMARK  8 active torsions:
REMARK  status: ('A' for Active; 'I' for Inactive)
REMARK    1  A    between atoms: C_1  and  C_2
REMARK    2  A    between atoms: C_2  and  C_3
REMARK    3  A    between atoms: C_9  and  C_10
REMARK    4  A    between atoms: C_15  and  N_16
REMARK    5  A    between atoms: N_16  and  C_17
REMARK    6  A    between atoms: C_18  and  C_19
REMARK    7  A    between atoms: C_26  and  C_27
REMARK    8  A    between atoms: N_30  and  C_31
REMARK                            x       y       z     vdW  Elec       q    Type
REMARK                         _______ _______ _______ _____ _____    ______ ____
ROOT
ATOM      1  C   UNL     1       0.246   9.233  20.087  0.00  0.00    +0.000 A 
ATOM      2  C   UNL     1       0.331   9.957  21.243  0.00  0.00    +0.000 A 
ATOM      3  C   UNL     1      -0.119  11.373  21.236  0.00  0.00    +0.000 A 
ATOM      4  N   UNL     1      -0.694  12.000  20.270  0.00  0.00    +0.000 NA
ATOM      5  N   UNL     1      -0.914  11.201  19.212  0.00  0.00    +0.000 N 
ATOM      6  C   UNL     1      -1.677  11.615  18.162  0.00  0.00    +0.000 A 
ATOM      7  C   UNL     1      -1.839  10.563  17.303  0.00  0.00    +0.000 A 
ATOM      8  C   UNL     1      -1.100   9.471  17.836  0.00  0.00    +0.000 A 
ATOM      9  C   UNL     1      -0.513   9.877  19.032  0.00  0.00    +0.000 A 
ENDROOT
BRANCH   7  10
ATOM     10  C   UNL     1      -2.665  10.578  16.109  0.00  0.00    +0.000 A 
ATOM     11  C   UNL     1      -3.736  11.438  15.813  0.00  0.00    +0.000 A 
ATOM     12  N   UNL     1      -4.266  11.194  14.608  0.00  0.00    +0.000 NA
ATOM     13  N   UNL     1      -3.522  10.174  14.139  0.00  0.00    +0.000 N 
ATOM     14  C   UNL     1      -3.768   9.629  12.826  0.00  0.00    +0.000 C 
ATOM     15  C   UNL     1      -2.552   9.765  15.004  0.00  0.00    +0.000 A 
ENDBRANCH   7  10
BRANCH   2  16
ATOM     16  C   UNL     1       0.870   9.485  22.541  0.00  0.00    +0.000 C 
ATOM     17  N   UNL     1      -0.035   9.251  23.520  0.00  0.00    +0.000 N 
ATOM     18  O   UNL     1       2.062   9.247  22.703  0.00  0.00    +0.000 OA
ATOM     19  H   UNL     1      -1.026   9.266  23.316  0.00  0.00    +0.000 HD
ATOM     20  H   UNL     1       0.293   8.824  24.375  0.00  0.00    +0.000 HD
ENDBRANCH   2  16
BRANCH   1  21
ATOM     21  N   UNL     1       0.804   7.934  19.979  0.00  0.00    +0.000 N 
ATOM     22  H   UNL     1       0.318   7.365  19.282  0.00  0.00    +0.000 HD
BRANCH  21  33
ATOM     23  C   UNL     1       2.170   5.897  20.759  0.00  0.00    +0.000 C 
ATOM     24  C   UNL     1       3.297   5.238  19.926  0.00  0.00    +0.000 C 
ATOM     25  N   UNL     1       3.382   6.078  18.741  0.00  0.00    +0.000 N 
ATOM     26  C   UNL     1       4.148   5.701  17.656  0.00  0.00    +0.000 A 
ATOM     27  C   UNL     1       4.515   6.616  16.664  0.00  0.00    +0.000 A 
ATOM     28  C   UNL     1       5.204   6.209  15.513  0.00  0.00    +0.000 A 
ATOM     29  C   UNL     1       5.523   4.870  15.348  0.00  0.00    +0.000 A 
ATOM     30  C   UNL     1       5.144   4.011  16.364  0.00  0.00    +0.000 A 
ATOM     31  N   UNL     1       4.484   4.398  17.498  0.00  0.00    +0.000 NA
ATOM     32  C   UNL     1       3.115   7.468  19.112  0.00  0.00    +0.000 C 
ATOM     33  C   UNL     1       2.139   7.402  20.319  0.00  0.00    +0.000 C 
BRANCH  23  35
ATOM     34  C   UNL     1       0.922   3.671  20.189  0.00  0.00    +0.000 C 
ATOM     35  C   UNL     1       0.863   5.081  20.758  0.00  0.00    +0.000 C 
ENDBRANCH  23  35
BRANCH  29  36
ATOM     36  C   UNL     1       6.203   4.396  14.176  0.00  0.00    +0.000 C 
ATOM     37  N   UNL     1       6.757   4.016  13.233  0.00  0.00    +0.000 NA
ENDBRANCH  29  36
ENDBRANCH  21  33
ENDBRANCH   1  21
TORSDOF 6
ENDMDL
MODEL 8
REMARK VINA RESULT:      -6.6      4.796     12.029
REMARK  Name = 
REMARK  8 active torsions:
REMARK  status: ('A' for Active; 'I' for Inactive)
REMARK    1  A    between atoms: C_1  and  C_2
REMARK    2  A    between atoms: C_2  and  C_3
REMARK    3  A    between atoms: C_9  and  C_10
REMARK    4  A    between atoms: C_15  and  N_16
REMARK    5  A    between atoms: N_16  and  C_17
REMARK    6  A    between atoms: C_18  and  C_19
REMARK    7  A    between atoms: C_26  and  C_27
REMARK    8  A    between atoms: N_30  and  C_31
REMARK                            x       y       z     vdW  Elec       q    Type
REMARK                         _______ _______ _______ _____ _____    ______ ____
ROOT
ATOM      1  C   UNL     1       5.774   4.059  17.240  0.00  0.00    +0.000 A 
ATOM      2  C   UNL     1       6.610   5.003  17.767  0.00  0.00    +0.000 A 
ATOM      3  C   UNL     1       7.607   5.652  16.877  0.00  0.00    +0.000 A 
ATOM      4  N   UNL     1       7.721   5.507  15.604  0.00  0.00    +0.000 NA
ATOM      5  N   UNL     1       6.770   4.701  15.101  0.00  0.00    +0.000 N 
ATOM      6  C   UNL     1       6.598   4.567  13.756  0.00  0.00    +0.000 A 
ATOM      7  C   UNL     1       5.485   3.800  13.537  0.00  0.00    +0.000 A 
ATOM      8  C   UNL     1       4.986   3.415  14.812  0.00  0.00    +0.000 A 
ATOM      9  C   UNL     1       5.800   3.976  15.793  0.00  0.00    +0.000 A 
ENDROOT
BRANCH   7  10
ATOM     10  C   UNL     1       4.918   3.505  12.234  0.00  0.00    +0.000 A 
ATOM     11  C   UNL     1       5.100   2.347  11.458  0.00  0.00    +0.000 A 
ATOM     12  N   UNL     1       4.408   2.390  10.313  0.00  0.00    +0.000 NA
ATOM     13  N   UNL     1       3.783   3.582  10.368  0.00  0.00    +0.000 N 
ATOM     14  C   UNL     1       2.899   3.997   9.306  0.00  0.00    +0.000 C 
ATOM     15  C   UNL     1       4.061   4.290  11.498  0.00  0.00    +0.000 A 
ENDBRANCH   7  10
BRANCH   2  16
ATOM     16  C   UNL     1       6.660   5.446  19.181  0.00  0.00    +0.000 C 
ATOM     17  N   UNL     1       7.892   5.655  19.703  0.00  0.00    +0.000 N 
ATOM     18  O   UNL     1       5.645   5.684  19.826  0.00  0.00    +0.000 OA
ATOM     19  H   UNL     1       8.710   5.642  19.107  0.00  0.00    +0.000 HD
ATOM     20  H   UNL     1       7.952   6.064  20.625  0.00  0.00    +0.000 HD
ENDBRANCH   2  16
BRANCH   1  21
ATOM     21  N   UNL     1       4.912   3.287  18.061  0.00  0.00    +0.000 N 
ATOM     22  H   UNL     1       5.418   2.825  18.820  0.00  0.00    +0.000 HD
BRANCH  21  33
ATOM     23  C   UNL     1       3.004   3.007  19.766  0.00  0.00    +0.000 C 
ATOM     24  C   UNL     1       2.054   4.149  20.199  0.00  0.00    +0.000 C 
ATOM     25  N   UNL     1       2.478   5.276  19.381  0.00  0.00    +0.000 N 
ATOM     26  C   UNL     1       1.993   6.547  19.615  0.00  0.00    +0.000 A 
ATOM     27  C   UNL     1       2.113   7.565  18.664  0.00  0.00    +0.000 A 
ATOM     28  C   UNL     1       1.714   8.879  18.945  0.00  0.00    +0.000 A 
ATOM     29  C   UNL     1       1.196   9.181  20.195  0.00  0.00    +0.000 A 
ATOM     30  C   UNL     1       1.092   8.135  21.094  0.00  0.00    +0.000 A 
ATOM     31  N   UNL     1       1.465   6.846  20.826  0.00  0.00    +0.000 NA
ATOM     32  C   UNL     1       2.899   4.789  18.067  0.00  0.00    +0.000 C 
ATOM     33  C   UNL     1       3.457   3.359  18.306  0.00  0.00    +0.000 C 
BRANCH  23  35
ATOM     34  C   UNL     1       4.916   1.429  20.597  0.00  0.00    +0.000 C 
ATOM     35  C   UNL     1       4.068   2.671  20.828  0.00  0.00    +0.000 C 
ENDBRANCH  23  35
BRANCH  29  36
ATOM     36  C   UNL     1       0.797  10.515  20.543  0.00  0.00    +0.000 C 
ATOM     37  N   UNL     1       0.472  11.592  20.819  0.00  0.00    +0.000 NA
ENDBRANCH  29  36
ENDBRANCH  21  33
ENDBRANCH   1  21
TORSDOF 6
ENDMDL
MODEL 9
REMARK VINA RESULT:      -6.6      3.543     11.346
REMARK  Name = 
REMARK  8 active torsions:
REMARK  status: ('A' for Active; 'I' for Inactive)
REMARK    1  A    between atoms: C_1  and  C_2
REMARK    2  A    between atoms: C_2  and  C_3
REMARK    3  A    between atoms: C_9  and  C_10
REMARK    4  A    between atoms: C_15  and  N_16
REMARK    5  A    between atoms: N_16  and  C_17
REMARK    6  A    between atoms: C_18  and  C_19
REMARK    7  A    between atoms: C_26  and  C_27
REMARK    8  A    between atoms: N_30  and  C_31
REMARK                            x       y       z     vdW  Elec       q    Type
REMARK                         _______ _______ _______ _____ _____    ______ ____
ROOT
ATOM      1  C   UNL     1       2.603   4.432  19.249  0.00  0.00    +0.000 A 
ATOM      2  C   UNL     1       2.448   3.359  20.081  0.00  0.00    +0.000 A 
ATOM      3  C   UNL     1       2.938   2.030  19.635  0.00  0.00    +0.000 A 
ATOM      4  N   UNL     1       3.608   1.769  18.567  0.00  0.00    +0.000 NA
ATOM      5  N   UNL     1       3.887   2.879  17.863  0.00  0.00    +0.000 N 
ATOM      6  C   UNL     1       4.744   2.846  16.804  0.00  0.00    +0.000 A 
ATOM      7  C   UNL     1       4.942   4.129  16.368  0.00  0.00    +0.000 A 
ATOM      8  C   UNL     1       4.131   4.974  17.174  0.00  0.00    +0.000 A 
ATOM      9  C   UNL     1       3.463   4.186  18.108  0.00  0.00    +0.000 A 
ENDROOT
BRANCH   7  10
ATOM     10  C   UNL     1       5.861   4.520  15.314  0.00  0.00    +0.000 A 
ATOM     11  C   UNL     1       6.987   5.354  15.419  0.00  0.00    +0.000 A 
ATOM     12  N   UNL     1       7.631   5.487  14.253  0.00  0.00    +0.000 NA
ATOM     13  N   UNL     1       6.906   4.730  13.407  0.00  0.00    +0.000 N 
ATOM     14  C   UNL     1       7.301   4.591  12.026  0.00  0.00    +0.000 C 
ATOM     15  C   UNL     1       5.831   4.134  13.994  0.00  0.00    +0.000 A 
ENDBRANCH   7  10
BRANCH   2  16
ATOM     16  C   UNL     1       1.792   3.362  21.412  0.00  0.00    +0.000 C 
ATOM     17  N   UNL     1       0.706   2.566  21.549  0.00  0.00    +0.000 N 
ATOM     18  O   UNL     1       2.247   3.991  22.361  0.00  0.00    +0.000 OA
ATOM     19  H   UNL     1       0.457   1.909  20.821  0.00  0.00    +0.000 HD
ATOM     20  H   UNL     1       0.309   2.464  22.473  0.00  0.00    +0.000 HD
ENDBRANCH   2  16
BRANCH   1  21
ATOM     21  N   UNL     1       2.017   5.691  19.540  0.00  0.00    +0.000 N 
ATOM     22  H   UNL     1       1.046   5.599  19.846  0.00  0.00    +0.000 HD
BRANCH  21  33
ATOM     23  C   UNL     1       2.553   8.092  18.784  0.00  0.00    +0.000 C 
ATOM     24  C   UNL     1       1.992   9.362  19.467  0.00  0.00    +0.000 C 
ATOM     25  N   UNL     1       1.221   8.837  20.584  0.00  0.00    +0.000 N 
ATOM     26  C   UNL     1       0.398   9.659  21.329  0.00  0.00    +0.000 A 
ATOM     27  C   UNL     1      -0.083   9.272  22.583  0.00  0.00    +0.000 A 
ATOM     28  C   UNL     1      -1.000  10.063  23.290  0.00  0.00    +0.000 A 
ATOM     29  C   UNL     1      -1.447  11.251  22.732  0.00  0.00    +0.000 A 
ATOM     30  C   UNL     1      -0.931  11.588  21.494  0.00  0.00    +0.000 A 
ATOM     31  N   UNL     1      -0.026  10.832  20.801  0.00  0.00    +0.000 NA
ATOM     32  C   UNL     1       1.883   7.645  21.113  0.00  0.00    +0.000 C 
ATOM     33  C   UNL     1       2.610   6.994  19.903  0.00  0.00    +0.000 C 
BRANCH  23  35
ATOM     34  C   UNL     1       0.621   8.576  17.091  0.00  0.00    +0.000 C 
ATOM     35  C   UNL     1       1.863   7.772  17.445  0.00  0.00    +0.000 C 
ENDBRANCH  23  35
BRANCH  29  36
ATOM     36  C   UNL     1      -2.405  12.084  23.401  0.00  0.00    +0.000 C 
ATOM     37  N   UNL     1      -3.178  12.753  23.945  0.00  0.00    +0.000 NA
ENDBRANCH  29  36
ENDBRANCH  21  33
ENDBRANCH   1  21
TORSDOF 6
ENDMDL
