MODEL 1
REMARK VINA RESULT:      -8.4      0.000      0.000
REMARK  Name = 
REMARK  6 active torsions:
REMARK  status: ('A' for Active; 'I' for Inactive)
REMARK    1  A    between atoms: C_1  and  C_2
REMARK    2  A    between atoms: C_7  and  N_8
REMARK    3  A    between atoms: C_9  and  C_11
REMARK    4  A    between atoms: C_11  and  N_12
REMARK    5  A    between atoms: C_20  and  S_21
REMARK    6  A    between atoms: S_21  and  N_24
REMARK                            x       y       z     vdW  Elec       q    Type
REMARK                         _______ _______ _______ _____ _____    ______ ____
ROOT
ATOM      1  N   UNL     1       2.425   6.290  19.497  0.00  0.00    +0.000 N 
ATOM      2  C   UNL     1       1.459   5.821  20.369  0.00  0.00    +0.000 C 
ATOM      3  O   UNL     1       0.738   6.577  21.023  0.00  0.00    +0.000 OA
ATOM      4  C   UNL     1       1.269   4.309  20.389  0.00  0.00    +0.000 C 
ATOM      5  O   UNL     1       2.336   3.483  19.964  0.00  0.00    +0.000 OA
ATOM      6  C   UNL     1       3.032   4.004  18.908  0.00  0.00    +0.000 A 
ATOM      7  C   UNL     1       3.754   3.083  18.145  0.00  0.00    +0.000 A 
ATOM      8  C   UNL     1       4.533   3.521  17.076  0.00  0.00    +0.000 A 
ATOM      9  C   UNL     1       4.586   4.887  16.780  0.00  0.00    +0.000 A 
ATOM     10  C   UNL     1       3.882   5.813  17.558  0.00  0.00    +0.000 A 
ATOM     11  C   UNL     1       3.108   5.381  18.643  0.00  0.00    +0.000 A 
ENDROOT
BRANCH   9  12
ATOM     12  S   UNL     1       5.681   5.404  15.475  0.00  0.00    +0.000 S 
ATOM     13  O   UNL     1       5.787   4.257  14.590  0.00  0.00    +0.000 OA
ATOM     14  O   UNL     1       5.211   6.686  14.998  0.00  0.00    +0.000 OA
BRANCH  12  15
ATOM     15  N   UNL     1       7.197   5.634  16.211  0.00  0.00    +0.000 NA
ATOM     16  C   UNL     1       7.670   4.586  17.153  0.00  0.00    +0.000 C 
ATOM     17  C   UNL     1       7.394   5.160  18.529  0.00  0.00    +0.000 C 
ATOM     18  C   UNL     1       7.654   6.644  18.362  0.00  0.00    +0.000 C 
ATOM     19  C   UNL     1       7.388   6.945  16.890  0.00  0.00    +0.000 C 
ENDBRANCH  12  15
ENDBRANCH   9  12
BRANCH   1  20
ATOM     20  C   UNL     1       2.787   7.703  19.557  0.00  0.00    +0.000 C 
BRANCH  20  22
ATOM     21  N   UNL     1       0.915   9.280  19.356  0.00  0.00    +0.000 N 
ATOM     22  C   UNL     1       1.930   8.615  18.686  0.00  0.00    +0.000 C 
ATOM     23  O   UNL     1       2.185   8.703  17.485  0.00  0.00    +0.000 OA
ATOM     24  H   UNL     1       0.765   9.023  20.328  0.00  0.00    +0.000 HD
BRANCH  21  31
ATOM     25  C   UNL     1       1.027  12.163  19.983  0.00  0.00    +0.000 C 
ATOM     26  C   UNL     1       0.012  11.544  19.060  0.00  0.00    +0.000 A 
ATOM     27  C   UNL     1      -0.962  12.394  18.495  0.00  0.00    +0.000 A 
ATOM     28  C   UNL     1      -1.955  11.896  17.653  0.00  0.00    +0.000 A 
ATOM     29  C   UNL     1      -1.966  10.548  17.332  0.00  0.00    +0.000 A 
ATOM     30  C   UNL     1      -0.999   9.697  17.871  0.00  0.00    +0.000 A 
ATOM     31  C   UNL     1      -0.019  10.167  18.758  0.00  0.00    +0.000 A 
ENDBRANCH  21  31
ENDBRANCH  20  22
ENDBRANCH   1  20
TORSDOF 5
ENDMDL
MODEL 2
REMARK VINA RESULT:      -8.4      1.701      2.711
REMARK  Name = 
REMARK  6 active torsions:
REMARK  status: ('A' for Active; 'I' for Inactive)
REMARK    1  A    between atoms: C_1  and  C_2
REMARK    2  A    between atoms: C_7  and  N_8
REMARK    3  A    between atoms: C_9  and  C_11
REMARK    4  A    between atoms: C_11  and  N_12
REMARK    5  A    between atoms: C_20  and  S_21
REMARK    6  A    between atoms: S_21  and  N_24
REMARK                            x       y       z     vdW  Elec       q    Type
REMARK                         _______ _______ _______ _____ _____    ______ ____
ROOT
ATOM      1  N   UNL     1       2.538   3.891  19.919  0.00  0.00    +0.000 N 
ATOM      2  C   UNL     1       1.817   2.747  20.208  0.00  0.00    +0.000 C 
ATOM      3  O   UNL     1       1.051   2.678  21.171  0.00  0.00    +0.000 OA
ATOM      4  C   UNL     1       1.947   1.614  19.199  0.00  0.00    +0.000 C 
ATOM      5  O   UNL     1       3.095   1.567  18.371  0.00  0.00    +0.000 OA
ATOM      6  C   UNL     1       3.519   2.804  17.969  0.00  0.00    +0.000 A 
ATOM      7  C   UNL     1       4.304   2.829  16.815  0.00  0.00    +0.000 A 
ATOM      8  C   UNL     1       4.825   4.035  16.351  0.00  0.00    +0.000 A 
ATOM      9  C   UNL     1       4.554   5.214  17.053  0.00  0.00    +0.000 A 
ATOM     10  C   UNL     1       3.786   5.187  18.223  0.00  0.00    +0.000 A 
ATOM     11  C   UNL     1       3.272   3.976  18.703  0.00  0.00    +0.000 A 
ENDROOT
BRANCH   9  12
ATOM     12  S   UNL     1       5.332   6.710  16.481  0.00  0.00    +0.000 S 
ATOM     13  O   UNL     1       5.142   6.711  15.041  0.00  0.00    +0.000 OA
ATOM     14  O   UNL     1       4.847   7.793  17.307  0.00  0.00    +0.000 OA
BRANCH  12  15
ATOM     15  N   UNL     1       6.993   6.510  16.786  0.00  0.00    +0.000 NA
ATOM     16  C   UNL     1       7.410   5.319  17.571  0.00  0.00    +0.000 C 
ATOM     17  C   UNL     1       7.655   5.853  18.969  0.00  0.00    +0.000 C 
ATOM     18  C   UNL     1       8.233   7.234  18.733  0.00  0.00    +0.000 C 
ATOM     19  C   UNL     1       7.682   7.686  17.384  0.00  0.00    +0.000 C 
ENDBRANCH  12  15
ENDBRANCH   9  12
BRANCH   1  20
ATOM     20  C   UNL     1       2.605   4.944  20.928  0.00  0.00    +0.000 C 
BRANCH  20  22
ATOM     21  N   UNL     1       2.020   7.329  20.920  0.00  0.00    +0.000 N 
ATOM     22  C   UNL     1       1.549   6.033  20.780  0.00  0.00    +0.000 C 
ATOM     23  O   UNL     1       0.384   5.706  20.551  0.00  0.00    +0.000 OA
ATOM     24  H   UNL     1       2.988   7.433  21.212  0.00  0.00    +0.000 HD
BRANCH  21  31
ATOM     25  C   UNL     1       1.784   8.763  18.351  0.00  0.00    +0.000 C 
ATOM     26  C   UNL     1       1.117   9.208  19.624  0.00  0.00    +0.000 A 
ATOM     27  C   UNL     1       0.366  10.402  19.587  0.00  0.00    +0.000 A 
ATOM     28  C   UNL     1      -0.259  10.899  20.729  0.00  0.00    +0.000 A 
ATOM     29  C   UNL     1      -0.177  10.190  21.917  0.00  0.00    +0.000 A 
ATOM     30  C   UNL     1       0.549   8.998  21.965  0.00  0.00    +0.000 A 
ATOM     31  C   UNL     1       1.226   8.503  20.841  0.00  0.00    +0.000 A 
ENDBRANCH  21  31
ENDBRANCH  20  22
ENDBRANCH   1  20
TORSDOF 5
ENDMDL
MODEL 3
REMARK VINA RESULT:      -8.0      1.569      2.456
REMARK  Name = 
REMARK  6 active torsions:
REMARK  status: ('A' for Active; 'I' for Inactive)
REMARK    1  A    between atoms: C_1  and  C_2
REMARK    2  A    between atoms: C_7  and  N_8
REMARK    3  A    between atoms: C_9  and  C_11
REMARK    4  A    between atoms: C_11  and  N_12
REMARK    5  A    between atoms: C_20  and  S_21
REMARK    6  A    between atoms: S_21  and  N_24
REMARK                            x       y       z     vdW  Elec       q    Type
REMARK                         _______ _______ _______ _____ _____    ______ ____
ROOT
ATOM      1  N   UNL     1       2.487   3.948  20.005  0.00  0.00    +0.000 N 
ATOM      2  C   UNL     1       1.774   2.813  20.346  0.00  0.00    +0.000 C 
ATOM      3  O   UNL     1       0.989   2.789  21.295  0.00  0.00    +0.000 OA
ATOM      4  C   UNL     1       1.939   1.626  19.406  0.00  0.00    +0.000 C 
ATOM      5  O   UNL     1       3.104   1.547  18.606  0.00  0.00    +0.000 OA
ATOM      6  C   UNL     1       3.522   2.764  18.142  0.00  0.00    +0.000 A 
ATOM      7  C   UNL     1       4.332   2.733  17.005  0.00  0.00    +0.000 A 
ATOM      8  C   UNL     1       4.847   3.918  16.483  0.00  0.00    +0.000 A 
ATOM      9  C   UNL     1       4.547   5.131  17.110  0.00  0.00    +0.000 A 
ATOM     10  C   UNL     1       3.756   5.161  18.264  0.00  0.00    +0.000 A 
ATOM     11  C   UNL     1       3.246   3.973  18.802  0.00  0.00    +0.000 A 
ENDROOT
BRANCH   9  12
ATOM     12  S   UNL     1       5.320   6.602  16.469  0.00  0.00    +0.000 S 
ATOM     13  O   UNL     1       5.139   6.530  15.029  0.00  0.00    +0.000 OA
ATOM     14  O   UNL     1       4.822   7.722  17.237  0.00  0.00    +0.000 OA
BRANCH  12  15
ATOM     15  N   UNL     1       6.980   6.428  16.794  0.00  0.00    +0.000 NA
ATOM     16  C   UNL     1       7.403   5.259  17.607  0.00  0.00    +0.000 C 
ATOM     17  C   UNL     1       7.628   5.824  18.996  0.00  0.00    +0.000 C 
ATOM     18  C   UNL     1       8.191   7.208  18.737  0.00  0.00    +0.000 C 
ATOM     19  C   UNL     1       7.649   7.625  17.374  0.00  0.00    +0.000 C 
ENDBRANCH  12  15
ENDBRANCH   9  12
BRANCH   1  20
ATOM     20  C   UNL     1       2.521   5.058  20.954  0.00  0.00    +0.000 C 
BRANCH  20  22
ATOM     21  N   UNL     1       2.194   7.426  20.392  0.00  0.00    +0.000 N 
ATOM     22  C   UNL     1       1.576   6.207  20.620  0.00  0.00    +0.000 C 
ATOM     23  O   UNL     1       0.365   5.987  20.572  0.00  0.00    +0.000 OA
ATOM     24  H   UNL     1       3.194   7.471  20.572  0.00  0.00    +0.000 HD
BRANCH  21  31
ATOM     25  C   UNL     1       1.097   9.087  22.571  0.00  0.00    +0.000 C 
ATOM     26  C   UNL     1       0.981   9.435  21.112  0.00  0.00    +0.000 A 
ATOM     27  C   UNL     1       0.274  10.607  20.772  0.00  0.00    +0.000 A 
ATOM     28  C   UNL     1       0.097  10.986  19.443  0.00  0.00    +0.000 A 
ATOM     29  C   UNL     1       0.657  10.220  18.433  0.00  0.00    +0.000 A 
ATOM     30  C   UNL     1       1.375   9.066  18.754  0.00  0.00    +0.000 A 
ATOM     31  C   UNL     1       1.526   8.639  20.082  0.00  0.00    +0.000 A 
ENDBRANCH  21  31
ENDBRANCH  20  22
ENDBRANCH   1  20
TORSDOF 5
ENDMDL
MODEL 4
REMARK VINA RESULT:      -8.0      1.043      1.107
REMARK  Name = 
REMARK  6 active torsions:
REMARK  status: ('A' for Active; 'I' for Inactive)
REMARK    1  A    between atoms: C_1  and  C_2
REMARK    2  A    between atoms: C_7  and  N_8
REMARK    3  A    between atoms: C_9  and  C_11
REMARK    4  A    between atoms: C_11  and  N_12
REMARK    5  A    between atoms: C_20  and  S_21
REMARK    6  A    between atoms: S_21  and  N_24
REMARK                            x       y       z     vdW  Elec       q    Type
REMARK                         _______ _______ _______ _____ _____    ______ ____
ROOT
ATOM      1  N   UNL     1       2.479   5.609  19.490  0.00  0.00    +0.000 N 
ATOM      2  C   UNL     1       1.490   4.991  20.234  0.00  0.00    +0.000 C 
ATOM      3  O   UNL     1       0.765   5.614  21.011  0.00  0.00    +0.000 OA
ATOM      4  C   UNL     1       1.284   3.508  19.951  0.00  0.00    +0.000 C 
ATOM      5  O   UNL     1       2.350   2.766  19.389  0.00  0.00    +0.000 OA
ATOM      6  C   UNL     1       3.074   3.476  18.470  0.00  0.00    +0.000 A 
ATOM      7  C   UNL     1       3.801   2.713  17.553  0.00  0.00    +0.000 A 
ATOM      8  C   UNL     1       4.607   3.342  16.607  0.00  0.00    +0.000 A 
ATOM      9  C   UNL     1       4.681   4.739  16.588  0.00  0.00    +0.000 A 
ATOM     10  C   UNL     1       3.971   5.503  17.521  0.00  0.00    +0.000 A 
ATOM     11  C   UNL     1       3.170   4.877  18.485  0.00  0.00    +0.000 A 
ENDROOT
BRANCH   9  12
ATOM     12  S   UNL     1       5.808   5.488  15.431  0.00  0.00    +0.000 S 
ATOM     13  O   UNL     1       5.989   4.500  14.382  0.00  0.00    +0.000 OA
ATOM     14  O   UNL     1       5.313   6.815  15.142  0.00  0.00    +0.000 OA
BRANCH  12  15
ATOM     15  N   UNL     1       7.284   5.640  16.262  0.00  0.00    +0.000 NA
ATOM     16  C   UNL     1       7.657   4.555  17.207  0.00  0.00    +0.000 C 
ATOM     17  C   UNL     1       7.322   5.112  18.576  0.00  0.00    +0.000 C 
ATOM     18  C   UNL     1       7.651   6.587  18.457  0.00  0.00    +0.000 C 
ATOM     19  C   UNL     1       7.487   6.928  16.980  0.00  0.00    +0.000 C 
ENDBRANCH  12  15
ENDBRANCH   9  12
BRANCH   1  20
ATOM     20  C   UNL     1       2.856   6.977  19.835  0.00  0.00    +0.000 C 
BRANCH  20  22
ATOM     21  N   UNL     1       1.189   8.747  20.178  0.00  0.00    +0.000 N 
ATOM     22  C   UNL     1       1.947   8.052  19.249  0.00  0.00    +0.000 C 
ATOM     23  O   UNL     1       1.945   8.231  18.031  0.00  0.00    +0.000 OA
ATOM     24  H   UNL     1       1.222   8.412  21.138  0.00  0.00    +0.000 HD
BRANCH  21  31
ATOM     25  C   UNL     1      -0.094  10.255  22.368  0.00  0.00    +0.000 C 
ATOM     26  C   UNL     1      -0.372  10.496  20.909  0.00  0.00    +0.000 A 
ATOM     27  C   UNL     1      -1.330  11.477  20.578  0.00  0.00    +0.000 A 
ATOM     28  C   UNL     1      -1.667  11.741  19.252  0.00  0.00    +0.000 A 
ATOM     29  C   UNL     1      -1.023  11.056  18.234  0.00  0.00    +0.000 A 
ATOM     30  C   UNL     1      -0.060  10.094  18.545  0.00  0.00    +0.000 A 
ATOM     31  C   UNL     1       0.261   9.777  19.873  0.00  0.00    +0.000 A 
ENDBRANCH  21  31
ENDBRANCH  20  22
ENDBRANCH   1  20
TORSDOF 5
ENDMDL
MODEL 5
REMARK VINA RESULT:      -7.1      1.805      2.857
REMARK  Name = 
REMARK  6 active torsions:
REMARK  status: ('A' for Active; 'I' for Inactive)
REMARK    1  A    between atoms: C_1  and  C_2
REMARK    2  A    between atoms: C_7  and  N_8
REMARK    3  A    between atoms: C_9  and  C_11
REMARK    4  A    between atoms: C_11  and  N_12
REMARK    5  A    between atoms: C_20  and  S_21
REMARK    6  A    between atoms: S_21  and  N_24
REMARK                            x       y       z     vdW  Elec       q    Type
REMARK                         _______ _______ _______ _____ _____    ______ ____
ROOT
ATOM      1  N   UNL     1       2.681   3.788  19.678  0.00  0.00    +0.000 N 
ATOM      2  C   UNL     1       1.836   2.730  19.961  0.00  0.00    +0.000 C 
ATOM      3  O   UNL     1       1.026   2.764  20.889  0.00  0.00    +0.000 OA
ATOM      4  C   UNL     1       1.894   1.562  18.984  0.00  0.00    +0.000 C 
ATOM      5  O   UNL     1       3.065   1.377  18.211  0.00  0.00    +0.000 OA
ATOM      6  C   UNL     1       3.630   2.555  17.801  0.00  0.00    +0.000 A 
ATOM      7  C   UNL     1       4.463   2.469  16.683  0.00  0.00    +0.000 A 
ATOM      8  C   UNL     1       5.122   3.603  16.216  0.00  0.00    +0.000 A 
ATOM      9  C   UNL     1       4.942   4.823  16.877  0.00  0.00    +0.000 A 
ATOM     10  C   UNL     1       4.126   4.905  18.011  0.00  0.00    +0.000 A 
ATOM     11  C   UNL     1       3.471   3.765  18.495  0.00  0.00    +0.000 A 
ENDROOT
BRANCH   9  12
ATOM     12  S   UNL     1       5.892   6.217  16.307  0.00  0.00    +0.000 S 
ATOM     13  O   UNL     1       7.120   5.650  15.779  0.00  0.00    +0.000 OA
ATOM     14  O   UNL     1       5.020   7.027  15.485  0.00  0.00    +0.000 OA
BRANCH  12  15
ATOM     15  N   UNL     1       6.286   7.106  17.702  0.00  0.00    +0.000 NA
ATOM     16  C   UNL     1       6.668   8.531  17.525  0.00  0.00    +0.000 C 
ATOM     17  C   UNL     1       8.181   8.534  17.616  0.00  0.00    +0.000 C 
ATOM     18  C   UNL     1       8.483   7.466  18.649  0.00  0.00    +0.000 C 
ATOM     19  C   UNL     1       7.313   6.490  18.586  0.00  0.00    +0.000 C 
ENDBRANCH  12  15
ENDBRANCH   9  12
BRANCH   1  20
ATOM     20  C   UNL     1       2.811   4.856  20.665  0.00  0.00    +0.000 C 
BRANCH  20  22
ATOM     21  N   UNL     1       2.326   7.245  20.370  0.00  0.00    +0.000 N 
ATOM     22  C   UNL     1       1.788   5.977  20.524  0.00  0.00    +0.000 C 
ATOM     23  O   UNL     1       0.589   5.697  20.553  0.00  0.00    +0.000 OA
ATOM     24  H   UNL     1       3.335   7.328  20.472  0.00  0.00    +0.000 HD
BRANCH  21  31
ATOM     25  C   UNL     1       2.137   8.567  17.738  0.00  0.00    +0.000 C 
ATOM     26  C   UNL     1       1.491   9.095  18.989  0.00  0.00    +0.000 A 
ATOM     27  C   UNL     1       0.785  10.314  18.898  0.00  0.00    +0.000 A 
ATOM     28  C   UNL     1       0.182  10.886  20.017  0.00  0.00    +0.000 A 
ATOM     29  C   UNL     1       0.242  10.230  21.236  0.00  0.00    +0.000 A 
ATOM     30  C   UNL     1       0.922   9.015  21.339  0.00  0.00    +0.000 A 
ATOM     31  C   UNL     1       1.577   8.443  20.238  0.00  0.00    +0.000 A 
ENDBRANCH  21  31
ENDBRANCH  20  22
ENDBRANCH   1  20
TORSDOF 5
ENDMDL
MODEL 6
REMARK VINA RESULT:      -7.0      2.142      2.688
REMARK  Name = 
REMARK  6 active torsions:
REMARK  status: ('A' for Active; 'I' for Inactive)
REMARK    1  A    between atoms: C_1  and  C_2
REMARK    2  A    between atoms: C_7  and  N_8
REMARK    3  A    between atoms: C_9  and  C_11
REMARK    4  A    between atoms: C_11  and  N_12
REMARK    5  A    between atoms: C_20  and  S_21
REMARK    6  A    between atoms: S_21  and  N_24
REMARK                            x       y       z     vdW  Elec       q    Type
REMARK                         _______ _______ _______ _____ _____    ______ ____
ROOT
ATOM      1  N   UNL     1       2.580   4.961  19.432  0.00  0.00    +0.000 N 
ATOM      2  C   UNL     1       1.415   4.312  19.800  0.00  0.00    +0.000 C 
ATOM      3  O   UNL     1       0.566   4.839  20.521  0.00  0.00    +0.000 OA
ATOM      4  C   UNL     1       1.198   2.942  19.169  0.00  0.00    +0.000 C 
ATOM      5  O   UNL     1       2.322   2.221  18.701  0.00  0.00    +0.000 OA
ATOM      6  C   UNL     1       3.274   3.021  18.130  0.00  0.00    +0.000 A 
ATOM      7  C   UNL     1       4.149   2.384  17.246  0.00  0.00    +0.000 A 
ATOM      8  C   UNL     1       5.183   3.102  16.649  0.00  0.00    +0.000 A 
ATOM      9  C   UNL     1       5.335   4.460  16.946  0.00  0.00    +0.000 A 
ATOM     10  C   UNL     1       4.474   5.094  17.849  0.00  0.00    +0.000 A 
ATOM     11  C   UNL     1       3.441   4.374  18.463  0.00  0.00    +0.000 A 
ENDROOT
BRANCH   9  12
ATOM     12  S   UNL     1       6.736   5.304  16.242  0.00  0.00    +0.000 S 
ATOM     13  O   UNL     1       6.734   6.621  16.856  0.00  0.00    +0.000 OA
ATOM     14  O   UNL     1       7.875   4.420  16.355  0.00  0.00    +0.000 OA
BRANCH  12  15
ATOM     15  N   UNL     1       6.375   5.499  14.592  0.00  0.00    +0.000 NA
ATOM     16  C   UNL     1       5.279   4.671  14.025  0.00  0.00    +0.000 C 
ATOM     17  C   UNL     1       5.990   3.547  13.297  0.00  0.00    +0.000 C 
ATOM     18  C   UNL     1       7.231   4.210  12.733  0.00  0.00    +0.000 C 
ATOM     19  C   UNL     1       7.532   5.380  13.663  0.00  0.00    +0.000 C 
ENDBRANCH  12  15
ENDBRANCH   9  12
BRANCH   1  20
ATOM     20  C   UNL     1       2.941   6.189  20.134  0.00  0.00    +0.000 C 
BRANCH  20  22
ATOM     21  N   UNL     1       1.504   8.112  20.650  0.00  0.00    +0.000 N 
ATOM     22  C   UNL     1       2.197   7.432  19.661  0.00  0.00    +0.000 C 
ATOM     23  O   UNL     1       2.258   7.747  18.472  0.00  0.00    +0.000 OA
ATOM     24  H   UNL     1       1.462   7.669  21.565  0.00  0.00    +0.000 HD
BRANCH  21  31
ATOM     25  C   UNL     1       0.195   9.409  22.956  0.00  0.00    +0.000 C 
ATOM     26  C   UNL     1       0.081   9.904  21.539  0.00  0.00    +0.000 A 
ATOM     27  C   UNL     1      -0.730  11.034  21.304  0.00  0.00    +0.000 A 
ATOM     28  C   UNL     1      -0.912  11.539  20.018  0.00  0.00    +0.000 A 
ATOM     29  C   UNL     1      -0.254  10.946  18.952  0.00  0.00    +0.000 A 
ATOM     30  C   UNL     1       0.566   9.837  19.171  0.00  0.00    +0.000 A 
ATOM     31  C   UNL     1       0.726   9.282  20.450  0.00  0.00    +0.000 A 
ENDBRANCH  21  31
ENDBRANCH  20  22
ENDBRANCH   1  20
TORSDOF 5
ENDMDL
MODEL 7
REMARK VINA RESULT:      -7.0      1.531      2.038
REMARK  Name = 
REMARK  6 active torsions:
REMARK  status: ('A' for Active; 'I' for Inactive)
REMARK    1  A    between atoms: C_1  and  C_2
REMARK    2  A    between atoms: C_7  and  N_8
REMARK    3  A    between atoms: C_9  and  C_11
REMARK    4  A    between atoms: C_11  and  N_12
REMARK    5  A    between atoms: C_20  and  S_21
REMARK    6  A    between atoms: S_21  and  N_24
REMARK                            x       y       z     vdW  Elec       q    Type
REMARK                         _______ _______ _______ _____ _____    ______ ____
ROOT
ATOM      1  N   UNL     1       2.566   6.359  19.769  0.00  0.00    +0.000 N 
ATOM      2  C   UNL     1       1.437   5.850  20.385  0.00  0.00    +0.000 C 
ATOM      3  O   UNL     1       0.494   6.565  20.727  0.00  0.00    +0.000 OA
ATOM      4  C   UNL     1       1.387   4.333  20.517  0.00  0.00    +0.000 C 
ATOM      5  O   UNL     1       2.602   3.606  20.496  0.00  0.00    +0.000 OA
ATOM      6  C   UNL     1       3.522   4.121  19.624  0.00  0.00    +0.000 A 
ATOM      7  C   UNL     1       4.512   3.234  19.197  0.00  0.00    +0.000 A 
ATOM      8  C   UNL     1       5.523   3.675  18.345  0.00  0.00    +0.000 A 
ATOM      9  C   UNL     1       5.535   5.010  17.927  0.00  0.00    +0.000 A 
ATOM     10  C   UNL     1       4.556   5.905  18.374  0.00  0.00    +0.000 A 
ATOM     11  C   UNL     1       3.545   5.472  19.242  0.00  0.00    +0.000 A 
ENDROOT
BRANCH   9  12
ATOM     12  S   UNL     1       6.907   5.548  16.929  0.00  0.00    +0.000 S 
ATOM     13  O   UNL     1       7.201   6.897  17.381  0.00  0.00    +0.000 OA
ATOM     14  O   UNL     1       7.907   4.504  16.969  0.00  0.00    +0.000 OA
BRANCH  12  15
ATOM     15  N   UNL     1       6.308   5.651  15.341  0.00  0.00    +0.000 NA
ATOM     16  C   UNL     1       5.010   4.987  15.050  0.00  0.00    +0.000 C 
ATOM     17  C   UNL     1       5.392   3.690  14.365  0.00  0.00    +0.000 C 
ATOM     18  C   UNL     1       6.611   4.061  13.544  0.00  0.00    +0.000 C 
ATOM     19  C   UNL     1       7.255   5.238  14.269  0.00  0.00    +0.000 C 
ENDBRANCH  12  15
ENDBRANCH   9  12
BRANCH   1  20
ATOM     20  C   UNL     1       2.766   7.805  19.773  0.00  0.00    +0.000 C 
BRANCH  20  22
ATOM     21  N   UNL     1       0.935   9.412  19.467  0.00  0.00    +0.000 N 
ATOM     22  C   UNL     1       1.842   8.576  18.836  0.00  0.00    +0.000 C 
ATOM     23  O   UNL     1       1.957   8.415  17.621  0.00  0.00    +0.000 OA
ATOM     24  H   UNL     1       0.892   9.357  20.482  0.00  0.00    +0.000 HD
BRANCH  21  31
ATOM     25  C   UNL     1       1.253  12.347  19.424  0.00  0.00    +0.000 C 
ATOM     26  C   UNL     1       0.095  11.620  18.795  0.00  0.00    +0.000 A 
ATOM     27  C   UNL     1      -0.910  12.396  18.183  0.00  0.00    +0.000 A 
ATOM     28  C   UNL     1      -2.030  11.802  17.602  0.00  0.00    +0.000 A 
ATOM     29  C   UNL     1      -2.142  10.421  17.590  0.00  0.00    +0.000 A 
ATOM     30  C   UNL     1      -1.146   9.638  18.178  0.00  0.00    +0.000 A 
ATOM     31  C   UNL     1      -0.034  10.215  18.810  0.00  0.00    +0.000 A 
ENDBRANCH  21  31
ENDBRANCH  20  22
ENDBRANCH   1  20
TORSDOF 5
ENDMDL
MODEL 8
REMARK VINA RESULT:      -7.0      5.490     10.720
REMARK  Name = 
REMARK  6 active torsions:
REMARK  status: ('A' for Active; 'I' for Inactive)
REMARK    1  A    between atoms: C_1  and  C_2
REMARK    2  A    between atoms: C_7  and  N_8
REMARK    3  A    between atoms: C_9  and  C_11
REMARK    4  A    between atoms: C_11  and  N_12
REMARK    5  A    between atoms: C_20  and  S_21
REMARK    6  A    between atoms: S_21  and  N_24
REMARK                            x       y       z     vdW  Elec       q    Type
REMARK                         _______ _______ _______ _____ _____    ______ ____
ROOT
ATOM      1  N   UNL     1      -3.684  11.974  18.289  0.00  0.00    +0.000 N 
ATOM      2  C   UNL     1      -4.507  11.704  17.211  0.00  0.00    +0.000 C 
ATOM      3  O   UNL     1      -4.073  11.263  16.145  0.00  0.00    +0.000 OA
ATOM      4  C   UNL     1      -5.999  11.885  17.462  0.00  0.00    +0.000 C 
ATOM      5  O   UNL     1      -6.416  12.746  18.505  0.00  0.00    +0.000 OA
ATOM      6  C   UNL     1      -5.607  12.686  19.607  0.00  0.00    +0.000 A 
ATOM      7  C   UNL     1      -6.186  13.109  20.805  0.00  0.00    +0.000 A 
ATOM      8  C   UNL     1      -5.430  13.131  21.976  0.00  0.00    +0.000 A 
ATOM      9  C   UNL     1      -4.091  12.728  21.935  0.00  0.00    +0.000 A 
ATOM     10  C   UNL     1      -3.503  12.327  20.730  0.00  0.00    +0.000 A 
ATOM     11  C   UNL     1      -4.254  12.316  19.547  0.00  0.00    +0.000 A 
ENDROOT
BRANCH   9  12
ATOM     12  S   UNL     1      -3.140  12.879  23.433  0.00  0.00    +0.000 S 
ATOM     13  O   UNL     1      -4.096  12.689  24.510  0.00  0.00    +0.000 OA
ATOM     14  O   UNL     1      -1.978  12.029  23.295  0.00  0.00    +0.000 OA
BRANCH  12  15
ATOM     15  N   UNL     1      -2.615  14.496  23.483  0.00  0.00    +0.000 NA
ATOM     16  C   UNL     1      -1.255  14.762  24.019  0.00  0.00    +0.000 C 
ATOM     17  C   UNL     1      -1.492  15.244  25.436  0.00  0.00    +0.000 C 
ATOM     18  C   UNL     1      -2.777  16.043  25.336  0.00  0.00    +0.000 C 
ATOM     19  C   UNL     1      -3.539  15.451  24.155  0.00  0.00    +0.000 C 
ENDBRANCH  12  15
ENDBRANCH   9  12
BRANCH   1  20
ATOM     20  C   UNL     1      -2.240  11.999  18.071  0.00  0.00    +0.000 C 
BRANCH  20  22
ATOM     21  N   UNL     1      -0.238  10.744  18.738  0.00  0.00    +0.000 N 
ATOM     22  C   UNL     1      -1.544  10.659  18.282  0.00  0.00    +0.000 C 
ATOM     23  O   UNL     1      -2.163   9.622  18.045  0.00  0.00    +0.000 OA
ATOM     24  H   UNL     1       0.169  11.674  18.786  0.00  0.00    +0.000 HD
BRANCH  21  31
ATOM     25  C   UNL     1      -0.110   9.586  21.451  0.00  0.00    +0.000 C 
ATOM     26  C   UNL     1       0.699   9.084  20.286  0.00  0.00    +0.000 A 
ATOM     27  C   UNL     1       1.596   8.021  20.522  0.00  0.00    +0.000 A 
ATOM     28  C   UNL     1       2.403   7.516  19.505  0.00  0.00    +0.000 A 
ATOM     29  C   UNL     1       2.299   8.040  18.226  0.00  0.00    +0.000 A 
ATOM     30  C   UNL     1       1.404   9.082  17.973  0.00  0.00    +0.000 A 
ATOM     31  C   UNL     1       0.616   9.638  18.991  0.00  0.00    +0.000 A 
ENDBRANCH  21  31
ENDBRANCH  20  22
ENDBRANCH   1  20
TORSDOF 5
ENDMDL
MODEL 9
REMARK VINA RESULT:      -6.9      1.640      2.154
REMARK  Name = 
REMARK  6 active torsions:
REMARK  status: ('A' for Active; 'I' for Inactive)
REMARK    1  A    between atoms: C_1  and  C_2
REMARK    2  A    between atoms: C_7  and  N_8
REMARK    3  A    between atoms: C_9  and  C_11
REMARK    4  A    between atoms: C_11  and  N_12
REMARK    5  A    between atoms: C_20  and  S_21
REMARK    6  A    between atoms: S_21  and  N_24
REMARK                            x       y       z     vdW  Elec       q    Type
REMARK                         _______ _______ _______ _____ _____    ______ ____
ROOT
ATOM      1  N   UNL     1       2.362   6.961  19.684  0.00  0.00    +0.000 N 
ATOM      2  C   UNL     1       1.448   6.458  20.592  0.00  0.00    +0.000 C 
ATOM      3  O   UNL     1       0.573   7.159  21.103  0.00  0.00    +0.000 OA
ATOM      4  C   UNL     1       1.523   4.956  20.838  0.00  0.00    +0.000 C 
ATOM      5  O   UNL     1       2.739   4.282  20.573  0.00  0.00    +0.000 OA
ATOM      6  C   UNL     1       3.389   4.760  19.468  0.00  0.00    +0.000 A 
ATOM      7  C   UNL     1       4.300   3.883  18.874  0.00  0.00    +0.000 A 
ATOM      8  C   UNL     1       5.047   4.293  17.772  0.00  0.00    +0.000 A 
ATOM      9  C   UNL     1       4.876   5.588  17.271  0.00  0.00    +0.000 A 
ATOM     10  C   UNL     1       3.981   6.476  17.880  0.00  0.00    +0.000 A 
ATOM     11  C   UNL     1       3.238   6.074  18.997  0.00  0.00    +0.000 A 
ENDROOT
BRANCH   9  12
ATOM     12  S   UNL     1       5.933   6.098  15.932  0.00  0.00    +0.000 S 
ATOM     13  O   UNL     1       5.061   6.804  15.008  0.00  0.00    +0.000 OA
ATOM     14  O   UNL     1       7.092   6.737  16.514  0.00  0.00    +0.000 OA
BRANCH  12  15
ATOM     15  N   UNL     1       6.440   4.662  15.175  0.00  0.00    +0.000 NA
ATOM     16  C   UNL     1       7.630   4.735  14.288  0.00  0.00    +0.000 C 
ATOM     17  C   UNL     1       7.058   4.767  12.885  0.00  0.00    +0.000 C 
ATOM     18  C   UNL     1       5.842   3.867  12.969  0.00  0.00    +0.000 C 
ATOM     19  C   UNL     1       5.386   3.926  14.424  0.00  0.00    +0.000 C 
ENDBRANCH  12  15
ENDBRANCH   9  12
BRANCH   1  20
ATOM     20  C   UNL     1       2.469   8.409  19.536  0.00  0.00    +0.000 C 
BRANCH  20  22
ATOM     21  N   UNL     1       0.328   9.582  19.267  0.00  0.00    +0.000 N 
ATOM     22  C   UNL     1       1.423   9.032  18.618  0.00  0.00    +0.000 C 
ATOM     23  O   UNL     1       1.610   9.011  17.401  0.00  0.00    +0.000 OA
ATOM     24  H   UNL     1       0.267   9.428  20.270  0.00  0.00    +0.000 HD
BRANCH  21  31
ATOM     25  C   UNL     1      -0.976  11.909  20.530  0.00  0.00    +0.000 C 
ATOM     26  C   UNL     1      -1.422  11.304  19.226  0.00  0.00    +0.000 A 
ATOM     27  C   UNL     1      -2.552  11.864  18.596  0.00  0.00    +0.000 A 
ATOM     28  C   UNL     1      -3.047  11.345  17.402  0.00  0.00    +0.000 A 
ATOM     29  C   UNL     1      -2.396  10.280  16.798  0.00  0.00    +0.000 A 
ATOM     30  C   UNL     1      -1.266   9.725  17.401  0.00  0.00    +0.000 A 
ATOM     31  C   UNL     1      -0.778  10.201  18.627  0.00  0.00    +0.000 A 
ENDBRANCH  21  31
ENDBRANCH  20  22
ENDBRANCH   1  20
TORSDOF 5
ENDMDL
