MODEL 1
REMARK VINA RESULT:      -8.3      0.000      0.000
REMARK  Name = 
REMARK  3 active torsions:
REMARK  status: ('A' for Active; 'I' for Inactive)
REMARK    1  A    between atoms: C_1  and  C_2
REMARK    2  A    between atoms: C_2  and  C_4
REMARK    3  A    between atoms: C_12  and  O_13
REMARK                            x       y       z     vdW  Elec       q    Type
REMARK                         _______ _______ _______ _____ _____    ______ ____
ROOT
ATOM      1  C   UNL     1       5.823   4.811  15.311  0.00  0.00    +0.000 A 
ATOM      2  C   UNL     1       5.326   5.896  16.017  0.00  0.00    +0.000 A 
ATOM      3  C   UNL     1       4.416   5.382  16.962  0.00  0.00    +0.000 A 
ATOM      4  C   UNL     1       4.416   4.019  16.799  0.00  0.00    +0.000 A 
ATOM      5  O   UNL     1       5.260   3.652  15.792  0.00  0.00    +0.000 OA
ATOM      6  C   UNL     1       3.650   3.078  17.570  0.00  0.00    +0.000 C 
ATOM      7  O   UNL     1       3.654   1.858  17.431  0.00  0.00    +0.000 OA
ATOM      8  C   UNL     1       2.790   3.702  18.628  0.00  0.00    +0.000 A 
ATOM      9  C   UNL     1       1.999   2.903  19.464  0.00  0.00    +0.000 A 
ATOM     10  C   UNL     1       1.192   3.484  20.445  0.00  0.00    +0.000 A 
ATOM     11  C   UNL     1       1.160   4.869  20.603  0.00  0.00    +0.000 A 
ATOM     12  C   UNL     1       1.944   5.679  19.783  0.00  0.00    +0.000 A 
ATOM     13  C   UNL     1       2.762   5.104  18.799  0.00  0.00    +0.000 A 
ATOM     14  C   UNL     1       3.593   6.019  17.958  0.00  0.00    +0.000 C 
ATOM     15  O   UNL     1       3.568   7.231  18.116  0.00  0.00    +0.000 OA
ENDROOT
BRANCH   1  17
ATOM     16  C   UNL     1       6.490   3.878  13.060  0.00  0.00    +0.000 C 
ATOM     17  C   UNL     1       6.787   4.777  14.230  0.00  0.00    +0.000 C 
ATOM     18  O   UNL     1       7.812   5.460  14.241  0.00  0.00    +0.000 OA
ENDBRANCH   1  17
BRANCH   9  19
ATOM     19  O   UNL     1       1.961   1.537  19.392  0.00  0.00    +0.000 OA
ATOM     20  H   UNL     1       1.165   1.209  19.868  0.00  0.00    +0.000 HD
ENDBRANCH   9  19
TORSDOF 2
ENDMDL
MODEL 2
REMARK VINA RESULT:      -8.1      0.846      2.805
REMARK  Name = 
REMARK  3 active torsions:
REMARK  status: ('A' for Active; 'I' for Inactive)
REMARK    1  A    between atoms: C_1  and  C_2
REMARK    2  A    between atoms: C_2  and  C_4
REMARK    3  A    between atoms: C_12  and  O_13
REMARK                            x       y       z     vdW  Elec       q    Type
REMARK                         _______ _______ _______ _____ _____    ______ ____
ROOT
ATOM      1  C   UNL     1       5.886   4.562  15.288  0.00  0.00    +0.000 A 
ATOM      2  C   UNL     1       5.339   3.408  15.830  0.00  0.00    +0.000 A 
ATOM      3  C   UNL     1       4.528   3.812  16.909  0.00  0.00    +0.000 A 
ATOM      4  C   UNL     1       4.606   5.181  16.961  0.00  0.00    +0.000 A 
ATOM      5  O   UNL     1       5.436   5.656  15.989  0.00  0.00    +0.000 OA
ATOM      6  C   UNL     1       3.916   6.029  17.895  0.00  0.00    +0.000 C 
ATOM      7  O   UNL     1       3.979   7.254  17.939  0.00  0.00    +0.000 OA
ATOM      8  C   UNL     1       3.055   5.293  18.878  0.00  0.00    +0.000 A 
ATOM      9  C   UNL     1       2.314   5.994  19.839  0.00  0.00    +0.000 A 
ATOM     10  C   UNL     1       1.518   5.309  20.759  0.00  0.00    +0.000 A 
ATOM     11  C   UNL     1       1.452   3.917  20.736  0.00  0.00    +0.000 A 
ATOM     12  C   UNL     1       2.178   3.203  19.784  0.00  0.00    +0.000 A 
ATOM     13  C   UNL     1       2.977   3.883  18.852  0.00  0.00    +0.000 A 
ATOM     14  C   UNL     1       3.723   3.069  17.844  0.00  0.00    +0.000 C 
ATOM     15  O   UNL     1       3.645   1.849  17.824  0.00  0.00    +0.000 OA
ENDROOT
BRANCH   1  17
ATOM     16  C   UNL     1       6.510   3.902  12.930  0.00  0.00    +0.000 C 
ATOM     17  C   UNL     1       6.788   4.716  14.166  0.00  0.00    +0.000 C 
ATOM     18  O   UNL     1       7.748   5.488  14.194  0.00  0.00    +0.000 OA
ENDBRANCH   1  17
BRANCH   9  19
ATOM     19  O   UNL     1       2.308   7.358  19.944  0.00  0.00    +0.000 OA
ATOM     20  H   UNL     1       1.808   7.620  20.749  0.00  0.00    +0.000 HD
ENDBRANCH   9  19
TORSDOF 2
ENDMDL
MODEL 3
REMARK VINA RESULT:      -7.8      1.369      1.370
REMARK  Name = 
REMARK  3 active torsions:
REMARK  status: ('A' for Active; 'I' for Inactive)
REMARK    1  A    between atoms: C_1  and  C_2
REMARK    2  A    between atoms: C_2  and  C_4
REMARK    3  A    between atoms: C_12  and  O_13
REMARK                            x       y       z     vdW  Elec       q    Type
REMARK                         _______ _______ _______ _____ _____    ______ ____
ROOT
ATOM      1  C   UNL     1       5.970   4.578  15.630  0.00  0.00    +0.000 A 
ATOM      2  C   UNL     1       6.214   5.021  16.921  0.00  0.00    +0.000 A 
ATOM      3  C   UNL     1       5.097   4.651  17.695  0.00  0.00    +0.000 A 
ATOM      4  C   UNL     1       4.241   3.990  16.849  0.00  0.00    +0.000 A 
ATOM      5  O   UNL     1       4.750   3.944  15.584  0.00  0.00    +0.000 OA
ATOM      6  C   UNL     1       2.977   3.409  17.213  0.00  0.00    +0.000 C 
ATOM      7  O   UNL     1       2.214   2.812  16.460  0.00  0.00    +0.000 OA
ATOM      8  C   UNL     1       2.615   3.577  18.658  0.00  0.00    +0.000 A 
ATOM      9  C   UNL     1       1.417   3.048  19.157  0.00  0.00    +0.000 A 
ATOM     10  C   UNL     1       1.074   3.211  20.501  0.00  0.00    +0.000 A 
ATOM     11  C   UNL     1       1.920   3.904  21.365  0.00  0.00    +0.000 A 
ATOM     12  C   UNL     1       3.118   4.433  20.889  0.00  0.00    +0.000 A 
ATOM     13  C   UNL     1       3.473   4.270  19.541  0.00  0.00    +0.000 A 
ATOM     14  C   UNL     1       4.776   4.844  19.086  0.00  0.00    +0.000 C 
ATOM     15  O   UNL     1       5.517   5.437  19.857  0.00  0.00    +0.000 OA
ENDROOT
BRANCH   1  17
ATOM     16  C   UNL     1       6.403   3.878  13.241  0.00  0.00    +0.000 C 
ATOM     17  C   UNL     1       6.792   4.698  14.443  0.00  0.00    +0.000 C 
ATOM     18  O   UNL     1       7.769   5.445  14.392  0.00  0.00    +0.000 OA
ENDBRANCH   1  17
BRANCH   9  19
ATOM     19  O   UNL     1       0.521   2.351  18.393  0.00  0.00    +0.000 OA
ATOM     20  H   UNL     1       0.925   1.497  18.117  0.00  0.00    +0.000 HD
ENDBRANCH   9  19
TORSDOF 2
ENDMDL
MODEL 4
REMARK VINA RESULT:      -7.0      1.722      1.918
REMARK  Name = 
REMARK  3 active torsions:
REMARK  status: ('A' for Active; 'I' for Inactive)
REMARK    1  A    between atoms: C_1  and  C_2
REMARK    2  A    between atoms: C_2  and  C_4
REMARK    3  A    between atoms: C_12  and  O_13
REMARK                            x       y       z     vdW  Elec       q    Type
REMARK                         _______ _______ _______ _____ _____    ______ ____
ROOT
ATOM      1  C   UNL     1       5.793   5.091  16.558  0.00  0.00    +0.000 A 
ATOM      2  C   UNL     1       4.470   5.504  16.572  0.00  0.00    +0.000 A 
ATOM      3  C   UNL     1       3.851   4.846  17.653  0.00  0.00    +0.000 A 
ATOM      4  C   UNL     1       4.824   4.084  18.252  0.00  0.00    +0.000 A 
ATOM      5  O   UNL     1       6.012   4.212  17.594  0.00  0.00    +0.000 OA
ATOM      6  C   UNL     1       4.650   3.259  19.416  0.00  0.00    +0.000 C 
ATOM      7  O   UNL     1       5.520   2.583  19.957  0.00  0.00    +0.000 OA
ATOM      8  C   UNL     1       3.260   3.269  19.978  0.00  0.00    +0.000 A 
ATOM      9  C   UNL     1       2.950   2.520  21.121  0.00  0.00    +0.000 A 
ATOM     10  C   UNL     1       1.654   2.522  21.640  0.00  0.00    +0.000 A 
ATOM     11  C   UNL     1       0.649   3.268  21.026  0.00  0.00    +0.000 A 
ATOM     12  C   UNL     1       0.940   4.023  19.891  0.00  0.00    +0.000 A 
ATOM     13  C   UNL     1       2.240   4.031  19.365  0.00  0.00    +0.000 A 
ATOM     14  C   UNL     1       2.501   4.870  18.155  0.00  0.00    +0.000 C 
ATOM     15  O   UNL     1       1.615   5.532  17.634  0.00  0.00    +0.000 OA
ENDROOT
BRANCH   1  17
ATOM     16  C   UNL     1       6.905   4.792  14.309  0.00  0.00    +0.000 C 
ATOM     17  C   UNL     1       6.866   5.460  15.657  0.00  0.00    +0.000 C 
ATOM     18  O   UNL     1       7.718   6.298  15.957  0.00  0.00    +0.000 OA
ENDBRANCH   1  17
BRANCH   9  19
ATOM     19  O   UNL     1       3.862   1.758  21.798  0.00  0.00    +0.000 OA
ATOM     20  H   UNL     1       4.203   2.267  22.568  0.00  0.00    +0.000 HD
ENDBRANCH   9  19
TORSDOF 2
ENDMDL
MODEL 5
REMARK VINA RESULT:      -6.7      2.678      6.118
REMARK  Name = 
REMARK  3 active torsions:
REMARK  status: ('A' for Active; 'I' for Inactive)
REMARK    1  A    between atoms: C_1  and  C_2
REMARK    2  A    between atoms: C_2  and  C_4
REMARK    3  A    between atoms: C_12  and  O_13
REMARK                            x       y       z     vdW  Elec       q    Type
REMARK                         _______ _______ _______ _____ _____    ______ ____
ROOT
ATOM      1  C   UNL     1       1.213   8.609  20.849  0.00  0.00    +0.000 A 
ATOM      2  C   UNL     1       1.873   8.729  19.636  0.00  0.00    +0.000 A 
ATOM      3  C   UNL     1       2.317   7.439  19.286  0.00  0.00    +0.000 A 
ATOM      4  C   UNL     1       1.894   6.599  20.286  0.00  0.00    +0.000 A 
ATOM      5  O   UNL     1       1.229   7.294  21.253  0.00  0.00    +0.000 OA
ATOM      6  C   UNL     1       2.102   5.177  20.336  0.00  0.00    +0.000 C 
ATOM      7  O   UNL     1       1.719   4.424  21.226  0.00  0.00    +0.000 OA
ATOM      8  C   UNL     1       2.858   4.622  19.167  0.00  0.00    +0.000 A 
ATOM      9  C   UNL     1       3.122   3.249  19.077  0.00  0.00    +0.000 A 
ATOM     10  C   UNL     1       3.833   2.732  17.992  0.00  0.00    +0.000 A 
ATOM     11  C   UNL     1       4.293   3.577  16.983  0.00  0.00    +0.000 A 
ATOM     12  C   UNL     1       4.036   4.945  17.052  0.00  0.00    +0.000 A 
ATOM     13  C   UNL     1       3.318   5.473  18.136  0.00  0.00    +0.000 A 
ATOM     14  C   UNL     1       3.058   6.945  18.153  0.00  0.00    +0.000 C 
ATOM     15  O   UNL     1       3.453   7.674  17.255  0.00  0.00    +0.000 OA
ENDROOT
BRANCH   1  17
ATOM     16  C   UNL     1      -0.488   9.178  22.629  0.00  0.00    +0.000 C 
ATOM     17  C   UNL     1       0.567   9.626  21.653  0.00  0.00    +0.000 C 
ATOM     18  O   UNL     1       0.861  10.819  21.567  0.00  0.00    +0.000 OA
ENDBRANCH   1  17
BRANCH   9  19
ATOM     19  O   UNL     1       2.713   2.337  20.011  0.00  0.00    +0.000 OA
ATOM     20  H   UNL     1       3.005   1.438  19.738  0.00  0.00    +0.000 HD
ENDBRANCH   9  19
TORSDOF 2
ENDMDL
MODEL 6
REMARK VINA RESULT:      -6.6      2.880      4.893
REMARK  Name = 
REMARK  3 active torsions:
REMARK  status: ('A' for Active; 'I' for Inactive)
REMARK    1  A    between atoms: C_1  and  C_2
REMARK    2  A    between atoms: C_2  and  C_4
REMARK    3  A    between atoms: C_12  and  O_13
REMARK                            x       y       z     vdW  Elec       q    Type
REMARK                         _______ _______ _______ _____ _____    ______ ____
ROOT
ATOM      1  C   UNL     1       4.316   6.051  17.096  0.00  0.00    +0.000 A 
ATOM      2  C   UNL     1       3.824   5.524  18.281  0.00  0.00    +0.000 A 
ATOM      3  C   UNL     1       2.991   6.509  18.847  0.00  0.00    +0.000 A 
ATOM      4  C   UNL     1       3.001   7.572  17.979  0.00  0.00    +0.000 A 
ATOM      5  O   UNL     1       3.810   7.316  16.911  0.00  0.00    +0.000 OA
ATOM      6  C   UNL     1       2.267   8.798  18.140  0.00  0.00    +0.000 C 
ATOM      7  O   UNL     1       2.269   9.747  17.361  0.00  0.00    +0.000 OA
ATOM      8  C   UNL     1       1.440   8.863  19.388  0.00  0.00    +0.000 A 
ATOM      9  C   UNL     1       0.662   9.994  19.668  0.00  0.00    +0.000 A 
ATOM     10  C   UNL     1      -0.102  10.060  20.834  0.00  0.00    +0.000 A 
ATOM     11  C   UNL     1      -0.100   9.000  21.739  0.00  0.00    +0.000 A 
ATOM     12  C   UNL     1       0.664   7.863  21.476  0.00  0.00    +0.000 A 
ATOM     13  C   UNL     1       1.431   7.787  20.304  0.00  0.00    +0.000 A 
ATOM     14  C   UNL     1       2.220   6.540  20.064  0.00  0.00    +0.000 C 
ATOM     15  O   UNL     1       2.202   5.610  20.858  0.00  0.00    +0.000 OA
ENDROOT
BRANCH   1  17
ATOM     16  C   UNL     1       5.408   3.967  16.175  0.00  0.00    +0.000 C 
ATOM     17  C   UNL     1       5.214   5.459  16.126  0.00  0.00    +0.000 C 
ATOM     18  O   UNL     1       5.798   6.130  15.274  0.00  0.00    +0.000 OA
ENDBRANCH   1  17
BRANCH   9  19
ATOM     19  O   UNL     1       0.589  11.085  18.845  0.00  0.00    +0.000 OA
ATOM     20  H   UNL     1      -0.109  11.695  19.175  0.00  0.00    +0.000 HD
ENDBRANCH   9  19
TORSDOF 2
ENDMDL
MODEL 7
REMARK VINA RESULT:      -6.6      2.588      6.206
REMARK  Name = 
REMARK  3 active torsions:
REMARK  status: ('A' for Active; 'I' for Inactive)
REMARK    1  A    between atoms: C_1  and  C_2
REMARK    2  A    between atoms: C_2  and  C_4
REMARK    3  A    between atoms: C_12  and  O_13
REMARK                            x       y       z     vdW  Elec       q    Type
REMARK                         _______ _______ _______ _____ _____    ______ ____
ROOT
ATOM      1  C   UNL     1       1.168   7.911  20.690  0.00  0.00    +0.000 A 
ATOM      2  C   UNL     1       1.646   8.498  19.529  0.00  0.00    +0.000 A 
ATOM      3  C   UNL     1       2.494   7.554  18.917  0.00  0.00    +0.000 A 
ATOM      4  C   UNL     1       2.478   6.440  19.720  0.00  0.00    +0.000 A 
ATOM      5  O   UNL     1       1.683   6.641  20.810  0.00  0.00    +0.000 OA
ATOM      6  C   UNL     1       3.183   5.212  19.471  0.00  0.00    +0.000 C 
ATOM      7  O   UNL     1       3.164   4.213  20.184  0.00  0.00    +0.000 OA
ATOM      8  C   UNL     1       3.997   5.212  18.212  0.00  0.00    +0.000 A 
ATOM      9  C   UNL     1       4.726   4.076  17.837  0.00  0.00    +0.000 A 
ATOM     10  C   UNL     1       5.490   4.076  16.668  0.00  0.00    +0.000 A 
ATOM     11  C   UNL     1       5.539   5.210  15.859  0.00  0.00    +0.000 A 
ATOM     12  C   UNL     1       4.816   6.348  16.212  0.00  0.00    +0.000 A 
ATOM     13  C   UNL     1       4.042   6.354  17.382  0.00  0.00    +0.000 A 
ATOM     14  C   UNL     1       3.274   7.596  17.707  0.00  0.00    +0.000 C 
ATOM     15  O   UNL     1       3.313   8.579  16.981  0.00  0.00    +0.000 OA
ENDROOT
BRANCH   1  17
ATOM     16  C   UNL     1       0.809   9.467  22.649  0.00  0.00    +0.000 C 
ATOM     17  C   UNL     1       0.263   8.444  21.689  0.00  0.00    +0.000 C 
ATOM     18  O   UNL     1      -0.916   8.097  21.760  0.00  0.00    +0.000 OA
ENDBRANCH   1  17
BRANCH   9  19
ATOM     19  O   UNL     1       4.743   2.914  18.559  0.00  0.00    +0.000 OA
ATOM     20  H   UNL     1       4.002   2.338  18.265  0.00  0.00    +0.000 HD
ENDBRANCH   9  19
TORSDOF 2
ENDMDL
MODEL 8
REMARK VINA RESULT:      -6.6      2.335      6.582
REMARK  Name = 
REMARK  3 active torsions:
REMARK  status: ('A' for Active; 'I' for Inactive)
REMARK    1  A    between atoms: C_1  and  C_2
REMARK    2  A    between atoms: C_2  and  C_4
REMARK    3  A    between atoms: C_12  and  O_13
REMARK                            x       y       z     vdW  Elec       q    Type
REMARK                         _______ _______ _______ _____ _____    ______ ____
ROOT
ATOM      1  C   UNL     1       1.331   7.480  20.702  0.00  0.00    +0.000 A 
ATOM      2  C   UNL     1       1.666   6.138  20.791  0.00  0.00    +0.000 A 
ATOM      3  C   UNL     1       2.480   5.849  19.678  0.00  0.00    +0.000 A 
ATOM      4  C   UNL     1       2.614   7.024  18.981  0.00  0.00    +0.000 A 
ATOM      5  O   UNL     1       1.913   8.027  19.583  0.00  0.00    +0.000 OA
ATOM      6  C   UNL     1       3.384   7.208  17.781  0.00  0.00    +0.000 C 
ATOM      7  O   UNL     1       3.511   8.259  17.159  0.00  0.00    +0.000 OA
ATOM      8  C   UNL     1       4.075   5.969  17.294  0.00  0.00    +0.000 A 
ATOM      9  C   UNL     1       4.872   6.005  16.142  0.00  0.00    +0.000 A 
ATOM     10  C   UNL     1       5.509   4.850  15.684  0.00  0.00    +0.000 A 
ATOM     11  C   UNL     1       5.359   3.643  16.366  0.00  0.00    +0.000 A 
ATOM     12  C   UNL     1       4.574   3.589  17.517  0.00  0.00    +0.000 A 
ATOM     13  C   UNL     1       3.934   4.746  17.988  0.00  0.00    +0.000 A 
ATOM     14  C   UNL     1       3.117   4.635  19.235  0.00  0.00    +0.000 C 
ATOM     15  O   UNL     1       3.005   3.575  19.833  0.00  0.00    +0.000 OA
ENDROOT
BRANCH   1  17
ATOM     16  C   UNL     1       1.170   9.466  22.258  0.00  0.00    +0.000 C 
ATOM     17  C   UNL     1       0.515   8.288  21.586  0.00  0.00    +0.000 C 
ATOM     18  O   UNL     1      -0.677   8.046  21.786  0.00  0.00    +0.000 OA
ENDBRANCH   1  17
BRANCH   9  19
ATOM     19  O   UNL     1       5.085   7.136  15.404  0.00  0.00    +0.000 OA
ATOM     20  H   UNL     1       5.877   7.606  15.750  0.00  0.00    +0.000 HD
ENDBRANCH   9  19
TORSDOF 2
ENDMDL
MODEL 9
REMARK VINA RESULT:      -6.6      2.387      2.621
REMARK  Name = 
REMARK  3 active torsions:
REMARK  status: ('A' for Active; 'I' for Inactive)
REMARK    1  A    between atoms: C_1  and  C_2
REMARK    2  A    between atoms: C_2  and  C_4
REMARK    3  A    between atoms: C_12  and  O_13
REMARK                            x       y       z     vdW  Elec       q    Type
REMARK                         _______ _______ _______ _____ _____    ______ ____
ROOT
ATOM      1  C   UNL     1       6.164   6.339  17.552  0.00  0.00    +0.000 A 
ATOM      2  C   UNL     1       4.826   6.680  17.433  0.00  0.00    +0.000 A 
ATOM      3  C   UNL     1       4.103   5.765  18.224  0.00  0.00    +0.000 A 
ATOM      4  C   UNL     1       5.030   4.928  18.794  0.00  0.00    +0.000 A 
ATOM      5  O   UNL     1       6.290   5.255  18.389  0.00  0.00    +0.000 OA
ATOM      6  C   UNL     1       4.745   3.850  19.701  0.00  0.00    +0.000 C 
ATOM      7  O   UNL     1       5.573   3.105  20.218  0.00  0.00    +0.000 OA
ATOM      8  C   UNL     1       3.289   3.670  20.010  0.00  0.00    +0.000 A 
ATOM      9  C   UNL     1       2.868   2.665  20.890  0.00  0.00    +0.000 A 
ATOM     10  C   UNL     1       1.511   2.491  21.172  0.00  0.00    +0.000 A 
ATOM     11  C   UNL     1       0.556   3.315  20.578  0.00  0.00    +0.000 A 
ATOM     12  C   UNL     1       0.957   4.324  19.703  0.00  0.00    +0.000 A 
ATOM     13  C   UNL     1       2.318   4.509  19.418  0.00  0.00    +0.000 A 
ATOM     14  C   UNL     1       2.694   5.614  18.485  0.00  0.00    +0.000 C 
ATOM     15  O   UNL     1       1.849   6.341  17.981  0.00  0.00    +0.000 OA
ENDROOT
BRANCH   1  17
ATOM     16  C   UNL     1       7.889   8.185  17.606  0.00  0.00    +0.000 C 
ATOM     17  C   UNL     1       7.329   6.952  16.948  0.00  0.00    +0.000 C 
ATOM     18  O   UNL     1       7.868   6.492  15.939  0.00  0.00    +0.000 OA
ENDBRANCH   1  17
BRANCH   9  19
ATOM     19  O   UNL     1       3.723   1.807  21.526  0.00  0.00    +0.000 OA
ATOM     20  H   UNL     1       3.707   0.935  21.071  0.00  0.00    +0.000 HD
ENDBRANCH   9  19
TORSDOF 2
ENDMDL
