MODEL 1
REMARK VINA RESULT:      -7.0      0.000      0.000
REMARK  Name = 
REMARK  6 active torsions:
REMARK  status: ('A' for Active; 'I' for Inactive)
REMARK    1  A    between atoms: C_1  and  O_2
REMARK    2  A    between atoms: O_2  and  C_3
REMARK    3  A    between atoms: C_6  and  N_7
REMARK    4  A    between atoms: C_8  and  S_9
REMARK    5  A    between atoms: C_10  and  C_11
REMARK    6  A    between atoms: C_16  and  C_17
REMARK                            x       y       z     vdW  Elec       q    Type
REMARK                         _______ _______ _______ _____ _____    ______ ____
ROOT
ATOM      1  N   UNL     1       3.242   5.841  17.969  0.00  0.00    +0.000 N 
ATOM      2  C   UNL     1       4.597   5.776  17.557  0.00  0.00    +0.000 C 
ATOM      3  C   UNL     1       5.139   4.623  17.079  0.00  0.00    +0.000 C 
ATOM      4  C   UNL     1       4.303   3.426  16.931  0.00  0.00    +0.000 C 
ATOM      5  O   UNL     1       4.744   2.369  16.506  0.00  0.00    +0.000 OA
ATOM      6  N   UNL     1       2.991   3.553  17.235  0.00  0.00    +0.000 N 
ATOM      7  C   UNL     1       2.389   4.631  17.974  0.00  0.00    +0.000 C 
ATOM      8  H   UNL     1       2.451   2.706  17.138  0.00  0.00    +0.000 HD
ENDROOT
BRANCH   1  12
ATOM      9  C   UNL     1       1.143   9.163  19.682  0.00  0.00    +0.000 A 
ATOM     10  C   UNL     1       1.623   8.135  20.486  0.00  0.00    +0.000 A 
ATOM     11  C   UNL     1       2.329   7.059  19.929  0.00  0.00    +0.000 A 
ATOM     12  C   UNL     1       2.595   6.981  18.550  0.00  0.00    +0.000 A 
ATOM     13  C   UNL     1       2.174   8.078  17.779  0.00  0.00    +0.000 A 
ATOM     14  C   UNL     1       1.417   9.128  18.321  0.00  0.00    +0.000 A 
BRANCH   9  16
ATOM     15  C   UNL     1      -0.776  10.544  19.668  0.00  0.00    +0.000 C 
ATOM     16  O   UNL     1       0.411  10.118  20.327  0.00  0.00    +0.000 OA
ENDBRANCH   9  16
ENDBRANCH   1  12
BRANCH   7  17
ATOM     17  C   UNL     1       2.031   4.096  19.330  0.00  0.00    +0.000 A 
ATOM     18  C   UNL     1       0.839   3.804  19.961  0.00  0.00    +0.000 A 
ATOM     19  C   UNL     1       1.177   3.281  21.227  0.00  0.00    +0.000 A 
ATOM     20  C   UNL     1       2.545   3.297  21.299  0.00  0.00    +0.000 A 
ATOM     21  O   UNL     1       3.081   3.799  20.158  0.00  0.00    +0.000 OA
ENDBRANCH   7  17
BRANCH   2  22
ATOM     22  S   UNL     1       5.710   7.193  17.527  0.00  0.00    +0.000 S 
ATOM     23  H   UNL     1       4.906   8.121  16.999  0.00  0.00    +0.000 HD
ENDBRANCH   2  22
BRANCH   3  24
ATOM     24  C   UNL     1       6.593   4.578  16.635  0.00  0.00    +0.000 C 
ATOM     25  N   UNL     1       7.797   4.541  16.267  0.00  0.00    +0.000 NA
ENDBRANCH   3  24
TORSDOF 5
ENDMDL
MODEL 2
REMARK VINA RESULT:      -6.9      0.152      1.007
REMARK  Name = 
REMARK  6 active torsions:
REMARK  status: ('A' for Active; 'I' for Inactive)
REMARK    1  A    between atoms: C_1  and  O_2
REMARK    2  A    between atoms: O_2  and  C_3
REMARK    3  A    between atoms: C_6  and  N_7
REMARK    4  A    between atoms: C_8  and  S_9
REMARK    5  A    between atoms: C_10  and  C_11
REMARK    6  A    between atoms: C_16  and  C_17
REMARK                            x       y       z     vdW  Elec       q    Type
REMARK                         _______ _______ _______ _____ _____    ______ ____
ROOT
ATOM      1  N   UNL     1       3.177   5.750  17.968  0.00  0.00    +0.000 N 
ATOM      2  C   UNL     1       4.537   5.727  17.566  0.00  0.00    +0.000 C 
ATOM      3  C   UNL     1       5.119   4.590  17.098  0.00  0.00    +0.000 C 
ATOM      4  C   UNL     1       4.323   3.366  16.950  0.00  0.00    +0.000 C 
ATOM      5  O   UNL     1       4.800   2.322  16.534  0.00  0.00    +0.000 OA
ATOM      6  N   UNL     1       3.005   3.452  17.244  0.00  0.00    +0.000 N 
ATOM      7  C   UNL     1       2.363   4.514  17.973  0.00  0.00    +0.000 C 
ATOM      8  H   UNL     1       2.494   2.588  17.147  0.00  0.00    +0.000 HD
ENDROOT
BRANCH   1  12
ATOM      9  C   UNL     1       1.290   9.189  19.698  0.00  0.00    +0.000 A 
ATOM     10  C   UNL     1       1.460   9.089  18.321  0.00  0.00    +0.000 A 
ATOM     11  C   UNL     1       2.057   7.954  17.753  0.00  0.00    +0.000 A 
ATOM     12  C   UNL     1       2.490   6.872  18.539  0.00  0.00    +0.000 A 
ATOM     13  C   UNL     1       2.223   6.966  19.917  0.00  0.00    +0.000 A 
ATOM     14  C   UNL     1       1.680   8.123  20.497  0.00  0.00    +0.000 A 
BRANCH   9  16
ATOM     15  C   UNL     1      -0.614  10.583  19.845  0.00  0.00    +0.000 C 
ATOM     16  O   UNL     1       0.762  10.369  20.138  0.00  0.00    +0.000 OA
ENDBRANCH   9  16
ENDBRANCH   1  12
BRANCH   7  17
ATOM     17  C   UNL     1       2.013   3.974  19.329  0.00  0.00    +0.000 A 
ATOM     18  C   UNL     1       0.825   3.660  19.958  0.00  0.00    +0.000 A 
ATOM     19  C   UNL     1       1.170   3.145  21.226  0.00  0.00    +0.000 A 
ATOM     20  C   UNL     1       2.538   3.187  21.300  0.00  0.00    +0.000 A 
ATOM     21  O   UNL     1       3.066   3.698  20.160  0.00  0.00    +0.000 OA
ENDBRANCH   7  17
BRANCH   2  22
ATOM     22  S   UNL     1       5.603   7.179  17.538  0.00  0.00    +0.000 S 
ATOM     23  H   UNL     1       6.362   6.943  18.613  0.00  0.00    +0.000 HD
ENDBRANCH   2  22
BRANCH   3  24
ATOM     24  C   UNL     1       6.576   4.590  16.665  0.00  0.00    +0.000 C 
ATOM     25  N   UNL     1       7.784   4.589  16.306  0.00  0.00    +0.000 NA
ENDBRANCH   3  24
TORSDOF 5
ENDMDL
MODEL 3
REMARK VINA RESULT:      -6.4      2.108      5.748
REMARK  Name = 
REMARK  6 active torsions:
REMARK  status: ('A' for Active; 'I' for Inactive)
REMARK    1  A    between atoms: C_1  and  O_2
REMARK    2  A    between atoms: O_2  and  C_3
REMARK    3  A    between atoms: C_6  and  N_7
REMARK    4  A    between atoms: C_8  and  S_9
REMARK    5  A    between atoms: C_10  and  C_11
REMARK    6  A    between atoms: C_16  and  C_17
REMARK                            x       y       z     vdW  Elec       q    Type
REMARK                         _______ _______ _______ _____ _____    ______ ____
ROOT
ATOM      1  N   UNL     1       3.463   6.247  18.928  0.00  0.00    +0.000 N 
ATOM      2  C   UNL     1       2.764   7.469  18.755  0.00  0.00    +0.000 C 
ATOM      3  C   UNL     1       1.788   7.856  19.621  0.00  0.00    +0.000 C 
ATOM      4  C   UNL     1       1.477   7.030  20.794  0.00  0.00    +0.000 C 
ATOM      5  O   UNL     1       0.612   7.337  21.599  0.00  0.00    +0.000 OA
ATOM      6  N   UNL     1       2.236   5.926  20.984  0.00  0.00    +0.000 N 
ATOM      7  C   UNL     1       3.098   5.308  20.012  0.00  0.00    +0.000 C 
ATOM      8  H   UNL     1       1.983   5.374  21.789  0.00  0.00    +0.000 HD
ENDROOT
BRANCH   1  12
ATOM      9  C   UNL     1       6.415   4.815  16.169  0.00  0.00    +0.000 A 
ATOM     10  C   UNL     1       6.792   5.484  17.329  0.00  0.00    +0.000 A 
ATOM     11  C   UNL     1       5.828   5.933  18.243  0.00  0.00    +0.000 A 
ATOM     12  C   UNL     1       4.454   5.714  18.038  0.00  0.00    +0.000 A 
ATOM     13  C   UNL     1       4.113   4.959  16.902  0.00  0.00    +0.000 A 
ATOM     14  C   UNL     1       5.068   4.559  15.956  0.00  0.00    +0.000 A 
BRANCH   9  16
ATOM     15  C   UNL     1       7.233   4.803  13.950  0.00  0.00    +0.000 C 
ATOM     16  O   UNL     1       7.437   4.489  15.324  0.00  0.00    +0.000 OA
ENDBRANCH   9  16
ENDBRANCH   1  12
BRANCH   7  17
ATOM     17  C   UNL     1       2.432   4.037  19.570  0.00  0.00    +0.000 A 
ATOM     18  C   UNL     1       1.189   3.738  19.049  0.00  0.00    +0.000 A 
ATOM     19  C   UNL     1       1.189   2.349  18.794  0.00  0.00    +0.000 A 
ATOM     20  C   UNL     1       2.418   1.885  19.185  0.00  0.00    +0.000 A 
ATOM     21  O   UNL     1       3.182   2.896  19.670  0.00  0.00    +0.000 OA
ENDBRANCH   7  17
BRANCH   2  22
ATOM     22  S   UNL     1       3.133   8.666  17.460  0.00  0.00    +0.000 S 
ATOM     23  H   UNL     1       2.576   8.062  16.406  0.00  0.00    +0.000 HD
ENDBRANCH   2  22
BRANCH   3  24
ATOM     24  C   UNL     1       1.056   9.174  19.421  0.00  0.00    +0.000 C 
ATOM     25  N   UNL     1       0.449  10.265  19.255  0.00  0.00    +0.000 NA
ENDBRANCH   3  24
TORSDOF 5
ENDMDL
MODEL 4
REMARK VINA RESULT:      -6.2      2.254      5.826
REMARK  Name = 
REMARK  6 active torsions:
REMARK  status: ('A' for Active; 'I' for Inactive)
REMARK    1  A    between atoms: C_1  and  O_2
REMARK    2  A    between atoms: O_2  and  C_3
REMARK    3  A    between atoms: C_6  and  N_7
REMARK    4  A    between atoms: C_8  and  S_9
REMARK    5  A    between atoms: C_10  and  C_11
REMARK    6  A    between atoms: C_16  and  C_17
REMARK                            x       y       z     vdW  Elec       q    Type
REMARK                         _______ _______ _______ _____ _____    ______ ____
ROOT
ATOM      1  N   UNL     1       3.751   6.383  18.658  0.00  0.00    +0.000 N 
ATOM      2  C   UNL     1       2.895   7.513  18.623  0.00  0.00    +0.000 C 
ATOM      3  C   UNL     1       1.918   7.692  19.554  0.00  0.00    +0.000 C 
ATOM      4  C   UNL     1       1.769   6.732  20.655  0.00  0.00    +0.000 C 
ATOM      5  O   UNL     1       0.909   6.850  21.513  0.00  0.00    +0.000 OA
ATOM      6  N   UNL     1       2.670   5.724  20.715  0.00  0.00    +0.000 N 
ATOM      7  C   UNL     1       3.558   5.312  19.661  0.00  0.00    +0.000 C 
ATOM      8  H   UNL     1       2.526   5.075  21.473  0.00  0.00    +0.000 HD
ENDROOT
BRANCH   1  12
ATOM      9  C   UNL     1       6.795   5.269  15.853  0.00  0.00    +0.000 A 
ATOM     10  C   UNL     1       5.460   4.963  15.611  0.00  0.00    +0.000 A 
ATOM     11  C   UNL     1       4.461   5.347  16.517  0.00  0.00    +0.000 A 
ATOM     12  C   UNL     1       4.760   6.065  17.689  0.00  0.00    +0.000 A 
ATOM     13  C   UNL     1       6.105   6.435  17.859  0.00  0.00    +0.000 A 
ATOM     14  C   UNL     1       7.116   6.004  16.986  0.00  0.00    +0.000 A 
BRANCH   9  16
ATOM     15  C   UNL     1       7.215   4.713  13.593  0.00  0.00    +0.000 C 
ATOM     16  O   UNL     1       7.682   4.782  14.936  0.00  0.00    +0.000 OA
ENDBRANCH   9  16
ENDBRANCH   1  12
BRANCH   7  17
ATOM     17  C   UNL     1       3.040   4.009  19.125  0.00  0.00    +0.000 A 
ATOM     18  C   UNL     1       1.842   3.611  18.566  0.00  0.00    +0.000 A 
ATOM     19  C   UNL     1       1.997   2.252  18.220  0.00  0.00    +0.000 A 
ATOM     20  C   UNL     1       3.266   1.899  18.598  0.00  0.00    +0.000 A 
ATOM     21  O   UNL     1       3.910   2.952  19.160  0.00  0.00    +0.000 OA
ENDBRANCH   7  17
BRANCH   2  22
ATOM     22  S   UNL     1       3.049   8.858  17.434  0.00  0.00    +0.000 S 
ATOM     23  H   UNL     1       2.879   8.189  16.289  0.00  0.00    +0.000 HD
ENDBRANCH   2  22
BRANCH   3  24
ATOM     24  C   UNL     1       1.016   8.914  19.503  0.00  0.00    +0.000 C 
ATOM     25  N   UNL     1       0.268   9.927  19.461  0.00  0.00    +0.000 NA
ENDBRANCH   3  24
TORSDOF 5
ENDMDL
MODEL 5
REMARK VINA RESULT:      -6.1      2.085      5.810
REMARK  Name = 
REMARK  6 active torsions:
REMARK  status: ('A' for Active; 'I' for Inactive)
REMARK    1  A    between atoms: C_1  and  O_2
REMARK    2  A    between atoms: O_2  and  C_3
REMARK    3  A    between atoms: C_6  and  N_7
REMARK    4  A    between atoms: C_8  and  S_9
REMARK    5  A    between atoms: C_10  and  C_11
REMARK    6  A    between atoms: C_16  and  C_17
REMARK                            x       y       z     vdW  Elec       q    Type
REMARK                         _______ _______ _______ _____ _____    ______ ____
ROOT
ATOM      1  N   UNL     1       2.907   6.644  19.391  0.00  0.00    +0.000 N 
ATOM      2  C   UNL     1       2.232   7.818  18.970  0.00  0.00    +0.000 C 
ATOM      3  C   UNL     1       1.346   8.457  19.783  0.00  0.00    +0.000 C 
ATOM      4  C   UNL     1       1.113   7.964  21.146  0.00  0.00    +0.000 C 
ATOM      5  O   UNL     1       0.329   8.502  21.911  0.00  0.00    +0.000 OA
ATOM      6  N   UNL     1       1.852   6.904  21.549  0.00  0.00    +0.000 N 
ATOM      7  C   UNL     1       2.609   6.022  20.701  0.00  0.00    +0.000 C 
ATOM      8  H   UNL     1       1.653   6.582  22.484  0.00  0.00    +0.000 HD
ENDROOT
BRANCH   1  12
ATOM      9  C   UNL     1       5.595   4.443  16.881  0.00  0.00    +0.000 A 
ATOM     10  C   UNL     1       6.075   5.196  17.947  0.00  0.00    +0.000 A 
ATOM     11  C   UNL     1       5.194   5.898  18.783  0.00  0.00    +0.000 A 
ATOM     12  C   UNL     1       3.802   5.859  18.592  0.00  0.00    +0.000 A 
ATOM     13  C   UNL     1       3.345   5.019  17.561  0.00  0.00    +0.000 A 
ATOM     14  C   UNL     1       4.223   4.361  16.687  0.00  0.00    +0.000 A 
BRANCH   9  16
ATOM     15  C   UNL     1       7.066   4.667  15.043  0.00  0.00    +0.000 C 
ATOM     16  O   UNL     1       6.551   3.862  16.098  0.00  0.00    +0.000 OA
ENDBRANCH   9  16
ENDBRANCH   1  12
BRANCH   7  17
ATOM     17  C   UNL     1       1.870   4.716  20.644  0.00  0.00    +0.000 A 
ATOM     18  C   UNL     1       0.923   4.188  19.791  0.00  0.00    +0.000 A 
ATOM     19  C   UNL     1       0.655   2.882  20.254  0.00  0.00    +0.000 A 
ATOM     20  C   UNL     1       1.440   2.697  21.362  0.00  0.00    +0.000 A 
ATOM     21  O   UNL     1       2.177   3.806  21.620  0.00  0.00    +0.000 OA
ENDBRANCH   7  17
BRANCH   2  22
ATOM     22  S   UNL     1       2.523   8.638  17.393  0.00  0.00    +0.000 S 
ATOM     23  H   UNL     1       3.450   7.830  16.868  0.00  0.00    +0.000 HD
ENDBRANCH   2  22
BRANCH   3  24
ATOM     24  C   UNL     1       0.638   9.718  19.315  0.00  0.00    +0.000 C 
ATOM     25  N   UNL     1       0.052  10.764  18.927  0.00  0.00    +0.000 NA
ENDBRANCH   3  24
TORSDOF 5
ENDMDL
MODEL 6
REMARK VINA RESULT:      -6.1      2.126      5.823
REMARK  Name = 
REMARK  6 active torsions:
REMARK  status: ('A' for Active; 'I' for Inactive)
REMARK    1  A    between atoms: C_1  and  O_2
REMARK    2  A    between atoms: O_2  and  C_3
REMARK    3  A    between atoms: C_6  and  N_7
REMARK    4  A    between atoms: C_8  and  S_9
REMARK    5  A    between atoms: C_10  and  C_11
REMARK    6  A    between atoms: C_16  and  C_17
REMARK                            x       y       z     vdW  Elec       q    Type
REMARK                         _______ _______ _______ _____ _____    ______ ____
ROOT
ATOM      1  N   UNL     1       3.248   6.524  19.060  0.00  0.00    +0.000 N 
ATOM      2  C   UNL     1       2.561   7.748  18.857  0.00  0.00    +0.000 C 
ATOM      3  C   UNL     1       1.559   8.146  19.687  0.00  0.00    +0.000 C 
ATOM      4  C   UNL     1       1.205   7.327  20.853  0.00  0.00    +0.000 C 
ATOM      5  O   UNL     1       0.314   7.642  21.627  0.00  0.00    +0.000 OA
ATOM      6  N   UNL     1       1.950   6.220  21.075  0.00  0.00    +0.000 N 
ATOM      7  C   UNL     1       2.842   5.592  20.136  0.00  0.00    +0.000 C 
ATOM      8  H   UNL     1       1.667   5.674  21.874  0.00  0.00    +0.000 HD
ENDROOT
BRANCH   1  12
ATOM      9  C   UNL     1       6.197   4.736  16.514  0.00  0.00    +0.000 A 
ATOM     10  C   UNL     1       5.101   5.400  15.974  0.00  0.00    +0.000 A 
ATOM     11  C   UNL     1       4.147   6.005  16.806  0.00  0.00    +0.000 A 
ATOM     12  C   UNL     1       4.265   5.982  18.207  0.00  0.00    +0.000 A 
ATOM     13  C   UNL     1       5.429   5.380  18.717  0.00  0.00    +0.000 A 
ATOM     14  C   UNL     1       6.356   4.724  17.893  0.00  0.00    +0.000 A 
BRANCH   9  16
ATOM     15  C   UNL     1       6.518   4.038  14.277  0.00  0.00    +0.000 C 
ATOM     16  O   UNL     1       7.018   4.129  15.607  0.00  0.00    +0.000 OA
ENDBRANCH   9  16
ENDBRANCH   1  12
BRANCH   7  17
ATOM     17  C   UNL     1       2.184   4.322  19.678  0.00  0.00    +0.000 A 
ATOM     18  C   UNL     1       1.370   3.995  18.613  0.00  0.00    +0.000 A 
ATOM     19  C   UNL     1       1.120   2.609  18.715  0.00  0.00    +0.000 A 
ATOM     20  C   UNL     1       1.780   2.180  19.836  0.00  0.00    +0.000 A 
ATOM     21  O   UNL     1       2.423   3.210  20.440  0.00  0.00    +0.000 OA
ENDBRANCH   7  17
BRANCH   2  22
ATOM     22  S   UNL     1       2.981   8.937  17.569  0.00  0.00    +0.000 S 
ATOM     23  H   UNL     1       1.926   8.798  16.760  0.00  0.00    +0.000 HD
ENDBRANCH   2  22
BRANCH   3  24
ATOM     24  C   UNL     1       0.841   9.465  19.456  0.00  0.00    +0.000 C 
ATOM     25  N   UNL     1       0.247  10.560  19.264  0.00  0.00    +0.000 NA
ENDBRANCH   3  24
TORSDOF 5
ENDMDL
MODEL 7
REMARK VINA RESULT:      -6.0      3.546      5.808
REMARK  Name = 
REMARK  6 active torsions:
REMARK  status: ('A' for Active; 'I' for Inactive)
REMARK    1  A    between atoms: C_1  and  O_2
REMARK    2  A    between atoms: O_2  and  C_3
REMARK    3  A    between atoms: C_6  and  N_7
REMARK    4  A    between atoms: C_8  and  S_9
REMARK    5  A    between atoms: C_10  and  C_11
REMARK    6  A    between atoms: C_16  and  C_17
REMARK                            x       y       z     vdW  Elec       q    Type
REMARK                         _______ _______ _______ _____ _____    ______ ____
ROOT
ATOM      1  N   UNL     1       5.392   5.067  17.947  0.00  0.00    +0.000 N 
ATOM      2  C   UNL     1       4.089   5.057  18.509  0.00  0.00    +0.000 C 
ATOM      3  C   UNL     1       3.304   3.947  18.459  0.00  0.00    +0.000 C 
ATOM      4  C   UNL     1       3.820   2.709  17.862  0.00  0.00    +0.000 C 
ATOM      5  O   UNL     1       3.154   1.688  17.794  0.00  0.00    +0.000 OA
ATOM      6  N   UNL     1       5.103   2.725  17.430  0.00  0.00    +0.000 N 
ATOM      7  C   UNL     1       5.912   3.894  17.210  0.00  0.00    +0.000 C 
ATOM      8  H   UNL     1       5.417   1.863  17.011  0.00  0.00    +0.000 HD
ENDROOT
BRANCH   1  12
ATOM      9  C   UNL     1       7.925   8.524  17.907  0.00  0.00    +0.000 A 
ATOM     10  C   UNL     1       8.297   7.379  18.602  0.00  0.00    +0.000 A 
ATOM     11  C   UNL     1       7.480   6.239  18.597  0.00  0.00    +0.000 A 
ATOM     12  C   UNL     1       6.269   6.199  17.883  0.00  0.00    +0.000 A 
ATOM     13  C   UNL     1       5.965   7.341  17.121  0.00  0.00    +0.000 A 
ATOM     14  C   UNL     1       6.750   8.503  17.168  0.00  0.00    +0.000 A 
BRANCH   9  16
ATOM     15  C   UNL     1       9.136   9.926  19.377  0.00  0.00    +0.000 C 
ATOM     16  O   UNL     1       8.766   9.591  18.043  0.00  0.00    +0.000 OA
ENDBRANCH   9  16
ENDBRANCH   1  12
BRANCH   7  17
ATOM     17  C   UNL     1       6.045   4.068  15.724  0.00  0.00    +0.000 A 
ATOM     18  C   UNL     1       5.188   3.889  14.658  0.00  0.00    +0.000 A 
ATOM     19  C   UNL     1       5.904   4.272  13.504  0.00  0.00    +0.000 A 
ATOM     20  C   UNL     1       7.152   4.647  13.930  0.00  0.00    +0.000 A 
ATOM     21  O   UNL     1       7.258   4.519  15.276  0.00  0.00    +0.000 OA
ENDBRANCH   7  17
BRANCH   2  22
ATOM     22  S   UNL     1       3.371   6.440  19.412  0.00  0.00    +0.000 S 
ATOM     23  H   UNL     1       3.924   7.468  18.760  0.00  0.00    +0.000 HD
ENDBRANCH   2  22
BRANCH   3  24
ATOM     24  C   UNL     1       1.914   3.955  19.074  0.00  0.00    +0.000 C 
ATOM     25  N   UNL     1       0.761   3.962  19.584  0.00  0.00    +0.000 NA
ENDBRANCH   3  24
TORSDOF 5
ENDMDL
MODEL 8
REMARK VINA RESULT:      -6.0      3.590      5.826
REMARK  Name = 
REMARK  6 active torsions:
REMARK  status: ('A' for Active; 'I' for Inactive)
REMARK    1  A    between atoms: C_1  and  O_2
REMARK    2  A    between atoms: O_2  and  C_3
REMARK    3  A    between atoms: C_6  and  N_7
REMARK    4  A    between atoms: C_8  and  S_9
REMARK    5  A    between atoms: C_10  and  C_11
REMARK    6  A    between atoms: C_16  and  C_17
REMARK                            x       y       z     vdW  Elec       q    Type
REMARK                         _______ _______ _______ _____ _____    ______ ____
ROOT
ATOM      1  N   UNL     1       5.145   4.869  18.113  0.00  0.00    +0.000 N 
ATOM      2  C   UNL     1       3.845   4.851  18.681  0.00  0.00    +0.000 C 
ATOM      3  C   UNL     1       3.040   3.760  18.575  0.00  0.00    +0.000 C 
ATOM      4  C   UNL     1       3.530   2.547  17.908  0.00  0.00    +0.000 C 
ATOM      5  O   UNL     1       2.845   1.543  17.789  0.00  0.00    +0.000 OA
ATOM      6  N   UNL     1       4.811   2.564  17.471  0.00  0.00    +0.000 N 
ATOM      7  C   UNL     1       5.640   3.728  17.310  0.00  0.00    +0.000 C 
ATOM      8  H   UNL     1       5.108   1.721  17.003  0.00  0.00    +0.000 HD
ENDROOT
BRANCH   1  12
ATOM      9  C   UNL     1       7.914   8.137  17.942  0.00  0.00    +0.000 A 
ATOM     10  C   UNL     1       6.693   8.204  17.279  0.00  0.00    +0.000 A 
ATOM     11  C   UNL     1       5.777   7.145  17.352  0.00  0.00    +0.000 A 
ATOM     12  C   UNL     1       6.042   5.987  18.106  0.00  0.00    +0.000 A 
ATOM     13  C   UNL     1       7.244   5.989  18.835  0.00  0.00    +0.000 A 
ATOM     14  C   UNL     1       8.189   7.020  18.719  0.00  0.00    +0.000 A 
BRANCH   9  16
ATOM     15  C   UNL     1       8.993  10.024  18.872  0.00  0.00    +0.000 C 
ATOM     16  O   UNL     1       8.750   9.197  17.739  0.00  0.00    +0.000 OA
ENDBRANCH   9  16
ENDBRANCH   1  12
BRANCH   7  17
ATOM     17  C   UNL     1       5.770   3.982  15.835  0.00  0.00    +0.000 A 
ATOM     18  C   UNL     1       4.872   4.022  14.788  0.00  0.00    +0.000 A 
ATOM     19  C   UNL     1       5.618   4.360  13.638  0.00  0.00    +0.000 A 
ATOM     20  C   UNL     1       6.919   4.493  14.048  0.00  0.00    +0.000 A 
ATOM     21  O   UNL     1       7.031   4.256  15.378  0.00  0.00    +0.000 OA
ENDBRANCH   7  17
BRANCH   2  22
ATOM     22  S   UNL     1       3.157   6.196  19.663  0.00  0.00    +0.000 S 
ATOM     23  H   UNL     1       3.840   6.038  20.801  0.00  0.00    +0.000 HD
ENDBRANCH   2  22
BRANCH   3  24
ATOM     24  C   UNL     1       1.653   3.759  19.198  0.00  0.00    +0.000 C 
ATOM     25  N   UNL     1       0.503   3.759  19.714  0.00  0.00    +0.000 NA
ENDBRANCH   3  24
TORSDOF 5
ENDMDL
MODEL 9
REMARK VINA RESULT:      -5.9      4.410      8.561
REMARK  Name = 
REMARK  6 active torsions:
REMARK  status: ('A' for Active; 'I' for Inactive)
REMARK    1  A    between atoms: C_1  and  O_2
REMARK    2  A    between atoms: O_2  and  C_3
REMARK    3  A    between atoms: C_6  and  N_7
REMARK    4  A    between atoms: C_8  and  S_9
REMARK    5  A    between atoms: C_10  and  C_11
REMARK    6  A    between atoms: C_16  and  C_17
REMARK                            x       y       z     vdW  Elec       q    Type
REMARK                         _______ _______ _______ _____ _____    ______ ____
ROOT
ATOM      1  N   UNL     1      -0.099  11.318  19.654  0.00  0.00    +0.000 N 
ATOM      2  C   UNL     1       0.443  12.619  19.811  0.00  0.00    +0.000 C 
ATOM      3  C   UNL     1      -0.356  13.699  20.029  0.00  0.00    +0.000 C 
ATOM      4  C   UNL     1      -1.807  13.524  20.159  0.00  0.00    +0.000 C 
ATOM      5  O   UNL     1      -2.564  14.461  20.355  0.00  0.00    +0.000 OA
ATOM      6  N   UNL     1      -2.279  12.256  20.108  0.00  0.00    +0.000 N 
ATOM      7  C   UNL     1      -1.563  11.100  19.637  0.00  0.00    +0.000 C 
ATOM      8  H   UNL     1      -3.281  12.176  20.184  0.00  0.00    +0.000 HD
ENDROOT
BRANCH   1  12
ATOM      9  C   UNL     1       2.282   7.855  18.808  0.00  0.00    +0.000 A 
ATOM     10  C   UNL     1       1.673   8.013  20.049  0.00  0.00    +0.000 A 
ATOM     11  C   UNL     1       0.875   9.135  20.319  0.00  0.00    +0.000 A 
ATOM     12  C   UNL     1       0.644  10.130  19.352  0.00  0.00    +0.000 A 
ATOM     13  C   UNL     1       1.201   9.896  18.083  0.00  0.00    +0.000 A 
ATOM     14  C   UNL     1       2.047   8.806  17.825  0.00  0.00    +0.000 A 
BRANCH   9  16
ATOM     15  C   UNL     1       2.950   5.769  19.700  0.00  0.00    +0.000 C 
ATOM     16  O   UNL     1       3.089   6.761  18.688  0.00  0.00    +0.000 OA
ENDBRANCH   9  16
ENDBRANCH   1  12
BRANCH   7  17
ATOM     17  C   UNL     1      -2.147  10.729  18.304  0.00  0.00    +0.000 A 
ATOM     18  C   UNL     1      -2.839   9.631  17.834  0.00  0.00    +0.000 A 
ATOM     19  C   UNL     1      -3.157   9.908  16.487  0.00  0.00    +0.000 A 
ATOM     20  C   UNL     1      -2.632  11.144  16.214  0.00  0.00    +0.000 A 
ATOM     21  O   UNL     1      -2.006  11.653  17.304  0.00  0.00    +0.000 OA
ENDBRANCH   7  17
BRANCH   2  22
ATOM     22  S   UNL     1       2.208  12.978  19.835  0.00  0.00    +0.000 S 
ATOM     23  H   UNL     1       2.703  11.780  19.509  0.00  0.00    +0.000 HD
ENDBRANCH   2  22
BRANCH   3  24
ATOM     24  C   UNL     1       0.247  15.084  20.202  0.00  0.00    +0.000 C 
ATOM     25  N   UNL     1       0.747  16.232  20.346  0.00  0.00    +0.000 NA
ENDBRANCH   3  24
TORSDOF 5
ENDMDL
