MODEL 1
REMARK VINA RESULT:      -8.0      0.000      0.000
REMARK  Name = 
REMARK  1 active torsions:
REMARK  status: ('A' for Active; 'I' for Inactive)
REMARK    1  A    between atoms: C_4  and  C_5
REMARK                            x       y       z     vdW  Elec       q    Type
REMARK                         _______ _______ _______ _____ _____    ______ ____
ROOT
ATOM      1  O   UNL     1       6.170   4.845  19.663  0.00  0.00    +0.000 OA
ATOM      2  C   UNL     1       5.587   4.441  18.667  0.00  0.00    +0.000 A 
ATOM      3  C   UNL     1       6.179   4.586  17.328  0.00  0.00    +0.000 A 
ATOM      4  C   UNL     1       5.502   4.122  16.269  0.00  0.00    +0.000 A 
ATOM      5  O   UNL     1       4.267   3.503  16.322  0.00  0.00    +0.000 OA
ATOM      6  C   UNL     1       3.677   3.349  17.551  0.00  0.00    +0.000 A 
ATOM      7  C   UNL     1       2.431   2.726  17.589  0.00  0.00    +0.000 A 
ATOM      8  C   UNL     1       1.781   2.543  18.813  0.00  0.00    +0.000 A 
ATOM      9  C   UNL     1       2.382   2.987  19.993  0.00  0.00    +0.000 A 
ATOM     10 BR   UNL     1       1.496   2.739  21.644  0.00  0.00    +0.000 Br
ATOM     11  C   UNL     1       3.628   3.610  19.965  0.00  0.00    +0.000 A 
ATOM     12  C   UNL     1       4.270   3.788  18.736  0.00  0.00    +0.000 A 
ENDROOT
BRANCH   4  13
ATOM     13  C   UNL     1       6.062   4.245  14.921  0.00  0.00    +0.000 A 
ATOM     14  C   UNL     1       7.175   5.069  14.694  0.00  0.00    +0.000 A 
ATOM     15  C   UNL     1       7.692   5.207  13.405  0.00  0.00    +0.000 A 
ATOM     16  C   UNL     1       7.098   4.525  12.349  0.00  0.00    +0.000 A 
ATOM     17  F   UNL     1       7.593   4.664  11.112  0.00  0.00    +0.000 F 
ATOM     18  C   UNL     1       5.997   3.702  12.558  0.00  0.00    +0.000 A 
ATOM     19  C   UNL     1       5.477   3.560  13.846  0.00  0.00    +0.000 A 
ENDBRANCH   4  13
TORSDOF 1
ENDMDL
MODEL 2
REMARK VINA RESULT:      -8.0      0.055      1.113
REMARK  Name = 
REMARK  1 active torsions:
REMARK  status: ('A' for Active; 'I' for Inactive)
REMARK    1  A    between atoms: C_4  and  C_5
REMARK                            x       y       z     vdW  Elec       q    Type
REMARK                         _______ _______ _______ _____ _____    ______ ____
ROOT
ATOM      1  O   UNL     1       6.250   4.774  19.649  0.00  0.00    +0.000 OA
ATOM      2  C   UNL     1       5.642   4.408  18.653  0.00  0.00    +0.000 A 
ATOM      3  C   UNL     1       6.218   4.569  17.309  0.00  0.00    +0.000 A 
ATOM      4  C   UNL     1       5.514   4.146  16.250  0.00  0.00    +0.000 A 
ATOM      5  O   UNL     1       4.265   3.557  16.308  0.00  0.00    +0.000 OA
ATOM      6  C   UNL     1       3.690   3.390  17.543  0.00  0.00    +0.000 A 
ATOM      7  C   UNL     1       2.429   2.797  17.585  0.00  0.00    +0.000 A 
ATOM      8  C   UNL     1       1.793   2.602  18.815  0.00  0.00    +0.000 A 
ATOM      9  C   UNL     1       2.422   3.004  19.995  0.00  0.00    +0.000 A 
ATOM     10 BR   UNL     1       1.555   2.740  21.653  0.00  0.00    +0.000 Br
ATOM     11  C   UNL     1       3.683   3.596  19.962  0.00  0.00    +0.000 A 
ATOM     12  C   UNL     1       4.311   3.786  18.727  0.00  0.00    +0.000 A 
ENDROOT
BRANCH   4  13
ATOM     13  C   UNL     1       6.057   4.287  14.897  0.00  0.00    +0.000 A 
ATOM     14  C   UNL     1       5.465   3.599  13.826  0.00  0.00    +0.000 A 
ATOM     15  C   UNL     1       5.998   3.711  12.541  0.00  0.00    +0.000 A 
ATOM     16  C   UNL     1       7.117   4.507  12.329  0.00  0.00    +0.000 A 
ATOM     17  F   UNL     1       7.631   4.610  11.096  0.00  0.00    +0.000 F 
ATOM     18  C   UNL     1       7.713   5.199  13.378  0.00  0.00    +0.000 A 
ATOM     19  C   UNL     1       7.183   5.089  14.665  0.00  0.00    +0.000 A 
ENDBRANCH   4  13
TORSDOF 1
ENDMDL
MODEL 3
REMARK VINA RESULT:      -7.5      4.239      6.918
REMARK  Name = 
REMARK  1 active torsions:
REMARK  status: ('A' for Active; 'I' for Inactive)
REMARK    1  A    between atoms: C_4  and  C_5
REMARK                            x       y       z     vdW  Elec       q    Type
REMARK                         _______ _______ _______ _____ _____    ______ ____
ROOT
ATOM      1  O   UNL     1       7.606   6.165  18.363  0.00  0.00    +0.000 OA
ATOM      2  C   UNL     1       6.641   5.477  18.060  0.00  0.00    +0.000 A 
ATOM      3  C   UNL     1       5.663   5.052  19.073  0.00  0.00    +0.000 A 
ATOM      4  C   UNL     1       4.620   4.303  18.688  0.00  0.00    +0.000 A 
ATOM      5  O   UNL     1       4.374   3.883  17.394  0.00  0.00    +0.000 OA
ATOM      6  C   UNL     1       5.265   4.255  16.418  0.00  0.00    +0.000 A 
ATOM      7  C   UNL     1       5.006   3.823  15.119  0.00  0.00    +0.000 A 
ATOM      8  C   UNL     1       5.878   4.169  14.083  0.00  0.00    +0.000 A 
ATOM      9  C   UNL     1       7.007   4.946  14.355  0.00  0.00    +0.000 A 
ATOM     10 BR   UNL     1       8.183   5.409  12.950  0.00  0.00    +0.000 Br
ATOM     11  C   UNL     1       7.272   5.384  15.650  0.00  0.00    +0.000 A 
ATOM     12  C   UNL     1       6.394   5.033  16.679  0.00  0.00    +0.000 A 
ENDROOT
BRANCH   4  13
ATOM     13  C   UNL     1       3.623   3.864  19.668  0.00  0.00    +0.000 A 
ATOM     14  C   UNL     1       3.841   2.701  20.422  0.00  0.00    +0.000 A 
ATOM     15  C   UNL     1       2.880   2.268  21.336  0.00  0.00    +0.000 A 
ATOM     16  C   UNL     1       1.706   2.995  21.494  0.00  0.00    +0.000 A 
ATOM     17  F   UNL     1       0.782   2.575  22.368  0.00  0.00    +0.000 F 
ATOM     18  C   UNL     1       1.476   4.152  20.758  0.00  0.00    +0.000 A 
ATOM     19  C   UNL     1       2.436   4.589  19.843  0.00  0.00    +0.000 A 
ENDBRANCH   4  13
TORSDOF 1
ENDMDL
MODEL 4
REMARK VINA RESULT:      -7.5      4.206      6.919
REMARK  Name = 
REMARK  1 active torsions:
REMARK  status: ('A' for Active; 'I' for Inactive)
REMARK    1  A    between atoms: C_4  and  C_5
REMARK                            x       y       z     vdW  Elec       q    Type
REMARK                         _______ _______ _______ _____ _____    ______ ____
ROOT
ATOM      1  O   UNL     1       7.572   5.874  18.389  0.00  0.00    +0.000 OA
ATOM      2  C   UNL     1       6.579   5.241  18.056  0.00  0.00    +0.000 A 
ATOM      3  C   UNL     1       5.585   4.810  19.051  0.00  0.00    +0.000 A 
ATOM      4  C   UNL     1       4.512   4.123  18.634  0.00  0.00    +0.000 A 
ATOM      5  O   UNL     1       4.249   3.775  17.323  0.00  0.00    +0.000 OA
ATOM      6  C   UNL     1       5.152   4.157  16.363  0.00  0.00    +0.000 A 
ATOM      7  C   UNL     1       4.875   3.797  15.045  0.00  0.00    +0.000 A 
ATOM      8  C   UNL     1       5.760   4.157  14.024  0.00  0.00    +0.000 A 
ATOM      9  C   UNL     1       6.919   4.873  14.329  0.00  0.00    +0.000 A 
ATOM     10 BR   UNL     1       8.113   5.353  12.944  0.00  0.00    +0.000 Br
ATOM     11  C   UNL     1       7.204   5.238  15.643  0.00  0.00    +0.000 A 
ATOM     12  C   UNL     1       6.312   4.874  16.657  0.00  0.00    +0.000 A 
ENDROOT
BRANCH   4  13
ATOM     13  C   UNL     1       3.499   3.679  19.595  0.00  0.00    +0.000 A 
ATOM     14  C   UNL     1       2.225   4.268  19.597  0.00  0.00    +0.000 A 
ATOM     15  C   UNL     1       1.268   3.864  20.529  0.00  0.00    +0.000 A 
ATOM     16  C   UNL     1       1.585   2.877  21.455  0.00  0.00    +0.000 A 
ATOM     17  F   UNL     1       0.667   2.495  22.352  0.00  0.00    +0.000 F 
ATOM     18  C   UNL     1       2.841   2.281  21.464  0.00  0.00    +0.000 A 
ATOM     19  C   UNL     1       3.801   2.681  20.532  0.00  0.00    +0.000 A 
ENDBRANCH   4  13
TORSDOF 1
ENDMDL
MODEL 5
REMARK VINA RESULT:      -7.4      1.120      1.125
REMARK  Name = 
REMARK  1 active torsions:
REMARK  status: ('A' for Active; 'I' for Inactive)
REMARK    1  A    between atoms: C_4  and  C_5
REMARK                            x       y       z     vdW  Elec       q    Type
REMARK                         _______ _______ _______ _____ _____    ______ ____
ROOT
ATOM      1  O   UNL     1       3.905   6.634  18.469  0.00  0.00    +0.000 OA
ATOM      2  C   UNL     1       4.092   5.590  17.859  0.00  0.00    +0.000 A 
ATOM      3  C   UNL     1       4.828   5.575  16.586  0.00  0.00    +0.000 A 
ATOM      4  C   UNL     1       5.011   4.404  15.960  0.00  0.00    +0.000 A 
ATOM      5  O   UNL     1       4.560   3.179  16.415  0.00  0.00    +0.000 OA
ATOM      6  C   UNL     1       3.866   3.149  17.598  0.00  0.00    +0.000 A 
ATOM      7  C   UNL     1       3.416   1.907  18.043  0.00  0.00    +0.000 A 
ATOM      8  C   UNL     1       2.701   1.813  19.241  0.00  0.00    +0.000 A 
ATOM      9  C   UNL     1       2.442   2.965  19.987  0.00  0.00    +0.000 A 
ATOM     10 BR   UNL     1       1.473   2.832  21.605  0.00  0.00    +0.000 Br
ATOM     11  C   UNL     1       2.890   4.210  19.551  0.00  0.00    +0.000 A 
ATOM     12  C   UNL     1       3.603   4.293  18.352  0.00  0.00    +0.000 A 
ENDROOT
BRANCH   4  13
ATOM     13  C   UNL     1       5.742   4.349  14.692  0.00  0.00    +0.000 A 
ATOM     14  C   UNL     1       6.952   5.046  14.546  0.00  0.00    +0.000 A 
ATOM     15  C   UNL     1       7.635   5.016  13.329  0.00  0.00    +0.000 A 
ATOM     16  C   UNL     1       7.111   4.292  12.265  0.00  0.00    +0.000 A 
ATOM     17  F   UNL     1       7.765   4.268  11.096  0.00  0.00    +0.000 F 
ATOM     18  C   UNL     1       5.916   3.593  12.394  0.00  0.00    +0.000 A 
ATOM     19  C   UNL     1       5.229   3.620  13.610  0.00  0.00    +0.000 A 
ENDBRANCH   4  13
TORSDOF 1
ENDMDL
MODEL 6
REMARK VINA RESULT:      -7.4      1.162      1.621
REMARK  Name = 
REMARK  1 active torsions:
REMARK  status: ('A' for Active; 'I' for Inactive)
REMARK    1  A    between atoms: C_4  and  C_5
REMARK                            x       y       z     vdW  Elec       q    Type
REMARK                         _______ _______ _______ _____ _____    ______ ____
ROOT
ATOM      1  O   UNL     1       3.873   6.735  18.351  0.00  0.00    +0.000 OA
ATOM      2  C   UNL     1       4.071   5.678  17.768  0.00  0.00    +0.000 A 
ATOM      3  C   UNL     1       4.798   5.640  16.490  0.00  0.00    +0.000 A 
ATOM      4  C   UNL     1       4.994   4.456  15.894  0.00  0.00    +0.000 A 
ATOM      5  O   UNL     1       4.563   3.237  16.383  0.00  0.00    +0.000 OA
ATOM      6  C   UNL     1       3.878   3.228  17.572  0.00  0.00    +0.000 A 
ATOM      7  C   UNL     1       3.448   1.992  18.052  0.00  0.00    +0.000 A 
ATOM      8  C   UNL     1       2.743   1.920  19.258  0.00  0.00    +0.000 A 
ATOM      9  C   UNL     1       2.472   3.087  19.975  0.00  0.00    +0.000 A 
ATOM     10 BR   UNL     1       1.517   2.982  21.603  0.00  0.00    +0.000 Br
ATOM     11  C   UNL     1       2.900   4.326  19.504  0.00  0.00    +0.000 A 
ATOM     12  C   UNL     1       3.603   4.388  18.298  0.00  0.00    +0.000 A 
ENDROOT
BRANCH   4  13
ATOM     13  C   UNL     1       5.717   4.378  14.623  0.00  0.00    +0.000 A 
ATOM     14  C   UNL     1       5.200   3.617  13.564  0.00  0.00    +0.000 A 
ATOM     15  C   UNL     1       5.902   3.521  12.361  0.00  0.00    +0.000 A 
ATOM     16  C   UNL     1       7.116   4.183  12.220  0.00  0.00    +0.000 A 
ATOM     17  F   UNL     1       7.791   4.086  11.067  0.00  0.00    +0.000 F 
ATOM     18  C   UNL     1       7.641   4.945  13.258  0.00  0.00    +0.000 A 
ATOM     19  C   UNL     1       6.941   5.044  14.463  0.00  0.00    +0.000 A 
ENDBRANCH   4  13
TORSDOF 1
ENDMDL
MODEL 7
REMARK VINA RESULT:      -7.4      3.716      4.247
REMARK  Name = 
REMARK  1 active torsions:
REMARK  status: ('A' for Active; 'I' for Inactive)
REMARK    1  A    between atoms: C_4  and  C_5
REMARK                            x       y       z     vdW  Elec       q    Type
REMARK                         _______ _______ _______ _____ _____    ______ ____
ROOT
ATOM      1  O   UNL     1       2.402   4.684  21.186  0.00  0.00    +0.000 OA
ATOM      2  C   UNL     1       2.636   5.386  20.213  0.00  0.00    +0.000 A 
ATOM      3  C   UNL     1       3.483   4.901  19.112  0.00  0.00    +0.000 A 
ATOM      4  C   UNL     1       3.704   5.707  18.065  0.00  0.00    +0.000 A 
ATOM      5  O   UNL     1       3.197   6.985  17.921  0.00  0.00    +0.000 OA
ATOM      6  C   UNL     1       2.403   7.477  18.927  0.00  0.00    +0.000 A 
ATOM      7  C   UNL     1       1.900   8.768  18.770  0.00  0.00    +0.000 A 
ATOM      8  C   UNL     1       1.087   9.323  19.762  0.00  0.00    +0.000 A 
ATOM      9  C   UNL     1       0.783   8.584  20.907  0.00  0.00    +0.000 A 
ATOM     10 BR   UNL     1      -0.314   9.343  22.246  0.00  0.00    +0.000 Br
ATOM     11  C   UNL     1       1.281   7.293  21.072  0.00  0.00    +0.000 A 
ATOM     12  C   UNL     1       2.093   6.746  20.074  0.00  0.00    +0.000 A 
ENDROOT
BRANCH   4  13
ATOM     13  C   UNL     1       4.539   5.257  16.949  0.00  0.00    +0.000 A 
ATOM     14  C   UNL     1       5.069   6.191  16.044  0.00  0.00    +0.000 A 
ATOM     15  C   UNL     1       5.842   5.761  14.965  0.00  0.00    +0.000 A 
ATOM     16  C   UNL     1       6.085   4.403  14.792  0.00  0.00    +0.000 A 
ATOM     17  F   UNL     1       6.823   3.991  13.753  0.00  0.00    +0.000 F 
ATOM     18  C   UNL     1       5.572   3.465  15.681  0.00  0.00    +0.000 A 
ATOM     19  C   UNL     1       4.797   3.892  16.762  0.00  0.00    +0.000 A 
ENDBRANCH   4  13
TORSDOF 1
ENDMDL
MODEL 8
REMARK VINA RESULT:      -7.3      3.817      4.432
REMARK  Name = 
REMARK  1 active torsions:
REMARK  status: ('A' for Active; 'I' for Inactive)
REMARK    1  A    between atoms: C_4  and  C_5
REMARK                            x       y       z     vdW  Elec       q    Type
REMARK                         _______ _______ _______ _____ _____    ______ ____
ROOT
ATOM      1  O   UNL     1       2.347   4.848  21.231  0.00  0.00    +0.000 OA
ATOM      2  C   UNL     1       2.580   5.522  20.237  0.00  0.00    +0.000 A 
ATOM      3  C   UNL     1       3.412   4.998  19.143  0.00  0.00    +0.000 A 
ATOM      4  C   UNL     1       3.633   5.774  18.073  0.00  0.00    +0.000 A 
ATOM      5  O   UNL     1       3.139   7.053  17.900  0.00  0.00    +0.000 OA
ATOM      6  C   UNL     1       2.360   7.581  18.899  0.00  0.00    +0.000 A 
ATOM      7  C   UNL     1       1.870   8.873  18.713  0.00  0.00    +0.000 A 
ATOM      8  C   UNL     1       1.073   9.464  19.697  0.00  0.00    +0.000 A 
ATOM      9  C   UNL     1       0.771   8.758  20.864  0.00  0.00    +0.000 A 
ATOM     10 BR   UNL     1      -0.306   9.565  22.191  0.00  0.00    +0.000 Br
ATOM     11  C   UNL     1       1.255   7.467  21.058  0.00  0.00    +0.000 A 
ATOM     12  C   UNL     1       2.051   6.884  20.068  0.00  0.00    +0.000 A 
ENDROOT
BRANCH   4  13
ATOM     13  C   UNL     1       4.453   5.286  16.962  0.00  0.00    +0.000 A 
ATOM     14  C   UNL     1       4.695   3.911  16.817  0.00  0.00    +0.000 A 
ATOM     15  C   UNL     1       5.499   3.447  15.774  0.00  0.00    +0.000 A 
ATOM     16  C   UNL     1       6.057   4.355  14.881  0.00  0.00    +0.000 A 
ATOM     17  F   UNL     1       6.832   3.908  13.884  0.00  0.00    +0.000 F 
ATOM     18  C   UNL     1       5.824   5.720  15.008  0.00  0.00    +0.000 A 
ATOM     19  C   UNL     1       5.020   6.188  16.050  0.00  0.00    +0.000 A 
ENDBRANCH   4  13
TORSDOF 1
ENDMDL
MODEL 9
REMARK VINA RESULT:      -7.3      5.463      6.821
REMARK  Name = 
REMARK  1 active torsions:
REMARK  status: ('A' for Active; 'I' for Inactive)
REMARK    1  A    between atoms: C_4  and  C_5
REMARK                            x       y       z     vdW  Elec       q    Type
REMARK                         _______ _______ _______ _____ _____    ______ ____
ROOT
ATOM      1  O   UNL     1       2.054   9.665  17.314  0.00  0.00    +0.000 OA
ATOM      2  C   UNL     1       1.979   8.818  18.193  0.00  0.00    +0.000 A 
ATOM      3  C   UNL     1       2.414   7.433  17.953  0.00  0.00    +0.000 A 
ATOM      4  C   UNL     1       2.316   6.544  18.951  0.00  0.00    +0.000 A 
ATOM      5  O   UNL     1       1.832   6.817  20.217  0.00  0.00    +0.000 OA
ATOM      6  C   UNL     1       1.413   8.097  20.482  0.00  0.00    +0.000 A 
ATOM      7  C   UNL     1       0.926   8.357  21.762  0.00  0.00    +0.000 A 
ATOM      8  C   UNL     1       0.484   9.642  22.090  0.00  0.00    +0.000 A 
ATOM      9  C   UNL     1       0.531  10.659  21.134  0.00  0.00    +0.000 A 
ATOM     10 BR   UNL     1      -0.071  12.393  21.584  0.00  0.00    +0.000 Br
ATOM     11  C   UNL     1       1.018  10.409  19.853  0.00  0.00    +0.000 A 
ATOM     12  C   UNL     1       1.458   9.120  19.535  0.00  0.00    +0.000 A 
ENDROOT
BRANCH   4  13
ATOM     13  C   UNL     1       2.742   5.157  18.751  0.00  0.00    +0.000 A 
ATOM     14  C   UNL     1       2.089   4.349  17.806  0.00  0.00    +0.000 A 
ATOM     15  C   UNL     1       2.477   3.020  17.634  0.00  0.00    +0.000 A 
ATOM     16  C   UNL     1       3.513   2.501  18.403  0.00  0.00    +0.000 A 
ATOM     17  F   UNL     1       3.880   1.224  18.240  0.00  0.00    +0.000 F 
ATOM     18  C   UNL     1       4.173   3.289  19.340  0.00  0.00    +0.000 A 
ATOM     19  C   UNL     1       3.787   4.620  19.515  0.00  0.00    +0.000 A 
ENDBRANCH   4  13
TORSDOF 1
ENDMDL
