MODEL 1
REMARK VINA RESULT:      -6.6      0.000      0.000
REMARK  Name = 
REMARK  7 active torsions:
REMARK  status: ('A' for Active; 'I' for Inactive)
REMARK    1  A    between atoms: C_1  and  O_2
REMARK    2  A    between atoms: O_2  and  C_3
REMARK    3  A    between atoms: C_7  and  C_8
REMARK    4  A    between atoms: C_8  and  O_10
REMARK    5  A    between atoms: O_10  and  C_11
REMARK    6  A    between atoms: C_11  and  C_12
REMARK    7  A    between atoms: C_12  and  N_13
REMARK                            x       y       z     vdW  Elec       q    Type
REMARK                         _______ _______ _______ _____ _____    ______ ____
ROOT
ATOM      1  C   UNL     1       6.545   4.856  16.083  0.00  0.00    +0.000 C 
ATOM      2  O   UNL     1       7.460   4.726  16.868  0.00  0.00    +0.000 OA
ENDROOT
BRANCH   1   7
ATOM      3  C   UNL     1       6.083   3.526  12.541  0.00  0.00    +0.000 A 
ATOM      4  C   UNL     1       7.081   4.256  11.884  0.00  0.00    +0.000 A 
ATOM      5  C   UNL     1       7.883   5.156  12.580  0.00  0.00    +0.000 A 
ATOM      6  C   UNL     1       7.690   5.344  13.945  0.00  0.00    +0.000 A 
ATOM      7  C   UNL     1       6.675   4.646  14.612  0.00  0.00    +0.000 A 
ATOM      8  C   UNL     1       5.878   3.728  13.907  0.00  0.00    +0.000 A 
BRANCH   3  10
ATOM      9  C   UNL     1       4.144   3.052  11.242  0.00  0.00    +0.000 C 
ATOM     10  O   UNL     1       5.408   2.641  11.750  0.00  0.00    +0.000 OA
ENDBRANCH   3  10
ENDBRANCH   1   7
BRANCH   1  11
ATOM     11  O   UNL     1       5.240   5.051  16.402  0.00  0.00    +0.000 OA
BRANCH  11  12
ATOM     12  C   UNL     1       4.995   5.036  17.824  0.00  0.00    +0.000 C 
BRANCH  12  13
ATOM     13  C   UNL     1       3.749   5.908  18.109  0.00  0.00    +0.000 C 
BRANCH  13  14
ATOM     14  N   UNL     1       2.587   5.220  18.696  0.00  0.00    +0.000 NA
ATOM     15  C   UNL     1       2.353   3.948  17.986  0.00  0.00    +0.000 C 
ATOM     16  C   UNL     1       1.082   3.253  18.481  0.00  0.00    +0.000 C 
ATOM     17  C   UNL     1       1.119   3.031  19.988  0.00  0.00    +0.000 C 
ATOM     18  C   UNL     1       1.437   4.336  20.704  0.00  0.00    +0.000 C 
ATOM     19  C   UNL     1       2.706   4.988  20.145  0.00  0.00    +0.000 C 
ENDBRANCH  13  14
ENDBRANCH  12  13
ENDBRANCH  11  12
ENDBRANCH   1  11
TORSDOF 6
ENDMDL
MODEL 2
REMARK VINA RESULT:      -6.6      0.837      1.062
REMARK  Name = 
REMARK  7 active torsions:
REMARK  status: ('A' for Active; 'I' for Inactive)
REMARK    1  A    between atoms: C_1  and  O_2
REMARK    2  A    between atoms: O_2  and  C_3
REMARK    3  A    between atoms: C_7  and  C_8
REMARK    4  A    between atoms: C_8  and  O_10
REMARK    5  A    between atoms: O_10  and  C_11
REMARK    6  A    between atoms: C_11  and  C_12
REMARK    7  A    between atoms: C_12  and  N_13
REMARK                            x       y       z     vdW  Elec       q    Type
REMARK                         _______ _______ _______ _____ _____    ______ ____
ROOT
ATOM      1  C   UNL     1       6.661   4.631  16.193  0.00  0.00    +0.000 C 
ATOM      2  O   UNL     1       7.518   5.165  16.864  0.00  0.00    +0.000 OA
ENDROOT
BRANCH   1   7
ATOM      3  C   UNL     1       6.064   3.494  12.604  0.00  0.00    +0.000 A 
ATOM      4  C   UNL     1       6.999   4.301  11.944  0.00  0.00    +0.000 A 
ATOM      5  C   UNL     1       7.803   5.191  12.652  0.00  0.00    +0.000 A 
ATOM      6  C   UNL     1       7.674   5.289  14.034  0.00  0.00    +0.000 A 
ATOM      7  C   UNL     1       6.721   4.513  14.707  0.00  0.00    +0.000 A 
ATOM      8  C   UNL     1       5.923   3.607  13.988  0.00  0.00    +0.000 A 
BRANCH   3  10
ATOM      9  C   UNL     1       4.165   3.095  11.225  0.00  0.00    +0.000 C 
ATOM     10  O   UNL     1       5.383   2.631  11.795  0.00  0.00    +0.000 OA
ENDBRANCH   3  10
ENDBRANCH   1   7
BRANCH   1  11
ATOM     11  O   UNL     1       5.602   3.923  16.664  0.00  0.00    +0.000 OA
BRANCH  11  12
ATOM     12  C   UNL     1       4.554   4.756  17.200  0.00  0.00    +0.000 C 
BRANCH  12  13
ATOM     13  C   UNL     1       3.253   3.922  17.255  0.00  0.00    +0.000 C 
BRANCH  13  14
ATOM     14  N   UNL     1       2.502   3.959  18.521  0.00  0.00    +0.000 NA
ATOM     15  C   UNL     1       2.520   2.624  19.149  0.00  0.00    +0.000 C 
ATOM     16  C   UNL     1       1.651   2.583  20.408  0.00  0.00    +0.000 C 
ATOM     17  C   UNL     1       2.066   3.656  21.407  0.00  0.00    +0.000 C 
ATOM     18  C   UNL     1       2.118   5.016  20.728  0.00  0.00    +0.000 C 
ATOM     19  C   UNL     1       2.985   4.980  19.465  0.00  0.00    +0.000 C 
ENDBRANCH  13  14
ENDBRANCH  12  13
ENDBRANCH  11  12
ENDBRANCH   1  11
TORSDOF 6
ENDMDL
MODEL 3
REMARK VINA RESULT:      -6.6      2.315      4.409
REMARK  Name = 
REMARK  7 active torsions:
REMARK  status: ('A' for Active; 'I' for Inactive)
REMARK    1  A    between atoms: C_1  and  O_2
REMARK    2  A    between atoms: O_2  and  C_3
REMARK    3  A    between atoms: C_7  and  C_8
REMARK    4  A    between atoms: C_8  and  O_10
REMARK    5  A    between atoms: O_10  and  C_11
REMARK    6  A    between atoms: C_11  and  C_12
REMARK    7  A    between atoms: C_12  and  N_13
REMARK                            x       y       z     vdW  Elec       q    Type
REMARK                         _______ _______ _______ _____ _____    ______ ____
ROOT
ATOM      1  C   UNL     1       6.215   4.347  15.659  0.00  0.00    +0.000 C 
ATOM      2  O   UNL     1       6.862   3.788  14.798  0.00  0.00    +0.000 OA
ENDROOT
BRANCH   1   7
ATOM      3  C   UNL     1       7.440   7.440  17.518  0.00  0.00    +0.000 A 
ATOM      4  C   UNL     1       8.037   6.827  18.626  0.00  0.00    +0.000 A 
ATOM      5  C   UNL     1       8.041   5.441  18.761  0.00  0.00    +0.000 A 
ATOM      6  C   UNL     1       7.437   4.650  17.788  0.00  0.00    +0.000 A 
ATOM      7  C   UNL     1       6.806   5.248  16.689  0.00  0.00    +0.000 A 
ATOM      8  C   UNL     1       6.818   6.647  16.552  0.00  0.00    +0.000 A 
BRANCH   3  10
ATOM      9  C   UNL     1       8.525   9.392  18.344  0.00  0.00    +0.000 C 
ATOM     10  O   UNL     1       7.556   8.800  17.486  0.00  0.00    +0.000 OA
ENDBRANCH   3  10
ENDBRANCH   1   7
BRANCH   1  11
ATOM     11  O   UNL     1       4.860   4.385  15.742  0.00  0.00    +0.000 OA
BRANCH  11  12
ATOM     12  C   UNL     1       4.353   3.866  16.990  0.00  0.00    +0.000 C 
BRANCH  12  13
ATOM     13  C   UNL     1       3.480   4.959  17.648  0.00  0.00    +0.000 C 
BRANCH  13  14
ATOM     14  N   UNL     1       2.362   4.491  18.485  0.00  0.00    +0.000 NA
ATOM     15  C   UNL     1       2.315   3.017  18.470  0.00  0.00    +0.000 C 
ATOM     16  C   UNL     1       1.097   2.486  19.228  0.00  0.00    +0.000 C 
ATOM     17  C   UNL     1       1.056   3.013  20.658  0.00  0.00    +0.000 C 
ATOM     18  C   UNL     1       1.183   4.529  20.663  0.00  0.00    +0.000 C 
ATOM     19  C   UNL     1       2.409   4.992  19.868  0.00  0.00    +0.000 C 
ENDBRANCH  13  14
ENDBRANCH  12  13
ENDBRANCH  11  12
ENDBRANCH   1  11
TORSDOF 6
ENDMDL
MODEL 4
REMARK VINA RESULT:      -6.5      0.883      1.411
REMARK  Name = 
REMARK  7 active torsions:
REMARK  status: ('A' for Active; 'I' for Inactive)
REMARK    1  A    between atoms: C_1  and  O_2
REMARK    2  A    between atoms: O_2  and  C_3
REMARK    3  A    between atoms: C_7  and  C_8
REMARK    4  A    between atoms: C_8  and  O_10
REMARK    5  A    between atoms: O_10  and  C_11
REMARK    6  A    between atoms: C_11  and  C_12
REMARK    7  A    between atoms: C_12  and  N_13
REMARK                            x       y       z     vdW  Elec       q    Type
REMARK                         _______ _______ _______ _____ _____    ______ ____
ROOT
ATOM      1  C   UNL     1       6.455   4.957  16.039  0.00  0.00    +0.000 C 
ATOM      2  O   UNL     1       7.136   4.437  16.898  0.00  0.00    +0.000 OA
ENDROOT
BRANCH   1   7
ATOM      3  C   UNL     1       6.000   3.488  12.553  0.00  0.00    +0.000 A 
ATOM      4  C   UNL     1       7.029   4.156  11.880  0.00  0.00    +0.000 A 
ATOM      5  C   UNL     1       7.850   5.062  12.547  0.00  0.00    +0.000 A 
ATOM      6  C   UNL     1       7.644   5.315  13.900  0.00  0.00    +0.000 A 
ATOM      7  C   UNL     1       6.598   4.679  14.581  0.00  0.00    +0.000 A 
ATOM      8  C   UNL     1       5.782   3.755  13.905  0.00  0.00    +0.000 A 
BRANCH   3  10
ATOM      9  C   UNL     1       6.036   1.485  11.264  0.00  0.00    +0.000 C 
ATOM     10  O   UNL     1       5.309   2.590  11.791  0.00  0.00    +0.000 OA
ENDBRANCH   3  10
ENDBRANCH   1   7
BRANCH   1  11
ATOM     11  O   UNL     1       5.364   5.739  16.249  0.00  0.00    +0.000 OA
BRANCH  11  12
ATOM     12  C   UNL     1       4.689   5.450  17.492  0.00  0.00    +0.000 C 
BRANCH  12  13
ATOM     13  C   UNL     1       3.782   4.217  17.274  0.00  0.00    +0.000 C 
BRANCH  13  14
ATOM     14  N   UNL     1       3.031   3.739  18.446  0.00  0.00    +0.000 NA
ATOM     15  C   UNL     1       3.104   4.742  19.526  0.00  0.00    +0.000 C 
ATOM     16  C   UNL     1       2.439   4.238  20.808  0.00  0.00    +0.000 C 
ATOM     17  C   UNL     1       0.996   3.817  20.560  0.00  0.00    +0.000 C 
ATOM     18  C   UNL     1       0.926   2.841  19.394  0.00  0.00    +0.000 C 
ATOM     19  C   UNL     1       1.629   3.399  18.152  0.00  0.00    +0.000 C 
ENDBRANCH  13  14
ENDBRANCH  12  13
ENDBRANCH  11  12
ENDBRANCH   1  11
TORSDOF 6
ENDMDL
MODEL 5
REMARK VINA RESULT:      -6.5      0.948      1.266
REMARK  Name = 
REMARK  7 active torsions:
REMARK  status: ('A' for Active; 'I' for Inactive)
REMARK    1  A    between atoms: C_1  and  O_2
REMARK    2  A    between atoms: O_2  and  C_3
REMARK    3  A    between atoms: C_7  and  C_8
REMARK    4  A    between atoms: C_8  and  O_10
REMARK    5  A    between atoms: O_10  and  C_11
REMARK    6  A    between atoms: C_11  and  C_12
REMARK    7  A    between atoms: C_12  and  N_13
REMARK                            x       y       z     vdW  Elec       q    Type
REMARK                         _______ _______ _______ _____ _____    ______ ____
ROOT
ATOM      1  C   UNL     1       6.339   4.874  16.055  0.00  0.00    +0.000 C 
ATOM      2  O   UNL     1       7.088   4.446  16.907  0.00  0.00    +0.000 OA
ENDROOT
BRANCH   1   7
ATOM      3  C   UNL     1       5.972   3.496  12.521  0.00  0.00    +0.000 A 
ATOM      4  C   UNL     1       7.013   4.186  11.890  0.00  0.00    +0.000 A 
ATOM      5  C   UNL     1       7.815   5.076  12.600  0.00  0.00    +0.000 A 
ATOM      6  C   UNL     1       7.576   5.292  13.954  0.00  0.00    +0.000 A 
ATOM      7  C   UNL     1       6.517   4.635  14.594  0.00  0.00    +0.000 A 
ATOM      8  C   UNL     1       5.721   3.727  13.874  0.00  0.00    +0.000 A 
BRANCH   3  10
ATOM      9  C   UNL     1       4.065   3.051  11.165  0.00  0.00    +0.000 C 
ATOM     10  O   UNL     1       5.302   2.617  11.719  0.00  0.00    +0.000 OA
ENDBRANCH   3  10
ENDBRANCH   1   7
BRANCH   1  11
ATOM     11  O   UNL     1       5.150   5.492  16.274  0.00  0.00    +0.000 OA
BRANCH  11  12
ATOM     12  C   UNL     1       5.167   6.367  17.422  0.00  0.00    +0.000 C 
BRANCH  12  13
ATOM     13  C   UNL     1       3.943   6.030  18.305  0.00  0.00    +0.000 C 
BRANCH  13  14
ATOM     14  N   UNL     1       3.419   4.658  18.205  0.00  0.00    +0.000 NA
ATOM     15  C   UNL     1       4.141   3.782  19.148  0.00  0.00    +0.000 C 
ATOM     16  C   UNL     1       3.714   2.320  18.996  0.00  0.00    +0.000 C 
ATOM     17  C   UNL     1       2.207   2.159  19.155  0.00  0.00    +0.000 C 
ATOM     18  C   UNL     1       1.475   3.123  18.233  0.00  0.00    +0.000 C 
ATOM     19  C   UNL     1       1.966   4.562  18.421  0.00  0.00    +0.000 C 
ENDBRANCH  13  14
ENDBRANCH  12  13
ENDBRANCH  11  12
ENDBRANCH   1  11
TORSDOF 6
ENDMDL
MODEL 6
REMARK VINA RESULT:      -6.4      3.558      6.232
REMARK  Name = 
REMARK  7 active torsions:
REMARK  status: ('A' for Active; 'I' for Inactive)
REMARK    1  A    between atoms: C_1  and  O_2
REMARK    2  A    between atoms: O_2  and  C_3
REMARK    3  A    between atoms: C_7  and  C_8
REMARK    4  A    between atoms: C_8  and  O_10
REMARK    5  A    between atoms: O_10  and  C_11
REMARK    6  A    between atoms: C_11  and  C_12
REMARK    7  A    between atoms: C_12  and  N_13
REMARK                            x       y       z     vdW  Elec       q    Type
REMARK                         _______ _______ _______ _____ _____    ______ ____
ROOT
ATOM      1  C   UNL     1       4.147   6.174  17.434  0.00  0.00    +0.000 C 
ATOM      2  O   UNL     1       5.235   6.582  17.087  0.00  0.00    +0.000 OA
ENDROOT
BRANCH   1   7
ATOM      3  C   UNL     1       1.799   8.959  18.555  0.00  0.00    +0.000 A 
ATOM      4  C   UNL     1       1.420   8.458  19.806  0.00  0.00    +0.000 A 
ATOM      5  C   UNL     1       1.919   7.244  20.271  0.00  0.00    +0.000 A 
ATOM      6  C   UNL     1       2.801   6.511  19.482  0.00  0.00    +0.000 A 
ATOM      7  C   UNL     1       3.165   6.982  18.214  0.00  0.00    +0.000 A 
ATOM      8  C   UNL     1       2.669   8.215  17.757  0.00  0.00    +0.000 A 
BRANCH   3  10
ATOM      9  C   UNL     1       0.792  10.974  19.328  0.00  0.00    +0.000 C 
ATOM     10  O   UNL     1       1.277  10.183  18.249  0.00  0.00    +0.000 OA
ENDBRANCH   3  10
ENDBRANCH   1   7
BRANCH   1  11
ATOM     11  O   UNL     1       3.573   5.004  17.052  0.00  0.00    +0.000 OA
BRANCH  11  12
ATOM     12  C   UNL     1       4.491   3.891  17.062  0.00  0.00    +0.000 C 
BRANCH  12  13
ATOM     13  C   UNL     1       3.846   2.740  17.868  0.00  0.00    +0.000 C 
BRANCH  13  14
ATOM     14  N   UNL     1       3.036   3.129  19.034  0.00  0.00    +0.000 NA
ATOM     15  C   UNL     1       1.631   2.731  18.818  0.00  0.00    +0.000 C 
ATOM     16  C   UNL     1       0.727   3.222  19.950  0.00  0.00    +0.000 C 
ATOM     17  C   UNL     1       1.222   2.738  21.308  0.00  0.00    +0.000 C 
ATOM     18  C   UNL     1       2.692   3.087  21.487  0.00  0.00    +0.000 C 
ATOM     19  C   UNL     1       3.535   2.587  20.309  0.00  0.00    +0.000 C 
ENDBRANCH  13  14
ENDBRANCH  12  13
ENDBRANCH  11  12
ENDBRANCH   1  11
TORSDOF 6
ENDMDL
MODEL 7
REMARK VINA RESULT:      -6.4      0.942      1.302
REMARK  Name = 
REMARK  7 active torsions:
REMARK  status: ('A' for Active; 'I' for Inactive)
REMARK    1  A    between atoms: C_1  and  O_2
REMARK    2  A    between atoms: O_2  and  C_3
REMARK    3  A    between atoms: C_7  and  C_8
REMARK    4  A    between atoms: C_8  and  O_10
REMARK    5  A    between atoms: O_10  and  C_11
REMARK    6  A    between atoms: C_11  and  C_12
REMARK    7  A    between atoms: C_12  and  N_13
REMARK                            x       y       z     vdW  Elec       q    Type
REMARK                         _______ _______ _______ _____ _____    ______ ____
ROOT
ATOM      1  C   UNL     1       6.413   5.415  15.857  0.00  0.00    +0.000 C 
ATOM      2  O   UNL     1       7.310   5.936  16.486  0.00  0.00    +0.000 OA
ENDROOT
BRANCH   1   7
ATOM      3  C   UNL     1       5.888   3.535  12.584  0.00  0.00    +0.000 A 
ATOM      4  C   UNL     1       6.974   4.029  11.852  0.00  0.00    +0.000 A 
ATOM      5  C   UNL     1       7.856   4.950  12.414  0.00  0.00    +0.000 A 
ATOM      6  C   UNL     1       7.654   5.394  13.717  0.00  0.00    +0.000 A 
ATOM      7  C   UNL     1       6.552   4.936  14.452  0.00  0.00    +0.000 A 
ATOM      8  C   UNL     1       5.675   3.996  13.884  0.00  0.00    +0.000 A 
BRANCH   3  10
ATOM      9  C   UNL     1       4.023   3.066  11.180  0.00  0.00    +0.000 C 
ATOM     10  O   UNL     1       5.138   2.599  11.931  0.00  0.00    +0.000 OA
ENDBRANCH   3  10
ENDBRANCH   1   7
BRANCH   1  11
ATOM     11  O   UNL     1       5.206   5.036  16.351  0.00  0.00    +0.000 OA
BRANCH  11  12
ATOM     12  C   UNL     1       5.310   4.155  17.489  0.00  0.00    +0.000 C 
BRANCH  12  13
ATOM     13  C   UNL     1       4.993   4.972  18.763  0.00  0.00    +0.000 C 
BRANCH  13  14
ATOM     14  N   UNL     1       3.848   4.515  19.569  0.00  0.00    +0.000 NA
ATOM     15  C   UNL     1       2.852   5.598  19.673  0.00  0.00    +0.000 C 
ATOM     16  C   UNL     1       1.698   5.212  20.601  0.00  0.00    +0.000 C 
ATOM     17  C   UNL     1       1.038   3.912  20.160  0.00  0.00    +0.000 C 
ATOM     18  C   UNL     1       2.086   2.823  19.980  0.00  0.00    +0.000 C 
ATOM     19  C   UNL     1       3.222   3.284  19.060  0.00  0.00    +0.000 C 
ENDBRANCH  13  14
ENDBRANCH  12  13
ENDBRANCH  11  12
ENDBRANCH   1  11
TORSDOF 6
ENDMDL
MODEL 8
REMARK VINA RESULT:      -6.3      1.234      1.706
REMARK  Name = 
REMARK  7 active torsions:
REMARK  status: ('A' for Active; 'I' for Inactive)
REMARK    1  A    between atoms: C_1  and  O_2
REMARK    2  A    between atoms: O_2  and  C_3
REMARK    3  A    between atoms: C_7  and  C_8
REMARK    4  A    between atoms: C_8  and  O_10
REMARK    5  A    between atoms: O_10  and  C_11
REMARK    6  A    between atoms: C_11  and  C_12
REMARK    7  A    between atoms: C_12  and  N_13
REMARK                            x       y       z     vdW  Elec       q    Type
REMARK                         _______ _______ _______ _____ _____    ______ ____
ROOT
ATOM      1  C   UNL     1       5.534   5.242  15.853  0.00  0.00    +0.000 C 
ATOM      2  O   UNL     1       4.971   6.297  16.055  0.00  0.00    +0.000 OA
ENDROOT
BRANCH   1   7
ATOM      3  C   UNL     1       5.885   3.434  12.517  0.00  0.00    +0.000 A 
ATOM      4  C   UNL     1       7.098   3.980  12.080  0.00  0.00    +0.000 A 
ATOM      5  C   UNL     1       7.783   4.912  12.856  0.00  0.00    +0.000 A 
ATOM      6  C   UNL     1       7.256   5.316  14.078  0.00  0.00    +0.000 A 
ATOM      7  C   UNL     1       6.027   4.804  14.515  0.00  0.00    +0.000 A 
ATOM      8  C   UNL     1       5.347   3.853  13.734  0.00  0.00    +0.000 A 
BRANCH   3  10
ATOM      9  C   UNL     1       6.204   1.438  11.258  0.00  0.00    +0.000 C 
ATOM     10  O   UNL     1       5.350   2.494  11.684  0.00  0.00    +0.000 OA
ENDBRANCH   3  10
ENDBRANCH   1   7
BRANCH   1  11
ATOM     11  O   UNL     1       5.953   4.365  16.802  0.00  0.00    +0.000 OA
BRANCH  11  12
ATOM     12  C   UNL     1       5.505   4.710  18.130  0.00  0.00    +0.000 C 
BRANCH  12  13
ATOM     13  C   UNL     1       4.898   3.444  18.779  0.00  0.00    +0.000 C 
BRANCH  13  14
ATOM     14  N   UNL     1       3.755   3.653  19.683  0.00  0.00    +0.000 NA
ATOM     15  C   UNL     1       3.142   4.967  19.412  0.00  0.00    +0.000 C 
ATOM     16  C   UNL     1       2.024   5.282  20.407  0.00  0.00    +0.000 C 
ATOM     17  C   UNL     1       0.965   4.186  20.423  0.00  0.00    +0.000 C 
ATOM     18  C   UNL     1       1.619   2.827  20.627  0.00  0.00    +0.000 C 
ATOM     19  C   UNL     1       2.743   2.587  19.613  0.00  0.00    +0.000 C 
ENDBRANCH  13  14
ENDBRANCH  12  13
ENDBRANCH  11  12
ENDBRANCH   1  11
TORSDOF 6
ENDMDL
MODEL 9
REMARK VINA RESULT:      -6.3      3.786      6.466
REMARK  Name = 
REMARK  7 active torsions:
REMARK  status: ('A' for Active; 'I' for Inactive)
REMARK    1  A    between atoms: C_1  and  O_2
REMARK    2  A    between atoms: O_2  and  C_3
REMARK    3  A    between atoms: C_7  and  C_8
REMARK    4  A    between atoms: C_8  and  O_10
REMARK    5  A    between atoms: O_10  and  C_11
REMARK    6  A    between atoms: C_11  and  C_12
REMARK    7  A    between atoms: C_12  and  N_13
REMARK                            x       y       z     vdW  Elec       q    Type
REMARK                         _______ _______ _______ _____ _____    ______ ____
ROOT
ATOM      1  C   UNL     1       4.035   5.903  18.204  0.00  0.00    +0.000 C 
ATOM      2  O   UNL     1       5.138   5.758  18.687  0.00  0.00    +0.000 OA
ENDROOT
BRANCH   1   7
ATOM      3  C   UNL     1       1.543   8.110  20.058  0.00  0.00    +0.000 A 
ATOM      4  C   UNL     1       1.319   9.086  19.080  0.00  0.00    +0.000 A 
ATOM      5  C   UNL     1       1.964   9.023  17.847  0.00  0.00    +0.000 A 
ATOM      6  C   UNL     1       2.850   7.983  17.582  0.00  0.00    +0.000 A 
ATOM      7  C   UNL     1       3.110   7.017  18.562  0.00  0.00    +0.000 A 
ATOM      8  C   UNL     1       2.445   7.078  19.799  0.00  0.00    +0.000 A 
BRANCH   3  10
ATOM      9  C   UNL     1       0.064   9.471  21.336  0.00  0.00    +0.000 C 
ATOM     10  O   UNL     1       0.805   8.265  21.197  0.00  0.00    +0.000 OA
ENDBRANCH   3  10
ENDBRANCH   1   7
BRANCH   1  11
ATOM     11  O   UNL     1       3.520   5.199  17.163  0.00  0.00    +0.000 OA
BRANCH  11  12
ATOM     12  C   UNL     1       3.938   3.818  17.150  0.00  0.00    +0.000 C 
BRANCH  12  13
ATOM     13  C   UNL     1       2.691   2.934  17.388  0.00  0.00    +0.000 C 
BRANCH  13  14
ATOM     14  N   UNL     1       2.323   2.682  18.791  0.00  0.00    +0.000 NA
ATOM     15  C   UNL     1       3.528   2.751  19.640  0.00  0.00    +0.000 C 
ATOM     16  C   UNL     1       3.216   2.377  21.091  0.00  0.00    +0.000 C 
ATOM     17  C   UNL     1       2.101   3.245  21.663  0.00  0.00    +0.000 C 
ATOM     18  C   UNL     1       0.893   3.226  20.739  0.00  0.00    +0.000 C 
ATOM     19  C   UNL     1       1.280   3.587  19.300  0.00  0.00    +0.000 C 
ENDBRANCH  13  14
ENDBRANCH  12  13
ENDBRANCH  11  12
ENDBRANCH   1  11
TORSDOF 6
ENDMDL
