MODEL 1
REMARK VINA RESULT:      -8.6      0.000      0.000
REMARK  Name = 
REMARK  5 active torsions:
REMARK  status: ('A' for Active; 'I' for Inactive)
REMARK    1  A    between atoms: C_1  and  O_2
REMARK    2  A    between atoms: O_2  and  C_3
REMARK    3  A    between atoms: C_4  and  C_5
REMARK    4  A    between atoms: C_11  and  O_12
REMARK    5  A    between atoms: C_13  and  C_14
REMARK                            x       y       z     vdW  Elec       q    Type
REMARK                         _______ _______ _______ _____ _____    ______ ____
ROOT
ATOM      1  C   UNL     1       2.014   5.928  20.134  0.00  0.00    +0.000 A 
ATOM      2  C   UNL     1       1.284   5.081  20.881  0.00  0.00    +0.000 A 
ATOM      3  C   UNL     1       1.513   3.616  20.759  0.00  0.00    +0.000 A 
ATOM      4  O   UNL     1       0.874   2.778  21.382  0.00  0.00    +0.000 OA
ATOM      5  N   UNL     1       2.512   3.260  19.834  0.00  0.00    +0.000 N 
ATOM      6  N   UNL     1       2.848   1.968  19.565  0.00  0.00    +0.000 NA
ATOM      7  C   UNL     1       3.796   2.109  18.649  0.00  0.00    +0.000 A 
ATOM      8  C   UNL     1       4.110   3.433  18.288  0.00  0.00    +0.000 A 
ATOM      9  C   UNL     1       3.242   4.163  19.081  0.00  0.00    +0.000 A 
ATOM     10  N   UNL     1       2.980   5.485  19.247  0.00  0.00    +0.000 N 
ATOM     11  H   UNL     1       3.512   6.183  18.720  0.00  0.00    +0.000 HD
ENDROOT
BRANCH   1  13
ATOM     12  C   UNL     1       1.788   8.210  19.029  0.00  0.00    +0.000 A 
ATOM     13  C   UNL     1       1.703   7.373  20.168  0.00  0.00    +0.000 A 
ATOM     14  C   UNL     1       1.365   7.917  21.424  0.00  0.00    +0.000 A 
ATOM     15  C   UNL     1       1.081   9.276  21.594  0.00  0.00    +0.000 A 
ATOM     16  C   UNL     1       1.110  10.060  20.445  0.00  0.00    +0.000 A 
ATOM     17  N   UNL     1       0.874  11.387  20.222  0.00  0.00    +0.000 N 
ATOM     18  N   UNL     1       1.010  11.712  18.929  0.00  0.00    +0.000 NA
ATOM     19  N   UNL     1       1.356  10.608  18.282  0.00  0.00    +0.000 NA
ATOM     20  C   UNL     1       1.437   9.573  19.184  0.00  0.00    +0.000 A 
ATOM     21  H   UNL     1       0.624  12.114  20.881  0.00  0.00    +0.000 HD
BRANCH  12  23
ATOM     22  C   UNL     1       3.522   7.954  17.435  0.00  0.00    +0.000 C 
ATOM     23  O   UNL     1       2.194   7.622  17.839  0.00  0.00    +0.000 OA
ENDBRANCH  12  23
ENDBRANCH   1  13
BRANCH   8  24
ATOM     24  C   UNL     1       5.067   3.974  17.335  0.00  0.00    +0.000 A 
ATOM     25  C   UNL     1       4.746   4.121  15.985  0.00  0.00    +0.000 A 
ATOM     26  C   UNL     1       5.694   4.650  15.112  0.00  0.00    +0.000 A 
ATOM     27  C   UNL     1       6.938   5.019  15.605  0.00  0.00    +0.000 A 
ATOM     28  C   UNL     1       7.183   4.839  16.956  0.00  0.00    +0.000 A 
ATOM     29  N   UNL     1       6.283   4.331  17.829  0.00  0.00    +0.000 NA
ENDBRANCH   8  24
BRANCH   7  30
ATOM     30  O   UNL     1       4.293   0.953  18.208  0.00  0.00    +0.000 OA
ATOM     31  H   UNL     1       4.138   0.971  17.248  0.00  0.00    +0.000 HD
ENDBRANCH   7  30
TORSDOF 4
ENDMDL
MODEL 2
REMARK VINA RESULT:      -8.5      1.533      1.722
REMARK  Name = 
REMARK  5 active torsions:
REMARK  status: ('A' for Active; 'I' for Inactive)
REMARK    1  A    between atoms: C_1  and  O_2
REMARK    2  A    between atoms: O_2  and  C_3
REMARK    3  A    between atoms: C_4  and  C_5
REMARK    4  A    between atoms: C_11  and  O_12
REMARK    5  A    between atoms: C_13  and  C_14
REMARK                            x       y       z     vdW  Elec       q    Type
REMARK                         _______ _______ _______ _____ _____    ______ ____
ROOT
ATOM      1  C   UNL     1       1.740   6.736  20.506  0.00  0.00    +0.000 A 
ATOM      2  C   UNL     1       0.886   5.735  20.783  0.00  0.00    +0.000 A 
ATOM      3  C   UNL     1       1.318   4.328  20.566  0.00  0.00    +0.000 A 
ATOM      4  O   UNL     1       0.594   3.360  20.767  0.00  0.00    +0.000 OA
ATOM      5  N   UNL     1       2.629   4.191  20.073  0.00  0.00    +0.000 N 
ATOM      6  N   UNL     1       3.194   2.985  19.789  0.00  0.00    +0.000 NA
ATOM      7  C   UNL     1       4.395   3.335  19.350  0.00  0.00    +0.000 A 
ATOM      8  C   UNL     1       4.663   4.717  19.324  0.00  0.00    +0.000 A 
ATOM      9  C   UNL     1       3.478   5.250  19.798  0.00  0.00    +0.000 A 
ATOM     10  N   UNL     1       3.017   6.507  20.023  0.00  0.00    +0.000 N 
ATOM     11  H   UNL     1       3.622   7.314  19.848  0.00  0.00    +0.000 HD
ENDROOT
BRANCH   1  13
ATOM     12  C   UNL     1       1.144   8.992  19.488  0.00  0.00    +0.000 A 
ATOM     13  C   UNL     1       1.269   8.134  20.607  0.00  0.00    +0.000 A 
ATOM     14  C   UNL     1       0.996   8.618  21.903  0.00  0.00    +0.000 A 
ATOM     15  C   UNL     1       0.575   9.930  22.135  0.00  0.00    +0.000 A 
ATOM     16  C   UNL     1       0.401  10.729  21.009  0.00  0.00    +0.000 A 
ATOM     17  N   UNL     1      -0.008  12.023  20.844  0.00  0.00    +0.000 N 
ATOM     18  N   UNL     1      -0.039  12.379  19.553  0.00  0.00    +0.000 NA
ATOM     19  N   UNL     1       0.367  11.333  18.847  0.00  0.00    +0.000 NA
ATOM     20  C   UNL     1       0.655  10.302  19.711  0.00  0.00    +0.000 A 
ATOM     21  H   UNL     1      -0.274  12.705  21.543  0.00  0.00    +0.000 HD
BRANCH  12  23
ATOM     22  C   UNL     1       2.678   9.037  17.682  0.00  0.00    +0.000 C 
ATOM     23  O   UNL     1       1.495   8.473  18.249  0.00  0.00    +0.000 OA
ENDBRANCH  12  23
ENDBRANCH   1  13
BRANCH   8  24
ATOM     24  C   UNL     1       5.840   5.465  18.908  0.00  0.00    +0.000 A 
ATOM     25  C   UNL     1       5.833   6.248  17.754  0.00  0.00    +0.000 A 
ATOM     26  C   UNL     1       6.983   6.953  17.402  0.00  0.00    +0.000 A 
ATOM     27  C   UNL     1       8.109   6.859  18.207  0.00  0.00    +0.000 A 
ATOM     28  C   UNL     1       8.038   6.058  19.335  0.00  0.00    +0.000 A 
ATOM     29  N   UNL     1       6.937   5.365  19.705  0.00  0.00    +0.000 NA
ENDBRANCH   8  24
BRANCH   7  30
ATOM     30  O   UNL     1       5.157   2.300  18.991  0.00  0.00    +0.000 OA
ATOM     31  H   UNL     1       4.570   1.738  18.456  0.00  0.00    +0.000 HD
ENDBRANCH   7  30
TORSDOF 4
ENDMDL
MODEL 3
REMARK VINA RESULT:      -8.2      1.071      1.927
REMARK  Name = 
REMARK  5 active torsions:
REMARK  status: ('A' for Active; 'I' for Inactive)
REMARK    1  A    between atoms: C_1  and  O_2
REMARK    2  A    between atoms: O_2  and  C_3
REMARK    3  A    between atoms: C_4  and  C_5
REMARK    4  A    between atoms: C_11  and  O_12
REMARK    5  A    between atoms: C_13  and  C_14
REMARK                            x       y       z     vdW  Elec       q    Type
REMARK                         _______ _______ _______ _____ _____    ______ ____
ROOT
ATOM      1  C   UNL     1       2.219   6.492  19.664  0.00  0.00    +0.000 A 
ATOM      2  C   UNL     1       1.510   5.808  20.579  0.00  0.00    +0.000 A 
ATOM      3  C   UNL     1       1.741   4.347  20.738  0.00  0.00    +0.000 A 
ATOM      4  O   UNL     1       1.121   3.646  21.527  0.00  0.00    +0.000 OA
ATOM      5  N   UNL     1       2.719   3.816  19.876  0.00  0.00    +0.000 N 
ATOM      6  N   UNL     1       3.053   2.496  19.854  0.00  0.00    +0.000 NA
ATOM      7  C   UNL     1       3.977   2.456  18.905  0.00  0.00    +0.000 A 
ATOM      8  C   UNL     1       4.278   3.684  18.287  0.00  0.00    +0.000 A 
ATOM      9  C   UNL     1       3.427   4.555  18.943  0.00  0.00    +0.000 A 
ATOM     10  N   UNL     1       3.165   5.884  18.856  0.00  0.00    +0.000 N 
ATOM     11  H   UNL     1       3.681   6.466  18.191  0.00  0.00    +0.000 HD
ENDROOT
BRANCH   1  13
ATOM     12  C   UNL     1       1.291   8.747  20.394  0.00  0.00    +0.000 A 
ATOM     13  C   UNL     1       1.903   7.917  19.424  0.00  0.00    +0.000 A 
ATOM     14  C   UNL     1       2.186   8.420  18.138  0.00  0.00    +0.000 A 
ATOM     15  C   UNL     1       1.904   9.741  17.777  0.00  0.00    +0.000 A 
ATOM     16  C   UNL     1       1.362  10.549  18.772  0.00  0.00    +0.000 A 
ATOM     17  N   UNL     1       0.985  11.862  18.797  0.00  0.00    +0.000 N 
ATOM     18  N   UNL     1       0.516  12.228  19.997  0.00  0.00    +0.000 NA
ATOM     19  N   UNL     1       0.558  11.157  20.778  0.00  0.00    +0.000 NA
ATOM     20  C   UNL     1       1.065  10.103  20.054  0.00  0.00    +0.000 A 
ATOM     21  H   UNL     1       1.016  12.552  18.056  0.00  0.00    +0.000 HD
BRANCH  12  23
ATOM     22  C   UNL     1      -0.339   8.459  22.090  0.00  0.00    +0.000 C 
ATOM     23  O   UNL     1       0.976   8.168  21.616  0.00  0.00    +0.000 OA
ENDBRANCH  12  23
ENDBRANCH   1  13
BRANCH   8  24
ATOM     24  C   UNL     1       5.210   4.028  17.223  0.00  0.00    +0.000 A 
ATOM     25  C   UNL     1       4.828   3.994  15.882  0.00  0.00    +0.000 A 
ATOM     26  C   UNL     1       5.754   4.340  14.900  0.00  0.00    +0.000 A 
ATOM     27  C   UNL     1       7.037   4.708  15.278  0.00  0.00    +0.000 A 
ATOM     28  C   UNL     1       7.342   4.714  16.629  0.00  0.00    +0.000 A 
ATOM     29  N   UNL     1       6.465   4.387  17.605  0.00  0.00    +0.000 NA
ENDBRANCH   8  24
BRANCH   7  30
ATOM     30  O   UNL     1       4.468   1.235  18.685  0.00  0.00    +0.000 OA
ATOM     31  H   UNL     1       3.891   0.644  19.199  0.00  0.00    +0.000 HD
ENDBRANCH   7  30
TORSDOF 4
ENDMDL
MODEL 4
REMARK VINA RESULT:      -7.7      2.389      6.797
REMARK  Name = 
REMARK  5 active torsions:
REMARK  status: ('A' for Active; 'I' for Inactive)
REMARK    1  A    between atoms: C_1  and  O_2
REMARK    2  A    between atoms: O_2  and  C_3
REMARK    3  A    between atoms: C_4  and  C_5
REMARK    4  A    between atoms: C_11  and  O_12
REMARK    5  A    between atoms: C_13  and  C_14
REMARK                            x       y       z     vdW  Elec       q    Type
REMARK                         _______ _______ _______ _____ _____    ______ ____
ROOT
ATOM      1  C   UNL     1       4.518   3.788  16.587  0.00  0.00    +0.000 A 
ATOM      2  C   UNL     1       4.483   2.520  17.033  0.00  0.00    +0.000 A 
ATOM      3  C   UNL     1       3.699   2.198  18.255  0.00  0.00    +0.000 A 
ATOM      4  O   UNL     1       3.637   1.076  18.742  0.00  0.00    +0.000 OA
ATOM      5  N   UNL     1       3.050   3.302  18.837  0.00  0.00    +0.000 N 
ATOM      6  N   UNL     1       2.305   3.213  19.973  0.00  0.00    +0.000 NA
ATOM      7  C   UNL     1       1.913   4.466  20.152  0.00  0.00    +0.000 A 
ATOM      8  C   UNL     1       2.361   5.394  19.192  0.00  0.00    +0.000 A 
ATOM      9  C   UNL     1       3.112   4.596  18.348  0.00  0.00    +0.000 A 
ATOM     10  N   UNL     1       3.845   4.815  17.226  0.00  0.00    +0.000 N 
ATOM     11  H   UNL     1       3.900   5.755  16.825  0.00  0.00    +0.000 HD
ENDROOT
BRANCH   1  13
ATOM     12  C   UNL     1       6.524   4.972  15.560  0.00  0.00    +0.000 A 
ATOM     13  C   UNL     1       5.394   4.128  15.444  0.00  0.00    +0.000 A 
ATOM     14  C   UNL     1       5.020   3.613  14.186  0.00  0.00    +0.000 A 
ATOM     15  C   UNL     1       5.746   3.888  13.024  0.00  0.00    +0.000 A 
ATOM     16  C   UNL     1       6.888   4.669  13.181  0.00  0.00    +0.000 A 
ATOM     17  N   UNL     1       7.834   5.115  12.302  0.00  0.00    +0.000 N 
ATOM     18  N   UNL     1       8.781   5.843  12.909  0.00  0.00    +0.000 NA
ATOM     19  N   UNL     1       8.465   5.903  14.195  0.00  0.00    +0.000 NA
ATOM     20  C   UNL     1       7.300   5.199  14.398  0.00  0.00    +0.000 A 
ATOM     21  H   UNL     1       7.899   4.971  11.302  0.00  0.00    +0.000 HD
BRANCH  12  23
ATOM     22  C   UNL     1       7.636   4.686  17.633  0.00  0.00    +0.000 C 
ATOM     23  O   UNL     1       6.795   5.500  16.815  0.00  0.00    +0.000 OA
ENDBRANCH  12  23
ENDBRANCH   1  13
BRANCH   8  24
ATOM     24  C   UNL     1       2.149   6.828  19.061  0.00  0.00    +0.000 A 
ATOM     25  C   UNL     1       2.382   7.491  17.857  0.00  0.00    +0.000 A 
ATOM     26  C   UNL     1       2.157   8.864  17.779  0.00  0.00    +0.000 A 
ATOM     27  C   UNL     1       1.706   9.541  18.903  0.00  0.00    +0.000 A 
ATOM     28  C   UNL     1       1.501   8.813  20.063  0.00  0.00    +0.000 A 
ATOM     29  N   UNL     1       1.707   7.481  20.170  0.00  0.00    +0.000 NA
ENDBRANCH   8  24
BRANCH   7  30
ATOM     30  O   UNL     1       1.156   4.642  21.236  0.00  0.00    +0.000 OA
ATOM     31  H   UNL     1       1.475   5.475  21.624  0.00  0.00    +0.000 HD
ENDBRANCH   7  30
TORSDOF 4
ENDMDL
MODEL 5
REMARK VINA RESULT:      -7.6      1.974      2.724
REMARK  Name = 
REMARK  5 active torsions:
REMARK  status: ('A' for Active; 'I' for Inactive)
REMARK    1  A    between atoms: C_1  and  O_2
REMARK    2  A    between atoms: O_2  and  C_3
REMARK    3  A    between atoms: C_4  and  C_5
REMARK    4  A    between atoms: C_11  and  O_12
REMARK    5  A    between atoms: C_13  and  C_14
REMARK                            x       y       z     vdW  Elec       q    Type
REMARK                         _______ _______ _______ _____ _____    ______ ____
ROOT
ATOM      1  C   UNL     1       1.808   7.194  20.094  0.00  0.00    +0.000 A 
ATOM      2  C   UNL     1       0.898   6.268  20.447  0.00  0.00    +0.000 A 
ATOM      3  C   UNL     1       1.282   4.831  20.446  0.00  0.00    +0.000 A 
ATOM      4  O   UNL     1       0.508   3.924  20.726  0.00  0.00    +0.000 OA
ATOM      5  N   UNL     1       2.612   4.585  20.059  0.00  0.00    +0.000 N 
ATOM      6  N   UNL     1       3.142   3.333  19.973  0.00  0.00    +0.000 NA
ATOM      7  C   UNL     1       4.380   3.579  19.569  0.00  0.00    +0.000 A 
ATOM      8  C   UNL     1       4.707   4.935  19.377  0.00  0.00    +0.000 A 
ATOM      9  C   UNL     1       3.520   5.567  19.701  0.00  0.00    +0.000 A 
ATOM     10  N   UNL     1       3.100   6.858  19.728  0.00  0.00    +0.000 N 
ATOM     11  H   UNL     1       3.747   7.613  19.486  0.00  0.00    +0.000 HD
ENDROOT
BRANCH   1  13
ATOM     12  C   UNL     1       1.105   9.423  21.102  0.00  0.00    +0.000 A 
ATOM     13  C   UNL     1       1.390   8.608  19.980  0.00  0.00    +0.000 A 
ATOM     14  C   UNL     1       1.223   9.114  18.675  0.00  0.00    +0.000 A 
ATOM     15  C   UNL     1       0.801  10.425  18.434  0.00  0.00    +0.000 A 
ATOM     16  C   UNL     1       0.591  11.221  19.556  0.00  0.00    +0.000 A 
ATOM     17  N   UNL     1       0.206  12.523  19.710  0.00  0.00    +0.000 N 
ATOM     18  N   UNL     1       0.144  12.880  21.000  0.00  0.00    +0.000 NA
ATOM     19  N   UNL     1       0.469  11.813  21.718  0.00  0.00    +0.000 NA
ATOM     20  C   UNL     1       0.742  10.771  20.863  0.00  0.00    +0.000 A 
ATOM     21  H   UNL     1      -0.027  13.211  19.004  0.00  0.00    +0.000 HD
BRANCH  12  23
ATOM     22  C   UNL     1       0.186   9.189  23.273  0.00  0.00    +0.000 C 
ATOM     23  O   UNL     1       1.224   8.841  22.356  0.00  0.00    +0.000 OA
ENDBRANCH  12  23
ENDBRANCH   1  13
BRANCH   8  24
ATOM     24  C   UNL     1       5.936   5.581  18.942  0.00  0.00    +0.000 A 
ATOM     25  C   UNL     1       5.992   6.316  17.758  0.00  0.00    +0.000 A 
ATOM     26  C   UNL     1       7.191   6.922  17.387  0.00  0.00    +0.000 A 
ATOM     27  C   UNL     1       8.303   6.780  18.204  0.00  0.00    +0.000 A 
ATOM     28  C   UNL     1       8.170   6.032  19.362  0.00  0.00    +0.000 A 
ATOM     29  N   UNL     1       7.020   5.434  19.751  0.00  0.00    +0.000 NA
ENDBRANCH   8  24
BRANCH   7  30
ATOM     30  O   UNL     1       5.118   2.481  19.399  0.00  0.00    +0.000 OA
ATOM     31  H   UNL     1       5.235   2.124  20.297  0.00  0.00    +0.000 HD
ENDBRANCH   7  30
TORSDOF 4
ENDMDL
MODEL 6
REMARK VINA RESULT:      -7.6      4.857      8.163
REMARK  Name = 
REMARK  5 active torsions:
REMARK  status: ('A' for Active; 'I' for Inactive)
REMARK    1  A    between atoms: C_1  and  O_2
REMARK    2  A    between atoms: O_2  and  C_3
REMARK    3  A    between atoms: C_4  and  C_5
REMARK    4  A    between atoms: C_11  and  O_12
REMARK    5  A    between atoms: C_13  and  C_14
REMARK                            x       y       z     vdW  Elec       q    Type
REMARK                         _______ _______ _______ _____ _____    ______ ____
ROOT
ATOM      1  C   UNL     1       0.091  13.912  20.890  0.00  0.00    +0.000 A 
ATOM      2  C   UNL     1      -0.624  14.252  21.977  0.00  0.00    +0.000 A 
ATOM      3  C   UNL     1      -1.096  13.188  22.903  0.00  0.00    +0.000 A 
ATOM      4  O   UNL     1      -1.775  13.409  23.898  0.00  0.00    +0.000 OA
ATOM      5  N   UNL     1      -0.727  11.884  22.525  0.00  0.00    +0.000 N 
ATOM      6  N   UNL     1      -1.085  10.776  23.232  0.00  0.00    +0.000 NA
ATOM      7  C   UNL     1      -0.544   9.799  22.516  0.00  0.00    +0.000 A 
ATOM      8  C   UNL     1       0.158  10.198  21.363  0.00  0.00    +0.000 A 
ATOM      9  C   UNL     1       0.011  11.573  21.395  0.00  0.00    +0.000 A 
ATOM     10  N   UNL     1       0.410  12.597  20.598  0.00  0.00    +0.000 N 
ATOM     11  H   UNL     1       0.971  12.408  19.763  0.00  0.00    +0.000 HD
ENDROOT
BRANCH   1  13
ATOM     12  C   UNL     1       1.759  15.097  19.376  0.00  0.00    +0.000 A 
ATOM     13  C   UNL     1       0.455  14.957  19.910  0.00  0.00    +0.000 A 
ATOM     14  C   UNL     1      -0.556  15.874  19.559  0.00  0.00    +0.000 A 
ATOM     15  C   UNL     1      -0.329  16.927  18.667  0.00  0.00    +0.000 A 
ATOM     16  C   UNL     1       0.944  16.999  18.111  0.00  0.00    +0.000 A 
ATOM     17  N   UNL     1       1.515  17.854  17.210  0.00  0.00    +0.000 N 
ATOM     18  N   UNL     1       2.790  17.532  16.949  0.00  0.00    +0.000 NA
ATOM     19  N   UNL     1       3.085  16.471  17.688  0.00  0.00    +0.000 NA
ATOM     20  C   UNL     1       1.976  16.121  18.423  0.00  0.00    +0.000 A 
ATOM     21  H   UNL     1       1.113  18.658  16.744  0.00  0.00    +0.000 HD
BRANCH  12  23
ATOM     22  C   UNL     1       3.603  14.720  20.815  0.00  0.00    +0.000 C 
ATOM     23  O   UNL     1       2.724  14.202  19.817  0.00  0.00    +0.000 OA
ENDBRANCH  12  23
ENDBRANCH   1  13
BRANCH   8  24
ATOM     24  C   UNL     1       0.863   9.430  20.348  0.00  0.00    +0.000 A 
ATOM     25  C   UNL     1       1.496   8.226  20.655  0.00  0.00    +0.000 A 
ATOM     26  C   UNL     1       2.152   7.523  19.646  0.00  0.00    +0.000 A 
ATOM     27  C   UNL     1       2.162   8.039  18.358  0.00  0.00    +0.000 A 
ATOM     28  C   UNL     1       1.515   9.242  18.132  0.00  0.00    +0.000 A 
ATOM     29  N   UNL     1       0.867   9.945  19.089  0.00  0.00    +0.000 NA
ENDBRANCH   8  24
BRANCH   7  30
ATOM     30  O   UNL     1      -0.769   8.582  23.013  0.00  0.00    +0.000 OA
ATOM     31  H   UNL     1       0.102   8.281  23.324  0.00  0.00    +0.000 HD
ENDBRANCH   7  30
TORSDOF 4
ENDMDL
MODEL 7
REMARK VINA RESULT:      -7.4      3.340      6.423
REMARK  Name = 
REMARK  5 active torsions:
REMARK  status: ('A' for Active; 'I' for Inactive)
REMARK    1  A    between atoms: C_1  and  O_2
REMARK    2  A    between atoms: O_2  and  C_3
REMARK    3  A    between atoms: C_4  and  C_5
REMARK    4  A    between atoms: C_11  and  O_12
REMARK    5  A    between atoms: C_13  and  C_14
REMARK                            x       y       z     vdW  Elec       q    Type
REMARK                         _______ _______ _______ _____ _____    ______ ____
ROOT
ATOM      1  C   UNL     1       5.070   4.540  16.968  0.00  0.00    +0.000 A 
ATOM      2  C   UNL     1       5.933   5.417  17.511  0.00  0.00    +0.000 A 
ATOM      3  C   UNL     1       7.020   5.987  16.670  0.00  0.00    +0.000 A 
ATOM      4  O   UNL     1       7.862   6.769  17.093  0.00  0.00    +0.000 OA
ATOM      5  N   UNL     1       7.028   5.526  15.341  0.00  0.00    +0.000 N 
ATOM      6  N   UNL     1       7.959   5.913  14.426  0.00  0.00    +0.000 NA
ATOM      7  C   UNL     1       7.593   5.234  13.348  0.00  0.00    +0.000 A 
ATOM      8  C   UNL     1       6.462   4.408  13.495  0.00  0.00    +0.000 A 
ATOM      9  C   UNL     1       6.121   4.618  14.819  0.00  0.00    +0.000 A 
ATOM     10  N   UNL     1       5.154   4.143  15.645  0.00  0.00    +0.000 N 
ATOM     11  H   UNL     1       4.455   3.484  15.291  0.00  0.00    +0.000 HD
ENDROOT
BRANCH   1  13
ATOM     12  C   UNL     1       3.332   4.578  18.828  0.00  0.00    +0.000 A 
ATOM     13  C   UNL     1       4.066   3.886  17.835  0.00  0.00    +0.000 A 
ATOM     14  C   UNL     1       3.903   2.495  17.675  0.00  0.00    +0.000 A 
ATOM     15  C   UNL     1       3.010   1.755  18.456  0.00  0.00    +0.000 A 
ATOM     16  C   UNL     1       2.257   2.474  19.379  0.00  0.00    +0.000 A 
ATOM     17  N   UNL     1       1.295   2.107  20.278  0.00  0.00    +0.000 N 
ATOM     18  N   UNL     1       0.825   3.156  20.967  0.00  0.00    +0.000 NA
ATOM     19  N   UNL     1       1.483   4.228  20.547  0.00  0.00    +0.000 NA
ATOM     20  C   UNL     1       2.379   3.845  19.576  0.00  0.00    +0.000 A 
ATOM     21  H   UNL     1       0.918   1.189  20.474  0.00  0.00    +0.000 HD
BRANCH  12  23
ATOM     22  C   UNL     1       2.591   6.794  18.436  0.00  0.00    +0.000 C 
ATOM     23  O   UNL     1       3.592   5.933  18.980  0.00  0.00    +0.000 OA
ENDBRANCH  12  23
ENDBRANCH   1  13
BRANCH   8  24
ATOM     24  C   UNL     1       5.780   3.527  12.559  0.00  0.00    +0.000 A 
ATOM     25  C   UNL     1       4.512   3.830  12.066  0.00  0.00    +0.000 A 
ATOM     26  C   UNL     1       3.903   2.958  11.166  0.00  0.00    +0.000 A 
ATOM     27  C   UNL     1       4.574   1.806  10.781  0.00  0.00    +0.000 A 
ATOM     28  C   UNL     1       5.829   1.572  11.316  0.00  0.00    +0.000 A 
ATOM     29  N   UNL     1       6.447   2.400  12.189  0.00  0.00    +0.000 NA
ENDBRANCH   8  24
BRANCH   7  30
ATOM     30  O   UNL     1       8.377   5.443  12.290  0.00  0.00    +0.000 OA
ATOM     31  H   UNL     1       8.140   6.336  11.983  0.00  0.00    +0.000 HD
ENDBRANCH   7  30
TORSDOF 4
ENDMDL
MODEL 8
REMARK VINA RESULT:      -7.4      3.837      8.296
REMARK  Name = 
REMARK  5 active torsions:
REMARK  status: ('A' for Active; 'I' for Inactive)
REMARK    1  A    between atoms: C_1  and  O_2
REMARK    2  A    between atoms: O_2  and  C_3
REMARK    3  A    between atoms: C_4  and  C_5
REMARK    4  A    between atoms: C_11  and  O_12
REMARK    5  A    between atoms: C_13  and  C_14
REMARK                            x       y       z     vdW  Elec       q    Type
REMARK                         _______ _______ _______ _____ _____    ______ ____
ROOT
ATOM      1  C   UNL     1       0.563   9.377  20.116  0.00  0.00    +0.000 A 
ATOM      2  C   UNL     1       0.747   9.954  21.317  0.00  0.00    +0.000 A 
ATOM      3  C   UNL     1      -0.142  11.072  21.733  0.00  0.00    +0.000 A 
ATOM      4  O   UNL     1      -0.026  11.670  22.796  0.00  0.00    +0.000 OA
ATOM      5  N   UNL     1      -1.121  11.421  20.783  0.00  0.00    +0.000 N 
ATOM      6  N   UNL     1      -2.011  12.434  20.970  0.00  0.00    +0.000 NA
ATOM      7  C   UNL     1      -2.707  12.408  19.843  0.00  0.00    +0.000 A 
ATOM      8  C   UNL     1      -2.327  11.427  18.907  0.00  0.00    +0.000 A 
ATOM      9  C   UNL     1      -1.276  10.802  19.554  0.00  0.00    +0.000 A 
ATOM     10  N   UNL     1      -0.430   9.787  19.244  0.00  0.00    +0.000 N 
ATOM     11  H   UNL     1      -0.525   9.294  18.351  0.00  0.00    +0.000 HD
ENDROOT
BRANCH   1  13
ATOM     12  C   UNL     1       2.168   8.402  18.398  0.00  0.00    +0.000 A 
ATOM     13  C   UNL     1       1.522   8.349  19.656  0.00  0.00    +0.000 A 
ATOM     14  C   UNL     1       1.731   7.251  20.515  0.00  0.00    +0.000 A 
ATOM     15  C   UNL     1       2.588   6.197  20.180  0.00  0.00    +0.000 A 
ATOM     16  C   UNL     1       3.257   6.310  18.966  0.00  0.00    +0.000 A 
ATOM     17  N   UNL     1       4.165   5.510  18.330  0.00  0.00    +0.000 N 
ATOM     18  N   UNL     1       4.559   6.030  17.159  0.00  0.00    +0.000 NA
ATOM     19  N   UNL     1       3.905   7.171  16.996  0.00  0.00    +0.000 NA
ATOM     20  C   UNL     1       3.087   7.371  18.084  0.00  0.00    +0.000 A 
ATOM     21  H   UNL     1       4.551   4.621  18.621  0.00  0.00    +0.000 HD
BRANCH  12  23
ATOM     22  C   UNL     1       2.588  10.672  17.864  0.00  0.00    +0.000 C 
ATOM     23  O   UNL     1       1.864   9.476  17.573  0.00  0.00    +0.000 OA
ENDBRANCH  12  23
ENDBRANCH   1  13
BRANCH   8  24
ATOM     24  C   UNL     1      -2.839  11.104  17.584  0.00  0.00    +0.000 A 
ATOM     25  C   UNL     1      -2.142  10.260  16.719  0.00  0.00    +0.000 A 
ATOM     26  C   UNL     1      -2.678   9.974  15.465  0.00  0.00    +0.000 A 
ATOM     27  C   UNL     1      -3.894  10.536  15.104  0.00  0.00    +0.000 A 
ATOM     28  C   UNL     1      -4.524  11.366  16.015  0.00  0.00    +0.000 A 
ATOM     29  N   UNL     1      -4.032  11.661  17.240  0.00  0.00    +0.000 NA
ENDBRANCH   8  24
BRANCH   7  30
ATOM     30  O   UNL     1      -3.661  13.338  19.780  0.00  0.00    +0.000 OA
ATOM     31  H   UNL     1      -3.581  13.827  20.617  0.00  0.00    +0.000 HD
ENDBRANCH   7  30
TORSDOF 4
ENDMDL
MODEL 9
REMARK VINA RESULT:      -7.4      5.552      9.228
REMARK  Name = 
REMARK  5 active torsions:
REMARK  status: ('A' for Active; 'I' for Inactive)
REMARK    1  A    between atoms: C_1  and  O_2
REMARK    2  A    between atoms: O_2  and  C_3
REMARK    3  A    between atoms: C_4  and  C_5
REMARK    4  A    between atoms: C_11  and  O_12
REMARK    5  A    between atoms: C_13  and  C_14
REMARK                            x       y       z     vdW  Elec       q    Type
REMARK                         _______ _______ _______ _____ _____    ______ ____
ROOT
ATOM      1  C   UNL     1      -1.690  13.929  20.447  0.00  0.00    +0.000 A 
ATOM      2  C   UNL     1      -1.432  15.228  20.212  0.00  0.00    +0.000 A 
ATOM      3  C   UNL     1      -0.182  15.606  19.498  0.00  0.00    +0.000 A 
ATOM      4  O   UNL     1       0.142  16.764  19.268  0.00  0.00    +0.000 OA
ATOM      5  N   UNL     1       0.630  14.516  19.131  0.00  0.00    +0.000 N 
ATOM      6  N   UNL     1       1.824  14.661  18.493  0.00  0.00    +0.000 NA
ATOM      7  C   UNL     1       2.230  13.405  18.368  0.00  0.00    +0.000 A 
ATOM      8  C   UNL     1       1.367  12.424  18.894  0.00  0.00    +0.000 A 
ATOM      9  C   UNL     1       0.329  13.190  19.395  0.00  0.00    +0.000 A 
ATOM     10  N   UNL     1      -0.830  12.921  20.048  0.00  0.00    +0.000 N 
ATOM     11  H   UNL     1      -1.095  11.951  20.244  0.00  0.00    +0.000 HD
ENDROOT
BRANCH   1  13
ATOM     12  C   UNL     1      -2.774  12.908  22.511  0.00  0.00    +0.000 A 
ATOM     13  C   UNL     1      -2.870  13.564  21.260  0.00  0.00    +0.000 A 
ATOM     14  C   UNL     1      -4.133  13.848  20.704  0.00  0.00    +0.000 A 
ATOM     15  C   UNL     1      -5.325  13.523  21.359  0.00  0.00    +0.000 A 
ATOM     16  C   UNL     1      -5.198  12.937  22.614  0.00  0.00    +0.000 A 
ATOM     17  N   UNL     1      -6.113  12.511  23.536  0.00  0.00    +0.000 N 
ATOM     18  N   UNL     1      -5.527  12.011  24.632  0.00  0.00    +0.000 NA
ATOM     19  N   UNL     1      -4.216  12.081  24.443  0.00  0.00    +0.000 NA
ATOM     20  C   UNL     1      -3.977  12.637  23.208  0.00  0.00    +0.000 A 
ATOM     21  H   UNL     1      -7.124  12.527  23.491  0.00  0.00    +0.000 HD
BRANCH  12  23
ATOM     22  C   UNL     1      -1.199  11.201  22.980  0.00  0.00    +0.000 C 
ATOM     23  O   UNL     1      -1.501  12.596  22.968  0.00  0.00    +0.000 OA
ENDBRANCH  12  23
ENDBRANCH   1  13
BRANCH   8  24
ATOM     24  C   UNL     1       1.472  10.974  18.950  0.00  0.00    +0.000 A 
ATOM     25  C   UNL     1       2.006  10.242  17.889  0.00  0.00    +0.000 A 
ATOM     26  C   UNL     1       2.093   8.855  17.994  0.00  0.00    +0.000 A 
ATOM     27  C   UNL     1       1.645   8.233  19.150  0.00  0.00    +0.000 A 
ATOM     28  C   UNL     1       1.125   9.028  20.157  0.00  0.00    +0.000 A 
ATOM     29  N   UNL     1       1.030  10.375  20.088  0.00  0.00    +0.000 NA
ENDBRANCH   8  24
BRANCH   7  30
ATOM     30  O   UNL     1       3.412  13.281  17.765  0.00  0.00    +0.000 OA
ATOM     31  H   UNL     1       3.286  13.693  16.893  0.00  0.00    +0.000 HD
ENDBRANCH   7  30
TORSDOF 4
ENDMDL
