MODEL 1
REMARK VINA RESULT:      -7.9      0.000      0.000
REMARK  Name = 
REMARK  7 active torsions:
REMARK  status: ('A' for Active; 'I' for Inactive)
REMARK    1  A    between atoms: C_1  and  O_2
REMARK    2  A    between atoms: O_2  and  C_3
REMARK    3  A    between atoms: C_7  and  C_8
REMARK    4  A    between atoms: C_9  and  C_10
REMARK    5  A    between atoms: C_10  and  C_12
REMARK    6  A    between atoms: C_13  and  O_14
REMARK    7  A    between atoms: C_16  and  C_17
REMARK                            x       y       z     vdW  Elec       q    Type
REMARK                         _______ _______ _______ _____ _____    ______ ____
ROOT
ATOM      1  C   UNL     1       7.366   6.768  17.341  0.00  0.00    +0.000 C 
ATOM      2  O   UNL     1       7.721   6.370  16.232  0.00  0.00    +0.000 OA
ENDROOT
BRANCH   1   3
ATOM      3  C   UNL     1       6.118   6.256  17.980  0.00  0.00    +0.000 A 
ATOM      4  C   UNL     1       4.945   6.424  17.339  0.00  0.00    +0.000 A 
ATOM      5  C   UNL     1       3.703   6.015  17.932  0.00  0.00    +0.000 A 
ATOM      6  C   UNL     1       3.706   5.434  19.136  0.00  0.00    +0.000 A 
ATOM      7  C   UNL     1       2.492   4.976  19.874  0.00  0.00    +0.000 C 
ATOM      8  O   UNL     1       4.915   5.197  19.824  0.00  0.00    +0.000 OA
ATOM      9  C   UNL     1       6.122   5.548  19.284  0.00  0.00    +0.000 A 
ATOM     10  O   UNL     1       7.161   5.272  19.875  0.00  0.00    +0.000 OA
BRANCH   4  11
ATOM     11  O   UNL     1       4.785   7.005  16.100  0.00  0.00    +0.000 OA
ATOM     12  H   UNL     1       4.382   7.894  16.218  0.00  0.00    +0.000 HD
ENDBRANCH   4  11
ENDBRANCH   1   3
BRANCH   1  14
ATOM     13  C   UNL     1       7.983   9.133  17.738  0.00  0.00    +0.000 C 
ATOM     14  C   UNL     1       8.104   7.838  18.061  0.00  0.00    +0.000 C 
BRANCH  13  19
ATOM     15  C   UNL     1       9.875  12.361  18.250  0.00  0.00    +0.000 A 
ATOM     16  C   UNL     1      10.298  12.230  19.574  0.00  0.00    +0.000 A 
ATOM     17  C   UNL     1       9.981  11.090  20.306  0.00  0.00    +0.000 A 
ATOM     18  C   UNL     1       9.231  10.073  19.715  0.00  0.00    +0.000 A 
ATOM     19  C   UNL     1       8.766  10.196  18.396  0.00  0.00    +0.000 A 
ATOM     20  C   UNL     1       9.109  11.346  17.666  0.00  0.00    +0.000 A 
BRANCH  15  22
ATOM     21  C   UNL     1      11.363  13.418  16.724  0.00  0.00    +0.000 C 
ATOM     22  O   UNL     1      10.281  13.517  17.640  0.00  0.00    +0.000 OA
ENDBRANCH  15  22
ENDBRANCH  13  19
ENDBRANCH   1  14
TORSDOF 5
ENDMDL
MODEL 2
REMARK VINA RESULT:      -7.8      5.350      7.256
REMARK  Name = 
REMARK  7 active torsions:
REMARK  status: ('A' for Active; 'I' for Inactive)
REMARK    1  A    between atoms: C_1  and  O_2
REMARK    2  A    between atoms: O_2  and  C_3
REMARK    3  A    between atoms: C_7  and  C_8
REMARK    4  A    between atoms: C_9  and  C_10
REMARK    5  A    between atoms: C_10  and  C_12
REMARK    6  A    between atoms: C_13  and  O_14
REMARK    7  A    between atoms: C_16  and  C_17
REMARK                            x       y       z     vdW  Elec       q    Type
REMARK                         _______ _______ _______ _____ _____    ______ ____
ROOT
ATOM      1  C   UNL     1       5.930   4.650  18.440  0.00  0.00    +0.000 C 
ATOM      2  O   UNL     1       6.690   5.106  19.294  0.00  0.00    +0.000 OA
ENDROOT
BRANCH   1   3
ATOM      3  C   UNL     1       4.531   4.261  18.783  0.00  0.00    +0.000 A 
ATOM      4  C   UNL     1       4.316   3.069  19.373  0.00  0.00    +0.000 A 
ATOM      5  C   UNL     1       2.987   2.608  19.665  0.00  0.00    +0.000 A 
ATOM      6  C   UNL     1       1.939   3.383  19.369  0.00  0.00    +0.000 A 
ATOM      7  C   UNL     1       0.509   3.024  19.602  0.00  0.00    +0.000 C 
ATOM      8  O   UNL     1       2.120   4.658  18.794  0.00  0.00    +0.000 OA
ATOM      9  C   UNL     1       3.369   5.146  18.522  0.00  0.00    +0.000 A 
ATOM     10  O   UNL     1       3.500   6.284  18.081  0.00  0.00    +0.000 OA
BRANCH   4  11
ATOM     11  O   UNL     1       5.291   2.165  19.733  0.00  0.00    +0.000 OA
ATOM     12  H   UNL     1       5.163   1.922  20.678  0.00  0.00    +0.000 HD
ENDBRANCH   4  11
ENDBRANCH   1   3
BRANCH   1  14
ATOM     13  C   UNL     1       5.931   5.075  16.000  0.00  0.00    +0.000 C 
ATOM     14  C   UNL     1       6.386   4.380  17.052  0.00  0.00    +0.000 C 
BRANCH  13  19
ATOM     15  C   UNL     1       5.905   3.521  12.559  0.00  0.00    +0.000 A 
ATOM     16  C   UNL     1       7.037   4.100  11.982  0.00  0.00    +0.000 A 
ATOM     17  C   UNL     1       7.821   4.991  12.709  0.00  0.00    +0.000 A 
ATOM     18  C   UNL     1       7.471   5.312  14.021  0.00  0.00    +0.000 A 
ATOM     19  C   UNL     1       6.320   4.767  14.611  0.00  0.00    +0.000 A 
ATOM     20  C   UNL     1       5.549   3.857  13.870  0.00  0.00    +0.000 A 
BRANCH  15  22
ATOM     21  C   UNL     1       4.040   3.101  11.144  0.00  0.00    +0.000 C 
ATOM     22  O   UNL     1       5.245   2.642  11.744  0.00  0.00    +0.000 OA
ENDBRANCH  15  22
ENDBRANCH  13  19
ENDBRANCH   1  14
TORSDOF 5
ENDMDL
MODEL 3
REMARK VINA RESULT:      -7.4      5.269      7.022
REMARK  Name = 
REMARK  7 active torsions:
REMARK  status: ('A' for Active; 'I' for Inactive)
REMARK    1  A    between atoms: C_1  and  O_2
REMARK    2  A    between atoms: O_2  and  C_3
REMARK    3  A    between atoms: C_7  and  C_8
REMARK    4  A    between atoms: C_9  and  C_10
REMARK    5  A    between atoms: C_10  and  C_12
REMARK    6  A    between atoms: C_13  and  O_14
REMARK    7  A    between atoms: C_16  and  C_17
REMARK                            x       y       z     vdW  Elec       q    Type
REMARK                         _______ _______ _______ _____ _____    ______ ____
ROOT
ATOM      1  C   UNL     1       5.948   4.555  18.351  0.00  0.00    +0.000 C 
ATOM      2  O   UNL     1       6.814   4.991  19.110  0.00  0.00    +0.000 OA
ENDROOT
BRANCH   1   3
ATOM      3  C   UNL     1       4.572   4.257  18.843  0.00  0.00    +0.000 A 
ATOM      4  C   UNL     1       3.565   5.084  18.500  0.00  0.00    +0.000 A 
ATOM      5  C   UNL     1       2.232   4.889  18.998  0.00  0.00    +0.000 A 
ATOM      6  C   UNL     1       1.973   3.852  19.801  0.00  0.00    +0.000 A 
ATOM      7  C   UNL     1       0.643   3.539  20.401  0.00  0.00    +0.000 C 
ATOM      8  O   UNL     1       2.986   2.933  20.149  0.00  0.00    +0.000 OA
ATOM      9  C   UNL     1       4.263   3.068  19.677  0.00  0.00    +0.000 A 
ATOM     10  O   UNL     1       5.108   2.219  19.944  0.00  0.00    +0.000 OA
BRANCH   4  11
ATOM     11  O   UNL     1       3.680   6.190  17.686  0.00  0.00    +0.000 OA
ATOM     12  H   UNL     1       2.790   6.414  17.331  0.00  0.00    +0.000 HD
ENDBRANCH   4  11
ENDBRANCH   1   3
BRANCH   1  14
ATOM     13  C   UNL     1       6.438   5.161  16.000  0.00  0.00    +0.000 C 
ATOM     14  C   UNL     1       6.247   4.219  16.935  0.00  0.00    +0.000 C 
BRANCH  13  19
ATOM     15  C   UNL     1       6.053   3.529  12.616  0.00  0.00    +0.000 A 
ATOM     16  C   UNL     1       7.072   4.148  11.890  0.00  0.00    +0.000 A 
ATOM     17  C   UNL     1       7.897   5.091  12.496  0.00  0.00    +0.000 A 
ATOM     18  C   UNL     1       7.701   5.424  13.836  0.00  0.00    +0.000 A 
ATOM     19  C   UNL     1       6.662   4.840  14.578  0.00  0.00    +0.000 A 
ATOM     20  C   UNL     1       5.850   3.878  13.956  0.00  0.00    +0.000 A 
BRANCH  15  22
ATOM     21  C   UNL     1       4.171   3.061  11.239  0.00  0.00    +0.000 C 
ATOM     22  O   UNL     1       5.338   2.602  11.907  0.00  0.00    +0.000 OA
ENDBRANCH  15  22
ENDBRANCH  13  19
ENDBRANCH   1  14
TORSDOF 5
ENDMDL
MODEL 4
REMARK VINA RESULT:      -7.4      4.601      6.892
REMARK  Name = 
REMARK  7 active torsions:
REMARK  status: ('A' for Active; 'I' for Inactive)
REMARK    1  A    between atoms: C_1  and  O_2
REMARK    2  A    between atoms: O_2  and  C_3
REMARK    3  A    between atoms: C_7  and  C_8
REMARK    4  A    between atoms: C_9  and  C_10
REMARK    5  A    between atoms: C_10  and  C_12
REMARK    6  A    between atoms: C_13  and  O_14
REMARK    7  A    between atoms: C_16  and  C_17
REMARK                            x       y       z     vdW  Elec       q    Type
REMARK                         _______ _______ _______ _____ _____    ______ ____
ROOT
ATOM      1  C   UNL     1       5.279   4.762  18.639  0.00  0.00    +0.000 C 
ATOM      2  O   UNL     1       5.599   3.841  19.391  0.00  0.00    +0.000 OA
ENDROOT
BRANCH   1   3
ATOM      3  C   UNL     1       5.840   4.859  17.260  0.00  0.00    +0.000 A 
ATOM      4  C   UNL     1       5.257   4.153  16.271  0.00  0.00    +0.000 A 
ATOM      5  C   UNL     1       5.791   4.151  14.938  0.00  0.00    +0.000 A 
ATOM      6  C   UNL     1       6.875   4.882  14.660  0.00  0.00    +0.000 A 
ATOM      7  C   UNL     1       7.542   4.961  13.327  0.00  0.00    +0.000 C 
ATOM      8  O   UNL     1       7.490   5.673  15.652  0.00  0.00    +0.000 OA
ATOM      9  C   UNL     1       7.000   5.723  16.929  0.00  0.00    +0.000 A 
ATOM     10  O   UNL     1       7.516   6.469  17.755  0.00  0.00    +0.000 OA
BRANCH   4  11
ATOM     11  O   UNL     1       4.142   3.356  16.406  0.00  0.00    +0.000 OA
ATOM     12  H   UNL     1       3.340   3.925  16.367  0.00  0.00    +0.000 HD
ENDBRANCH   4  11
ENDBRANCH   1   3
BRANCH   1  14
ATOM     13  C   UNL     1       3.358   6.299  18.358  0.00  0.00    +0.000 C 
ATOM     14  C   UNL     1       4.396   5.868  19.089  0.00  0.00    +0.000 C 
BRANCH  13  19
ATOM     15  C   UNL     1       1.210   8.566  20.481  0.00  0.00    +0.000 A 
ATOM     16  C   UNL     1       0.876   9.569  19.569  0.00  0.00    +0.000 A 
ATOM     17  C   UNL     1       1.338   9.511  18.258  0.00  0.00    +0.000 A 
ATOM     18  C   UNL     1       2.143   8.447  17.852  0.00  0.00    +0.000 A 
ATOM     19  C   UNL     1       2.520   7.444  18.759  0.00  0.00    +0.000 A 
ATOM     20  C   UNL     1       2.032   7.508  20.074  0.00  0.00    +0.000 A 
BRANCH  15  22
ATOM     21  C   UNL     1       0.147  10.019  22.036  0.00  0.00    +0.000 C 
ATOM     22  O   UNL     1       0.666   8.732  21.726  0.00  0.00    +0.000 OA
ENDBRANCH  15  22
ENDBRANCH  13  19
ENDBRANCH   1  14
TORSDOF 5
ENDMDL
MODEL 5
REMARK VINA RESULT:      -7.4      1.237      1.945
REMARK  Name = 
REMARK  7 active torsions:
REMARK  status: ('A' for Active; 'I' for Inactive)
REMARK    1  A    between atoms: C_1  and  O_2
REMARK    2  A    between atoms: O_2  and  C_3
REMARK    3  A    between atoms: C_7  and  C_8
REMARK    4  A    between atoms: C_9  and  C_10
REMARK    5  A    between atoms: C_10  and  C_12
REMARK    6  A    between atoms: C_13  and  O_14
REMARK    7  A    between atoms: C_16  and  C_17
REMARK                            x       y       z     vdW  Elec       q    Type
REMARK                         _______ _______ _______ _____ _____    ______ ____
ROOT
ATOM      1  C   UNL     1       7.355   6.808  17.342  0.00  0.00    +0.000 C 
ATOM      2  O   UNL     1       7.670   6.497  16.194  0.00  0.00    +0.000 OA
ENDROOT
BRANCH   1   3
ATOM      3  C   UNL     1       6.139   6.236  17.989  0.00  0.00    +0.000 A 
ATOM      4  C   UNL     1       4.954   6.349  17.358  0.00  0.00    +0.000 A 
ATOM      5  C   UNL     1       3.737   5.879  17.960  0.00  0.00    +0.000 A 
ATOM      6  C   UNL     1       3.778   5.295  19.162  0.00  0.00    +0.000 A 
ATOM      7  C   UNL     1       2.594   4.777  19.909  0.00  0.00    +0.000 C 
ATOM      8  O   UNL     1       5.002   5.113  19.839  0.00  0.00    +0.000 OA
ATOM      9  C   UNL     1       6.187   5.523  19.290  0.00  0.00    +0.000 A 
ATOM     10  O   UNL     1       7.243   5.295  19.872  0.00  0.00    +0.000 OA
BRANCH   4  11
ATOM     11  O   UNL     1       4.755   6.926  16.123  0.00  0.00    +0.000 OA
ATOM     12  H   UNL     1       5.215   7.796  16.103  0.00  0.00    +0.000 HD
ENDBRANCH   4  11
ENDBRANCH   1   3
BRANCH   1  14
ATOM     13  C   UNL     1       8.235   9.098  17.685  0.00  0.00    +0.000 C 
ATOM     14  C   UNL     1       8.110   7.832  18.110  0.00  0.00    +0.000 C 
BRANCH  13  19
ATOM     15  C   UNL     1       9.583  11.243  20.485  0.00  0.00    +0.000 A 
ATOM     16  C   UNL     1      10.511  12.036  19.807  0.00  0.00    +0.000 A 
ATOM     17  C   UNL     1      10.698  11.887  18.436  0.00  0.00    +0.000 A 
ATOM     18  C   UNL     1       9.958  10.935  17.735  0.00  0.00    +0.000 A 
ATOM     19  C   UNL     1       9.043  10.103  18.400  0.00  0.00    +0.000 A 
ATOM     20  C   UNL     1       8.854  10.279  19.780  0.00  0.00    +0.000 A 
BRANCH  15  22
ATOM     21  C   UNL     1       9.156  12.851  22.186  0.00  0.00    +0.000 C 
ATOM     22  O   UNL     1       9.480  11.515  21.822  0.00  0.00    +0.000 OA
ENDBRANCH  15  22
ENDBRANCH  13  19
ENDBRANCH   1  14
TORSDOF 5
ENDMDL
MODEL 6
REMARK VINA RESULT:      -7.3      1.113      1.587
REMARK  Name = 
REMARK  7 active torsions:
REMARK  status: ('A' for Active; 'I' for Inactive)
REMARK    1  A    between atoms: C_1  and  O_2
REMARK    2  A    between atoms: O_2  and  C_3
REMARK    3  A    between atoms: C_7  and  C_8
REMARK    4  A    between atoms: C_9  and  C_10
REMARK    5  A    between atoms: C_10  and  C_12
REMARK    6  A    between atoms: C_13  and  O_14
REMARK    7  A    between atoms: C_16  and  C_17
REMARK                            x       y       z     vdW  Elec       q    Type
REMARK                         _______ _______ _______ _____ _____    ______ ____
ROOT
ATOM      1  C   UNL     1       7.174   6.378  17.168  0.00  0.00    +0.000 C 
ATOM      2  O   UNL     1       7.721   5.509  16.489  0.00  0.00    +0.000 OA
ENDROOT
BRANCH   1   3
ATOM      3  C   UNL     1       5.903   6.100  17.897  0.00  0.00    +0.000 A 
ATOM      4  C   UNL     1       4.733   6.397  17.299  0.00  0.00    +0.000 A 
ATOM      5  C   UNL     1       3.479   6.216  17.976  0.00  0.00    +0.000 A 
ATOM      6  C   UNL     1       3.464   5.722  19.218  0.00  0.00    +0.000 A 
ATOM      7  C   UNL     1       2.239   5.498  20.041  0.00  0.00    +0.000 C 
ATOM      8  O   UNL     1       4.662   5.354  19.866  0.00  0.00    +0.000 OA
ATOM      9  C   UNL     1       5.875   5.486  19.248  0.00  0.00    +0.000 A 
ATOM     10  O   UNL     1       6.895   5.099  19.811  0.00  0.00    +0.000 OA
BRANCH   4  11
ATOM     11  O   UNL     1       4.590   6.912  16.029  0.00  0.00    +0.000 OA
ATOM     12  H   UNL     1       5.482   7.115  15.669  0.00  0.00    +0.000 HD
ENDBRANCH   4  11
ENDBRANCH   1   3
BRANCH   1  14
ATOM     13  C   UNL     1       8.225   8.290  18.340  0.00  0.00    +0.000 C 
ATOM     14  C   UNL     1       7.695   7.768  17.225  0.00  0.00    +0.000 C 
BRANCH  13  19
ATOM     15  C   UNL     1      10.068  11.365  19.527  0.00  0.00    +0.000 A 
ATOM     16  C   UNL     1       9.542  12.347  18.686  0.00  0.00    +0.000 A 
ATOM     17  C   UNL     1       8.579  12.021  17.736  0.00  0.00    +0.000 A 
ATOM     18  C   UNL     1       8.140  10.702  17.619  0.00  0.00    +0.000 A 
ATOM     19  C   UNL     1       8.678   9.690  18.430  0.00  0.00    +0.000 A 
ATOM     20  C   UNL     1       9.637  10.040  19.395  0.00  0.00    +0.000 A 
BRANCH  15  22
ATOM     21  C   UNL     1      12.293  12.095  19.947  0.00  0.00    +0.000 C 
ATOM     22  O   UNL     1      10.983  11.829  20.432  0.00  0.00    +0.000 OA
ENDBRANCH  15  22
ENDBRANCH  13  19
ENDBRANCH   1  14
TORSDOF 5
ENDMDL
MODEL 7
REMARK VINA RESULT:      -7.3      0.821      1.920
REMARK  Name = 
REMARK  7 active torsions:
REMARK  status: ('A' for Active; 'I' for Inactive)
REMARK    1  A    between atoms: C_1  and  O_2
REMARK    2  A    between atoms: O_2  and  C_3
REMARK    3  A    between atoms: C_7  and  C_8
REMARK    4  A    between atoms: C_9  and  C_10
REMARK    5  A    between atoms: C_10  and  C_12
REMARK    6  A    between atoms: C_13  and  O_14
REMARK    7  A    between atoms: C_16  and  C_17
REMARK                            x       y       z     vdW  Elec       q    Type
REMARK                         _______ _______ _______ _____ _____    ______ ____
ROOT
ATOM      1  C   UNL     1       7.254   6.692  17.343  0.00  0.00    +0.000 C 
ATOM      2  O   UNL     1       7.799   6.249  16.332  0.00  0.00    +0.000 OA
ENDROOT
BRANCH   1   3
ATOM      3  C   UNL     1       5.939   6.161  17.804  0.00  0.00    +0.000 A 
ATOM      4  C   UNL     1       5.885   5.477  18.963  0.00  0.00    +0.000 A 
ATOM      5  C   UNL     1       4.662   4.883  19.426  0.00  0.00    +0.000 A 
ATOM      6  C   UNL     1       3.544   5.028  18.706  0.00  0.00    +0.000 A 
ATOM      7  C   UNL     1       2.212   4.453  19.059  0.00  0.00    +0.000 C 
ATOM      8  O   UNL     1       3.543   5.776  17.510  0.00  0.00    +0.000 OA
ATOM      9  C   UNL     1       4.681   6.379  17.047  0.00  0.00    +0.000 A 
ATOM     10  O   UNL     1       4.637   7.076  16.038  0.00  0.00    +0.000 OA
BRANCH   4  11
ATOM     11  O   UNL     1       6.949   5.244  19.806  0.00  0.00    +0.000 OA
ATOM     12  H   UNL     1       7.777   5.238  19.275  0.00  0.00    +0.000 HD
ENDBRANCH   4  11
ENDBRANCH   1   3
BRANCH   1  14
ATOM     13  C   UNL     1       7.994   9.046  17.558  0.00  0.00    +0.000 C 
ATOM     14  C   UNL     1       7.827   7.833  18.104  0.00  0.00    +0.000 C 
BRANCH  13  19
ATOM     15  C   UNL     1       9.219  12.528  18.353  0.00  0.00    +0.000 A 
ATOM     16  C   UNL     1       9.864  12.325  19.575  0.00  0.00    +0.000 A 
ATOM     17  C   UNL     1       9.914  11.056  20.143  0.00  0.00    +0.000 A 
ATOM     18  C   UNL     1       9.312   9.980  19.491  0.00  0.00    +0.000 A 
ATOM     19  C   UNL     1       8.629  10.165  18.279  0.00  0.00    +0.000 A 
ATOM     20  C   UNL     1       8.602  11.449  17.711  0.00  0.00    +0.000 A 
BRANCH  15  22
ATOM     21  C   UNL     1      10.517  14.492  18.008  0.00  0.00    +0.000 C 
ATOM     22  O   UNL     1       9.270  13.817  17.897  0.00  0.00    +0.000 OA
ENDBRANCH  15  22
ENDBRANCH  13  19
ENDBRANCH   1  14
TORSDOF 5
ENDMDL
MODEL 8
REMARK VINA RESULT:      -7.3      5.030      7.301
REMARK  Name = 
REMARK  7 active torsions:
REMARK  status: ('A' for Active; 'I' for Inactive)
REMARK    1  A    between atoms: C_1  and  O_2
REMARK    2  A    between atoms: O_2  and  C_3
REMARK    3  A    between atoms: C_7  and  C_8
REMARK    4  A    between atoms: C_9  and  C_10
REMARK    5  A    between atoms: C_10  and  C_12
REMARK    6  A    between atoms: C_13  and  O_14
REMARK    7  A    between atoms: C_16  and  C_17
REMARK                            x       y       z     vdW  Elec       q    Type
REMARK                         _______ _______ _______ _____ _____    ______ ____
ROOT
ATOM      1  C   UNL     1       5.134   5.922  17.685  0.00  0.00    +0.000 C 
ATOM      2  O   UNL     1       5.878   6.737  18.230  0.00  0.00    +0.000 OA
ENDROOT
BRANCH   1   3
ATOM      3  C   UNL     1       4.093   5.189  18.462  0.00  0.00    +0.000 A 
ATOM      4  C   UNL     1       4.440   4.056  19.103  0.00  0.00    +0.000 A 
ATOM      5  C   UNL     1       3.469   3.269  19.810  0.00  0.00    +0.000 A 
ATOM      6  C   UNL     1       2.196   3.676  19.857  0.00  0.00    +0.000 A 
ATOM      7  C   UNL     1       1.085   2.951  20.540  0.00  0.00    +0.000 C 
ATOM      8  O   UNL     1       1.797   4.880  19.240  0.00  0.00    +0.000 OA
ATOM      9  C   UNL     1       2.694   5.672  18.577  0.00  0.00    +0.000 A 
ATOM     10  O   UNL     1       2.332   6.745  18.104  0.00  0.00    +0.000 OA
BRANCH   4  11
ATOM     11  O   UNL     1       5.705   3.512  19.142  0.00  0.00    +0.000 OA
ATOM     12  H   UNL     1       6.331   4.139  18.714  0.00  0.00    +0.000 HD
ENDBRANCH   4  11
ENDBRANCH   1   3
BRANCH   1  14
ATOM     13  C   UNL     1       6.401   4.982  15.776  0.00  0.00    +0.000 C 
ATOM     14  C   UNL     1       5.289   5.559  16.253  0.00  0.00    +0.000 C 
BRANCH  13  19
ATOM     15  C   UNL     1       5.919   3.435  12.365  0.00  0.00    +0.000 A 
ATOM     16  C   UNL     1       6.949   4.036  11.638  0.00  0.00    +0.000 A 
ATOM     17  C   UNL     1       7.812   4.939  12.252  0.00  0.00    +0.000 A 
ATOM     18  C   UNL     1       7.644   5.250  13.602  0.00  0.00    +0.000 A 
ATOM     19  C   UNL     1       6.596   4.684  14.345  0.00  0.00    +0.000 A 
ATOM     20  C   UNL     1       5.745   3.763  13.715  0.00  0.00    +0.000 A 
BRANCH  15  22
ATOM     21  C   UNL     1       3.954   3.036  11.086  0.00  0.00    +0.000 C 
ATOM     22  O   UNL     1       5.166   2.548  11.646  0.00  0.00    +0.000 OA
ENDBRANCH  15  22
ENDBRANCH  13  19
ENDBRANCH   1  14
TORSDOF 5
ENDMDL
MODEL 9
REMARK VINA RESULT:      -7.2      5.524      7.444
REMARK  Name = 
REMARK  7 active torsions:
REMARK  status: ('A' for Active; 'I' for Inactive)
REMARK    1  A    between atoms: C_1  and  O_2
REMARK    2  A    between atoms: O_2  and  C_3
REMARK    3  A    between atoms: C_7  and  C_8
REMARK    4  A    between atoms: C_9  and  C_10
REMARK    5  A    between atoms: C_10  and  C_12
REMARK    6  A    between atoms: C_13  and  O_14
REMARK    7  A    between atoms: C_16  and  C_17
REMARK                            x       y       z     vdW  Elec       q    Type
REMARK                         _______ _______ _______ _____ _____    ______ ____
ROOT
ATOM      1  C   UNL     1       3.273   4.191  19.731  0.00  0.00    +0.000 C 
ATOM      2  O   UNL     1       3.365   3.287  20.562  0.00  0.00    +0.000 OA
ENDROOT
BRANCH   1   3
ATOM      3  C   UNL     1       4.119   4.196  18.503  0.00  0.00    +0.000 A 
ATOM      4  C   UNL     1       5.420   4.531  18.612  0.00  0.00    +0.000 A 
ATOM      5  C   UNL     1       6.270   4.621  17.458  0.00  0.00    +0.000 A 
ATOM      6  C   UNL     1       5.771   4.347  16.248  0.00  0.00    +0.000 A 
ATOM      7  C   UNL     1       6.534   4.415  14.967  0.00  0.00    +0.000 C 
ATOM      8  O   UNL     1       4.428   3.947  16.091  0.00  0.00    +0.000 OA
ATOM      9  C   UNL     1       3.591   3.824  17.167  0.00  0.00    +0.000 A 
ATOM     10  O   UNL     1       2.445   3.413  17.008  0.00  0.00    +0.000 OA
BRANCH   4  11
ATOM     11  O   UNL     1       6.071   4.842  19.786  0.00  0.00    +0.000 OA
ATOM     12  H   UNL     1       5.400   4.995  20.489  0.00  0.00    +0.000 HD
ENDBRANCH   4  11
ENDBRANCH   1   3
BRANCH   1  14
ATOM     13  C   UNL     1       2.726   6.599  19.553  0.00  0.00    +0.000 C 
ATOM     14  C   UNL     1       2.387   5.363  19.946  0.00  0.00    +0.000 C 
BRANCH  13  19
ATOM     15  C   UNL     1       0.423   8.989  21.355  0.00  0.00    +0.000 A 
ATOM     16  C   UNL     1       0.241   9.982  20.391  0.00  0.00    +0.000 A 
ATOM     17  C   UNL     1       0.856   9.878  19.147  0.00  0.00    +0.000 A 
ATOM     18  C   UNL     1       1.664   8.777  18.863  0.00  0.00    +0.000 A 
ATOM     19  C   UNL     1       1.889   7.782  19.827  0.00  0.00    +0.000 A 
ATOM     20  C   UNL     1       1.247   7.894  21.071  0.00  0.00    +0.000 A 
BRANCH  15  22
ATOM     21  C   UNL     1      -0.679  10.535  22.788  0.00  0.00    +0.000 C 
ATOM     22  O   UNL     1      -0.262   9.203  22.520  0.00  0.00    +0.000 OA
ENDBRANCH  15  22
ENDBRANCH  13  19
ENDBRANCH   1  14
TORSDOF 5
ENDMDL
