MODEL 1
REMARK VINA RESULT:      -8.3      0.000      0.000
REMARK  Name = 
REMARK  13 active torsions:
REMARK  status: ('A' for Active; 'I' for Inactive)
REMARK    1  A    between atoms: C_1  and  O_2
REMARK    2  A    between atoms: O_2  and  C_3
REMARK    3  A    between atoms: C_8  and  C_9
REMARK    4  A    between atoms: C_8  and  C_13
REMARK    5  A    between atoms: C_9  and  C_10
REMARK    6  A    between atoms: C_10  and  C_11
REMARK    7  A    between atoms: C_11  and  O_12
REMARK    8  A    between atoms: C_13  and  C_14
REMARK    9  A    between atoms: C_18  and  C_19
REMARK   10  A    between atoms: C_19  and  C_20
REMARK   11  A    between atoms: C_19  and  N_23
REMARK   12  A    between atoms: C_20  and  C_21
REMARK   13  A    between atoms: C_28  and  C_29
REMARK                            x       y       z     vdW  Elec       q    Type
REMARK                         _______ _______ _______ _____ _____    ______ ____
ROOT
ATOM      1  C   UNL     1       2.050   6.923  19.026  0.00  0.00    +0.000 A 
ATOM      2  C   UNL     1       1.909   6.756  20.410  0.00  0.00    +0.000 A 
ATOM      3  C   UNL     1       1.394   7.782  21.199  0.00  0.00    +0.000 A 
ATOM      4  C   UNL     1       1.069   9.009  20.624  0.00  0.00    +0.000 A 
ATOM      5  C   UNL     1       1.303   9.246  19.262  0.00  0.00    +0.000 A 
ATOM      6  C   UNL     1       1.806   8.191  18.475  0.00  0.00    +0.000 A 
ENDROOT
BRANCH   1   7
ATOM      7  C   UNL     1       2.460   5.752  18.161  0.00  0.00    +0.000 C 
BRANCH   7  13
ATOM      8  C   UNL     1       6.686   4.878  15.190  0.00  0.00    +0.000 C 
ATOM      9  O   UNL     1       7.610   5.683  15.147  0.00  0.00    +0.000 OA
ATOM     10  N   UNL     1       5.608   4.998  16.041  0.00  0.00    +0.000 N 
ATOM     11  C   UNL     1       5.433   6.237  16.771  0.00  0.00    +0.000 C 
ATOM     12  C   UNL     1       5.055   5.962  18.217  0.00  0.00    +0.000 C 
ATOM     13  C   UNL     1       3.832   5.019  18.403  0.00  0.00    +0.000 C 
ATOM     14  C   UNL     1       4.038   3.770  17.503  0.00  0.00    +0.000 C 
ATOM     15  C   UNL     1       4.498   4.058  16.070  0.00  0.00    +0.000 C 
BRANCH   8  17
ATOM     16  C   UNL     1       6.507   4.020  13.023  0.00  0.00    +0.000 C 
ATOM     17  O   UNL     1       6.620   3.762  14.419  0.00  0.00    +0.000 OA
ENDBRANCH   8  17
BRANCH  13  18
ATOM     18  C   UNL     1       3.877   4.569  19.915  0.00  0.00    +0.000 C 
BRANCH  18  19
ATOM     19  C   UNL     1       3.363   3.158  20.219  0.00  0.00    +0.000 C 
BRANCH  19  20
ATOM     20  C   UNL     1       1.979   3.176  20.860  0.00  0.00    +0.000 C 
BRANCH  20  21
ATOM     21  O   UNL     1       2.116   3.124  22.275  0.00  0.00    +0.000 OA
ATOM     22  H   UNL     1       3.043   2.908  22.476  0.00  0.00    +0.000 HD
ENDBRANCH  20  21
ENDBRANCH  19  20
ENDBRANCH  18  19
ENDBRANCH  13  18
ENDBRANCH   7  13
ENDBRANCH   1   7
BRANCH   5  23
ATOM     23  C   UNL     1       1.087  10.629  18.651  0.00  0.00    +0.000 C 
BRANCH  23  24
ATOM     24  N   UNL     1       0.016  10.527  17.642  0.00  0.00    +0.000 N 
ATOM     25  C   UNL     1      -1.235  10.966  17.895  0.00  0.00    +0.000 A 
ATOM     26  N   UNL     1      -1.735  11.456  19.001  0.00  0.00    +0.000 NA
ATOM     27  C   UNL     1      -3.046  11.715  18.727  0.00  0.00    +0.000 A 
ATOM     28  N   UNL     1      -3.934  12.243  19.596  0.00  0.00    +0.000 NA
ATOM     29  C   UNL     1      -5.186  12.388  19.110  0.00  0.00    +0.000 A 
ATOM     30  C   UNL     1      -6.203  12.972  20.049  0.00  0.00    +0.000 C 
ATOM     31  C   UNL     1      -5.579  12.031  17.814  0.00  0.00    +0.000 A 
ATOM     32  C   UNL     1      -4.651  11.500  16.918  0.00  0.00    +0.000 A 
ATOM     33  C   UNL     1      -3.369  11.362  17.424  0.00  0.00    +0.000 A 
ATOM     34  N   UNL     1      -2.185  10.900  16.909  0.00  0.00    +0.000 N 
ATOM     35  H   UNL     1       0.377  10.635  16.700  0.00  0.00    +0.000 HD
ATOM     36  H   UNL     1      -2.040  10.527  15.986  0.00  0.00    +0.000 HD
ENDBRANCH  23  24
BRANCH  23  37
ATOM     37  C   UNL     1       2.373  11.353  18.208  0.00  0.00    +0.000 C 
BRANCH  37  38
ATOM     38  C   UNL     1       2.277  12.808  18.447  0.00  0.00    +0.000 C 
ATOM     39  N   UNL     1       2.235  13.956  18.598  0.00  0.00    +0.000 NA
ENDBRANCH  37  38
ENDBRANCH  23  37
ENDBRANCH   5  23
TORSDOF 11
ENDMDL
MODEL 2
REMARK VINA RESULT:      -8.2      2.952      4.158
REMARK  Name = 
REMARK  13 active torsions:
REMARK  status: ('A' for Active; 'I' for Inactive)
REMARK    1  A    between atoms: C_1  and  O_2
REMARK    2  A    between atoms: O_2  and  C_3
REMARK    3  A    between atoms: C_8  and  C_9
REMARK    4  A    between atoms: C_8  and  C_13
REMARK    5  A    between atoms: C_9  and  C_10
REMARK    6  A    between atoms: C_10  and  C_11
REMARK    7  A    between atoms: C_11  and  O_12
REMARK    8  A    between atoms: C_13  and  C_14
REMARK    9  A    between atoms: C_18  and  C_19
REMARK   10  A    between atoms: C_19  and  C_20
REMARK   11  A    between atoms: C_19  and  N_23
REMARK   12  A    between atoms: C_20  and  C_21
REMARK   13  A    between atoms: C_28  and  C_29
REMARK                            x       y       z     vdW  Elec       q    Type
REMARK                         _______ _______ _______ _____ _____    ______ ____
ROOT
ATOM      1  C   UNL     1       2.256   7.357  19.352  0.00  0.00    +0.000 A 
ATOM      2  C   UNL     1       2.178   7.635  17.981  0.00  0.00    +0.000 A 
ATOM      3  C   UNL     1       1.651   8.844  17.532  0.00  0.00    +0.000 A 
ATOM      4  C   UNL     1       1.141   9.765  18.444  0.00  0.00    +0.000 A 
ATOM      5  C   UNL     1       1.101   9.470  19.815  0.00  0.00    +0.000 A 
ATOM      6  C   UNL     1       1.655   8.251  20.253  0.00  0.00    +0.000 A 
ENDROOT
BRANCH   1   7
ATOM      7  C   UNL     1       2.971   6.115  19.833  0.00  0.00    +0.000 C 
BRANCH   7  13
ATOM      8  C   UNL     1       7.288   4.900  17.125  0.00  0.00    +0.000 C 
ATOM      9  O   UNL     1       8.159   4.180  17.604  0.00  0.00    +0.000 OA
ATOM     10  N   UNL     1       6.083   5.156  17.742  0.00  0.00    +0.000 N 
ATOM     11  C   UNL     1       5.904   4.739  19.118  0.00  0.00    +0.000 C 
ATOM     12  C   UNL     1       4.539   4.101  19.315  0.00  0.00    +0.000 C 
ATOM     13  C   UNL     1       3.340   4.962  18.825  0.00  0.00    +0.000 C 
ATOM     14  C   UNL     1       3.656   5.466  17.390  0.00  0.00    +0.000 C 
ATOM     15  C   UNL     1       5.065   6.034  17.185  0.00  0.00    +0.000 C 
BRANCH   8  17
ATOM     16  C   UNL     1       7.085   4.689  14.806  0.00  0.00    +0.000 C 
ATOM     17  O   UNL     1       7.399   5.518  15.920  0.00  0.00    +0.000 OA
ENDBRANCH   8  17
BRANCH  13  18
ATOM     18  C   UNL     1       2.113   3.971  18.757  0.00  0.00    +0.000 C 
BRANCH  18  19
ATOM     19  C   UNL     1       2.128   2.805  19.750  0.00  0.00    +0.000 C 
BRANCH  19  20
ATOM     20  C   UNL     1       1.199   3.046  20.936  0.00  0.00    +0.000 C 
BRANCH  20  21
ATOM     21  O   UNL     1       1.821   2.570  22.124  0.00  0.00    +0.000 OA
ATOM     22  H   UNL     1       1.447   1.695  22.325  0.00  0.00    +0.000 HD
ENDBRANCH  20  21
ENDBRANCH  19  20
ENDBRANCH  18  19
ENDBRANCH  13  18
ENDBRANCH   7  13
ENDBRANCH   1   7
BRANCH   5  23
ATOM     23  C   UNL     1       0.414  10.406  20.806  0.00  0.00    +0.000 C 
BRANCH  23  24
ATOM     24  N   UNL     1       1.328  11.529  21.090  0.00  0.00    +0.000 N 
ATOM     25  C   UNL     1       1.120  12.757  20.570  0.00  0.00    +0.000 A 
ATOM     26  N   UNL     1       0.202  13.156  19.726  0.00  0.00    +0.000 NA
ATOM     27  C   UNL     1       0.457  14.478  19.506  0.00  0.00    +0.000 A 
ATOM     28  N   UNL     1      -0.264  15.287  18.701  0.00  0.00    +0.000 NA
ATOM     29  C   UNL     1       0.191  16.557  18.617  0.00  0.00    +0.000 A 
ATOM     30  C   UNL     1      -0.586  17.487  17.729  0.00  0.00    +0.000 C 
ATOM     31  C   UNL     1       1.318  17.039  19.293  0.00  0.00    +0.000 A 
ATOM     32  C   UNL     1       2.049  16.201  20.135  0.00  0.00    +0.000 A 
ATOM     33  C   UNL     1       1.569  14.903  20.218  0.00  0.00    +0.000 A 
ATOM     34  N   UNL     1       1.964  13.784  20.904  0.00  0.00    +0.000 N 
ATOM     35  H   UNL     1       1.717  11.468  22.025  0.00  0.00    +0.000 HD
ATOM     36  H   UNL     1       2.764  13.704  21.509  0.00  0.00    +0.000 HD
ENDBRANCH  23  24
BRANCH  23  37
ATOM     37  C   UNL     1      -0.214   9.713  22.030  0.00  0.00    +0.000 C 
BRANCH  37  38
ATOM     38  C   UNL     1      -0.993  10.667  22.845  0.00  0.00    +0.000 C 
ATOM     39  N   UNL     1      -1.603  11.383  23.522  0.00  0.00    +0.000 NA
ENDBRANCH  37  38
ENDBRANCH  23  37
ENDBRANCH   5  23
TORSDOF 11
ENDMDL
MODEL 3
REMARK VINA RESULT:      -8.0      3.038      4.245
REMARK  Name = 
REMARK  13 active torsions:
REMARK  status: ('A' for Active; 'I' for Inactive)
REMARK    1  A    between atoms: C_1  and  O_2
REMARK    2  A    between atoms: O_2  and  C_3
REMARK    3  A    between atoms: C_8  and  C_9
REMARK    4  A    between atoms: C_8  and  C_13
REMARK    5  A    between atoms: C_9  and  C_10
REMARK    6  A    between atoms: C_10  and  C_11
REMARK    7  A    between atoms: C_11  and  O_12
REMARK    8  A    between atoms: C_13  and  C_14
REMARK    9  A    between atoms: C_18  and  C_19
REMARK   10  A    between atoms: C_19  and  C_20
REMARK   11  A    between atoms: C_19  and  N_23
REMARK   12  A    between atoms: C_20  and  C_21
REMARK   13  A    between atoms: C_28  and  C_29
REMARK                            x       y       z     vdW  Elec       q    Type
REMARK                         _______ _______ _______ _____ _____    ______ ____
ROOT
ATOM      1  C   UNL     1       2.337   7.534  19.335  0.00  0.00    +0.000 A 
ATOM      2  C   UNL     1       2.336   7.902  17.983  0.00  0.00    +0.000 A 
ATOM      3  C   UNL     1       1.709   9.074  17.569  0.00  0.00    +0.000 A 
ATOM      4  C   UNL     1       1.023   9.863  18.490  0.00  0.00    +0.000 A 
ATOM      5  C   UNL     1       0.909   9.465  19.830  0.00  0.00    +0.000 A 
ATOM      6  C   UNL     1       1.566   8.286  20.236  0.00  0.00    +0.000 A 
ENDROOT
BRANCH   1   7
ATOM      7  C   UNL     1       3.153   6.347  19.795  0.00  0.00    +0.000 C 
BRANCH   7  13
ATOM      8  C   UNL     1       7.319   4.957  16.940  0.00  0.00    +0.000 C 
ATOM      9  O   UNL     1       8.198   4.238  17.405  0.00  0.00    +0.000 OA
ATOM     10  N   UNL     1       6.148   5.257  17.601  0.00  0.00    +0.000 N 
ATOM     11  C   UNL     1       6.026   4.892  18.998  0.00  0.00    +0.000 C 
ATOM     12  C   UNL     1       4.660   4.287  19.279  0.00  0.00    +0.000 C 
ATOM     13  C   UNL     1       3.455   5.153  18.814  0.00  0.00    +0.000 C 
ATOM     14  C   UNL     1       3.714   5.601  17.348  0.00  0.00    +0.000 C 
ATOM     15  C   UNL     1       5.121   6.134  17.060  0.00  0.00    +0.000 C 
BRANCH   8  17
ATOM     16  C   UNL     1       7.113   4.639  14.633  0.00  0.00    +0.000 C 
ATOM     17  O   UNL     1       7.385   5.531  15.710  0.00  0.00    +0.000 OA
ENDBRANCH   8  17
BRANCH  13  18
ATOM     18  C   UNL     1       2.209   4.184  18.837  0.00  0.00    +0.000 C 
BRANCH  18  19
ATOM     19  C   UNL     1       2.494   2.722  19.196  0.00  0.00    +0.000 C 
BRANCH  19  20
ATOM     20  C   UNL     1       2.721   1.858  17.959  0.00  0.00    +0.000 C 
BRANCH  20  21
ATOM     21  O   UNL     1       3.963   1.175  18.085  0.00  0.00    +0.000 OA
ATOM     22  H   UNL     1       4.212   0.847  17.203  0.00  0.00    +0.000 HD
ENDBRANCH  20  21
ENDBRANCH  19  20
ENDBRANCH  18  19
ENDBRANCH  13  18
ENDBRANCH   7  13
ENDBRANCH   1   7
BRANCH   5  23
ATOM     23  C   UNL     1       0.041  10.243  20.815  0.00  0.00    +0.000 C 
BRANCH  23  24
ATOM     24  N   UNL     1       0.824  11.387  21.318  0.00  0.00    +0.000 N 
ATOM     25  C   UNL     1       0.687  12.622  20.790  0.00  0.00    +0.000 A 
ATOM     26  N   UNL     1      -0.038  13.014  19.773  0.00  0.00    +0.000 NA
ATOM     27  C   UNL     1       0.207  14.350  19.642  0.00  0.00    +0.000 A 
ATOM     28  N   UNL     1      -0.350  15.156  18.715  0.00  0.00    +0.000 NA
ATOM     29  C   UNL     1       0.061  16.443  18.760  0.00  0.00    +0.000 A 
ATOM     30  C   UNL     1      -0.537  17.371  17.742  0.00  0.00    +0.000 C 
ATOM     31  C   UNL     1       0.992  16.944  19.678  0.00  0.00    +0.000 A 
ATOM     32  C   UNL     1       1.552  16.106  20.643  0.00  0.00    +0.000 A 
ATOM     33  C   UNL     1       1.118  14.791  20.592  0.00  0.00    +0.000 A 
ATOM     34  N   UNL     1       1.396  13.666  21.324  0.00  0.00    +0.000 N 
ATOM     35  H   UNL     1       0.999  11.313  22.315  0.00  0.00    +0.000 HD
ATOM     36  H   UNL     1       2.045  13.597  22.090  0.00  0.00    +0.000 HD
ENDBRANCH  23  24
BRANCH  23  37
ATOM     37  C   UNL     1      -0.668   9.383  21.880  0.00  0.00    +0.000 C 
BRANCH  37  38
ATOM     38  C   UNL     1       0.039   9.445  23.176  0.00  0.00    +0.000 C 
ATOM     39  N   UNL     1       0.611   9.447  24.183  0.00  0.00    +0.000 NA
ENDBRANCH  37  38
ENDBRANCH  23  37
ENDBRANCH   5  23
TORSDOF 11
ENDMDL
MODEL 4
REMARK VINA RESULT:      -7.9      1.179      1.285
REMARK  Name = 
REMARK  13 active torsions:
REMARK  status: ('A' for Active; 'I' for Inactive)
REMARK    1  A    between atoms: C_1  and  O_2
REMARK    2  A    between atoms: O_2  and  C_3
REMARK    3  A    between atoms: C_8  and  C_9
REMARK    4  A    between atoms: C_8  and  C_13
REMARK    5  A    between atoms: C_9  and  C_10
REMARK    6  A    between atoms: C_10  and  C_11
REMARK    7  A    between atoms: C_11  and  O_12
REMARK    8  A    between atoms: C_13  and  C_14
REMARK    9  A    between atoms: C_18  and  C_19
REMARK   10  A    between atoms: C_19  and  C_20
REMARK   11  A    between atoms: C_19  and  N_23
REMARK   12  A    between atoms: C_20  and  C_21
REMARK   13  A    between atoms: C_28  and  C_29
REMARK                            x       y       z     vdW  Elec       q    Type
REMARK                         _______ _______ _______ _____ _____    ______ ____
ROOT
ATOM      1  C   UNL     1       1.836   8.063  19.112  0.00  0.00    +0.000 A 
ATOM      2  C   UNL     1       1.794   7.747  20.477  0.00  0.00    +0.000 A 
ATOM      3  C   UNL     1       1.232   8.633  21.393  0.00  0.00    +0.000 A 
ATOM      4  C   UNL     1       0.760   9.873  20.966  0.00  0.00    +0.000 A 
ATOM      5  C   UNL     1       0.890  10.266  19.626  0.00  0.00    +0.000 A 
ATOM      6  C   UNL     1       1.443   9.350  18.710  0.00  0.00    +0.000 A 
ENDROOT
BRANCH   1   7
ATOM      7  C   UNL     1       2.302   7.031  18.111  0.00  0.00    +0.000 C 
BRANCH   7  13
ATOM      8  C   UNL     1       6.669   4.466  16.770  0.00  0.00    +0.000 C 
ATOM      9  O   UNL     1       7.740   4.703  17.320  0.00  0.00    +0.000 OA
ATOM     10  N   UNL     1       5.470   5.023  17.161  0.00  0.00    +0.000 N 
ATOM     11  C   UNL     1       5.487   6.104  18.125  0.00  0.00    +0.000 C 
ATOM     12  C   UNL     1       4.401   5.911  19.170  0.00  0.00    +0.000 C 
ATOM     13  C   UNL     1       2.973   5.691  18.593  0.00  0.00    +0.000 C 
ATOM     14  C   UNL     1       3.056   4.602  17.488  0.00  0.00    +0.000 C 
ATOM     15  C   UNL     1       4.206   4.764  16.488  0.00  0.00    +0.000 C 
BRANCH   8  17
ATOM     16  C   UNL     1       6.767   4.210  14.448  0.00  0.00    +0.000 C 
ATOM     17  O   UNL     1       6.531   3.615  15.721  0.00  0.00    +0.000 OA
ENDBRANCH   8  17
BRANCH  13  18
ATOM     18  C   UNL     1       2.118   5.131  19.796  0.00  0.00    +0.000 C 
BRANCH  18  19
ATOM     19  C   UNL     1       2.702   3.925  20.539  0.00  0.00    +0.000 C 
BRANCH  19  20
ATOM     20  C   UNL     1       1.796   2.700  20.450  0.00  0.00    +0.000 C 
BRANCH  20  21
ATOM     21  O   UNL     1       0.438   3.122  20.411  0.00  0.00    +0.000 OA
ATOM     22  H   UNL     1       0.179   3.204  19.477  0.00  0.00    +0.000 HD
ENDBRANCH  20  21
ENDBRANCH  19  20
ENDBRANCH  18  19
ENDBRANCH  13  18
ENDBRANCH   7  13
ENDBRANCH   1   7
BRANCH   5  23
ATOM     23  C   UNL     1       0.510  11.675  19.176  0.00  0.00    +0.000 C 
BRANCH  23  24
ATOM     24  N   UNL     1      -0.435  11.560  18.049  0.00  0.00    +0.000 N 
ATOM     25  C   UNL     1      -1.765  11.711  18.226  0.00  0.00    +0.000 A 
ATOM     26  N   UNL     1      -2.439  11.895  19.333  0.00  0.00    +0.000 NA
ATOM     27  C   UNL     1      -3.749  11.954  18.958  0.00  0.00    +0.000 A 
ATOM     28  N   UNL     1      -4.791  12.147  19.795  0.00  0.00    +0.000 NA
ATOM     29  C   UNL     1      -6.005  12.145  19.201  0.00  0.00    +0.000 A 
ATOM     30  C   UNL     1      -7.189  12.355  20.101  0.00  0.00    +0.000 C 
ATOM     31  C   UNL     1      -6.213  11.959  17.829  0.00  0.00    +0.000 A 
ATOM     32  C   UNL     1      -5.130  11.776  16.969  0.00  0.00    +0.000 A 
ATOM     33  C   UNL     1      -3.890  11.787  17.588  0.00  0.00    +0.000 A 
ATOM     34  N   UNL     1      -2.601  11.649  17.142  0.00  0.00    +0.000 N 
ATOM     35  H   UNL     1      -0.029  11.899  17.183  0.00  0.00    +0.000 HD
ATOM     36  H   UNL     1      -2.311  11.480  16.194  0.00  0.00    +0.000 HD
ENDBRANCH  23  24
BRANCH  23  37
ATOM     37  C   UNL     1       1.697  12.637  18.973  0.00  0.00    +0.000 C 
BRANCH  37  38
ATOM     38  C   UNL     1       1.243  14.041  18.904  0.00  0.00    +0.000 C 
ATOM     39  N   UNL     1       0.841  15.126  18.862  0.00  0.00    +0.000 NA
ENDBRANCH  37  38
ENDBRANCH  23  37
ENDBRANCH   5  23
TORSDOF 11
ENDMDL
MODEL 5
REMARK VINA RESULT:      -7.7      2.987      3.927
REMARK  Name = 
REMARK  13 active torsions:
REMARK  status: ('A' for Active; 'I' for Inactive)
REMARK    1  A    between atoms: C_1  and  O_2
REMARK    2  A    between atoms: O_2  and  C_3
REMARK    3  A    between atoms: C_8  and  C_9
REMARK    4  A    between atoms: C_8  and  C_13
REMARK    5  A    between atoms: C_9  and  C_10
REMARK    6  A    between atoms: C_10  and  C_11
REMARK    7  A    between atoms: C_11  and  O_12
REMARK    8  A    between atoms: C_13  and  C_14
REMARK    9  A    between atoms: C_18  and  C_19
REMARK   10  A    between atoms: C_19  and  C_20
REMARK   11  A    between atoms: C_19  and  N_23
REMARK   12  A    between atoms: C_20  and  C_21
REMARK   13  A    between atoms: C_28  and  C_29
REMARK                            x       y       z     vdW  Elec       q    Type
REMARK                         _______ _______ _______ _____ _____    ______ ____
ROOT
ATOM      1  C   UNL     1       2.309   7.771  19.302  0.00  0.00    +0.000 A 
ATOM      2  C   UNL     1       2.368   8.317  18.013  0.00  0.00    +0.000 A 
ATOM      3  C   UNL     1       1.668   9.480  17.703  0.00  0.00    +0.000 A 
ATOM      4  C   UNL     1       0.851  10.080  18.660  0.00  0.00    +0.000 A 
ATOM      5  C   UNL     1       0.682   9.496  19.924  0.00  0.00    +0.000 A 
ATOM      6  C   UNL     1       1.413   8.331  20.227  0.00  0.00    +0.000 A 
ENDROOT
BRANCH   1   7
ATOM      7  C   UNL     1       3.195   6.603  19.670  0.00  0.00    +0.000 C 
BRANCH   7  13
ATOM      8  C   UNL     1       7.298   4.941  16.866  0.00  0.00    +0.000 C 
ATOM      9  O   UNL     1       8.099   4.136  17.328  0.00  0.00    +0.000 OA
ATOM     10  N   UNL     1       6.140   5.322  17.511  0.00  0.00    +0.000 N 
ATOM     11  C   UNL     1       5.952   4.928  18.892  0.00  0.00    +0.000 C 
ATOM     12  C   UNL     1       4.533   4.436  19.123  0.00  0.00    +0.000 C 
ATOM     13  C   UNL     1       3.418   5.417  18.658  0.00  0.00    +0.000 C 
ATOM     14  C   UNL     1       3.751   5.883  17.214  0.00  0.00    +0.000 C 
ATOM     15  C   UNL     1       5.206   6.300  16.974  0.00  0.00    +0.000 C 
BRANCH   8  17
ATOM     16  C   UNL     1       6.935   4.787  14.562  0.00  0.00    +0.000 C 
ATOM     17  O   UNL     1       7.443   5.543  15.657  0.00  0.00    +0.000 OA
ENDBRANCH   8  17
BRANCH  13  18
ATOM     18  C   UNL     1       2.094   4.558  18.623  0.00  0.00    +0.000 C 
BRANCH  18  19
ATOM     19  C   UNL     1       2.134   3.220  19.366  0.00  0.00    +0.000 C 
BRANCH  19  20
ATOM     20  C   UNL     1       1.751   2.049  18.466  0.00  0.00    +0.000 C 
BRANCH  20  21
ATOM     21  O   UNL     1       0.333   1.957  18.392  0.00  0.00    +0.000 OA
ATOM     22  H   UNL     1      -0.026   2.860  18.441  0.00  0.00    +0.000 HD
ENDBRANCH  20  21
ENDBRANCH  19  20
ENDBRANCH  18  19
ENDBRANCH  13  18
ENDBRANCH   7  13
ENDBRANCH   1   7
BRANCH   5  23
ATOM     23  C   UNL     1      -0.319  10.062  20.929  0.00  0.00    +0.000 C 
BRANCH  23  24
ATOM     24  N   UNL     1       0.163  11.386  21.366  0.00  0.00    +0.000 N 
ATOM     25  C   UNL     1      -0.692  12.346  21.780  0.00  0.00    +0.000 A 
ATOM     26  N   UNL     1      -2.001  12.337  21.806  0.00  0.00    +0.000 NA
ATOM     27  C   UNL     1      -2.366  13.561  22.284  0.00  0.00    +0.000 A 
ATOM     28  N   UNL     1      -3.635  13.973  22.483  0.00  0.00    +0.000 NA
ATOM     29  C   UNL     1      -3.758  15.238  22.942  0.00  0.00    +0.000 A 
ATOM     30  C   UNL     1      -5.157  15.732  23.174  0.00  0.00    +0.000 C 
ATOM     31  C   UNL     1      -2.679  16.092  23.203  0.00  0.00    +0.000 A 
ATOM     32  C   UNL     1      -1.369  15.653  23.009  0.00  0.00    +0.000 A 
ATOM     33  C   UNL     1      -1.256  14.352  22.545  0.00  0.00    +0.000 A 
ATOM     34  N   UNL     1      -0.196  13.542  22.228  0.00  0.00    +0.000 N 
ATOM     35  H   UNL     1       1.066  11.324  21.824  0.00  0.00    +0.000 HD
ATOM     36  H   UNL     1       0.778  13.790  22.265  0.00  0.00    +0.000 HD
ENDBRANCH  23  24
BRANCH  23  37
ATOM     37  C   UNL     1      -0.742   9.088  22.046  0.00  0.00    +0.000 C 
BRANCH  37  38
ATOM     38  C   UNL     1       0.066   9.290  23.266  0.00  0.00    +0.000 C 
ATOM     39  N   UNL     1       0.740   9.451  24.194  0.00  0.00    +0.000 NA
ENDBRANCH  37  38
ENDBRANCH  23  37
ENDBRANCH   5  23
TORSDOF 11
ENDMDL
MODEL 6
REMARK VINA RESULT:      -7.7      1.482      3.606
REMARK  Name = 
REMARK  13 active torsions:
REMARK  status: ('A' for Active; 'I' for Inactive)
REMARK    1  A    between atoms: C_1  and  O_2
REMARK    2  A    between atoms: O_2  and  C_3
REMARK    3  A    between atoms: C_8  and  C_9
REMARK    4  A    between atoms: C_8  and  C_13
REMARK    5  A    between atoms: C_9  and  C_10
REMARK    6  A    between atoms: C_10  and  C_11
REMARK    7  A    between atoms: C_11  and  O_12
REMARK    8  A    between atoms: C_13  and  C_14
REMARK    9  A    between atoms: C_18  and  C_19
REMARK   10  A    between atoms: C_19  and  C_20
REMARK   11  A    between atoms: C_19  and  N_23
REMARK   12  A    between atoms: C_20  and  C_21
REMARK   13  A    between atoms: C_28  and  C_29
REMARK                            x       y       z     vdW  Elec       q    Type
REMARK                         _______ _______ _______ _____ _____    ______ ____
ROOT
ATOM      1  C   UNL     1       1.884   7.275  18.977  0.00  0.00    +0.000 A 
ATOM      2  C   UNL     1       1.867   7.061  20.361  0.00  0.00    +0.000 A 
ATOM      3  C   UNL     1       1.399   8.048  21.226  0.00  0.00    +0.000 A 
ATOM      4  C   UNL     1       0.999   9.284  20.723  0.00  0.00    +0.000 A 
ATOM      5  C   UNL     1       1.109   9.571  19.355  0.00  0.00    +0.000 A 
ATOM      6  C   UNL     1       1.566   8.554  18.492  0.00  0.00    +0.000 A 
ENDROOT
BRANCH   1   7
ATOM      7  C   UNL     1       2.243   6.144  18.041  0.00  0.00    +0.000 C 
BRANCH   7  13
ATOM      8  C   UNL     1       4.566   1.796  19.816  0.00  0.00    +0.000 C 
ATOM      9  O   UNL     1       4.607   0.775  19.138  0.00  0.00    +0.000 OA
ATOM     10  N   UNL     1       4.075   2.999  19.356  0.00  0.00    +0.000 N 
ATOM     11  C   UNL     1       3.372   3.025  18.089  0.00  0.00    +0.000 C 
ATOM     12  C   UNL     1       3.810   4.218  17.255  0.00  0.00    +0.000 C 
ATOM     13  C   UNL     1       3.716   5.591  17.980  0.00  0.00    +0.000 C 
ATOM     14  C   UNL     1       4.387   5.451  19.375  0.00  0.00    +0.000 C 
ATOM     15  C   UNL     1       3.999   4.202  20.172  0.00  0.00    +0.000 C 
BRANCH   8  17
ATOM     16  C   UNL     1       5.578   0.660  21.590  0.00  0.00    +0.000 C 
ATOM     17  O   UNL     1       5.014   1.871  21.096  0.00  0.00    +0.000 OA
ENDBRANCH   8  17
BRANCH  13  18
ATOM     18  C   UNL     1       4.569   6.587  17.103  0.00  0.00    +0.000 C 
BRANCH  18  19
ATOM     19  C   UNL     1       5.410   5.958  15.988  0.00  0.00    +0.000 C 
BRANCH  19  20
ATOM     20  C   UNL     1       6.877   5.814  16.384  0.00  0.00    +0.000 C 
BRANCH  20  21
ATOM     21  O   UNL     1       7.653   5.546  15.222  0.00  0.00    +0.000 OA
ATOM     22  H   UNL     1       7.156   4.918  14.671  0.00  0.00    +0.000 HD
ENDBRANCH  20  21
ENDBRANCH  19  20
ENDBRANCH  18  19
ENDBRANCH  13  18
ENDBRANCH   7  13
ENDBRANCH   1   7
BRANCH   5  23
ATOM     23  C   UNL     1       0.812  10.967  18.813  0.00  0.00    +0.000 C 
BRANCH  23  24
ATOM     24  N   UNL     1      -0.266  10.853  17.811  0.00  0.00    +0.000 N 
ATOM     25  C   UNL     1      -1.528  11.245  18.087  0.00  0.00    +0.000 A 
ATOM     26  N   UNL     1      -2.033  11.691  19.210  0.00  0.00    +0.000 NA
ATOM     27  C   UNL     1      -3.354  11.914  18.954  0.00  0.00    +0.000 A 
ATOM     28  N   UNL     1      -4.250  12.391  19.844  0.00  0.00    +0.000 NA
ATOM     29  C   UNL     1      -5.511  12.507  19.374  0.00  0.00    +0.000 A 
ATOM     30  C   UNL     1      -6.537  13.033  20.337  0.00  0.00    +0.000 C 
ATOM     31  C   UNL     1      -5.905  12.168  18.074  0.00  0.00    +0.000 A 
ATOM     32  C   UNL     1      -4.970  11.690  17.156  0.00  0.00    +0.000 A 
ATOM     33  C   UNL     1      -3.679  11.582  17.646  0.00  0.00    +0.000 A 
ATOM     34  N   UNL     1      -2.486  11.172  17.109  0.00  0.00    +0.000 N 
ATOM     35  H   UNL     1       0.081  10.996  16.869  0.00  0.00    +0.000 HD
ATOM     36  H   UNL     1      -2.338  10.826  16.176  0.00  0.00    +0.000 HD
ENDBRANCH  23  24
BRANCH  23  37
ATOM     37  C   UNL     1       2.051  11.780  18.390  0.00  0.00    +0.000 C 
BRANCH  37  38
ATOM     38  C   UNL     1       1.842  13.226  18.608  0.00  0.00    +0.000 C 
ATOM     39  N   UNL     1       1.669  14.365  18.730  0.00  0.00    +0.000 NA
ENDBRANCH  37  38
ENDBRANCH  23  37
ENDBRANCH   5  23
TORSDOF 11
ENDMDL
MODEL 7
REMARK VINA RESULT:      -7.7      2.767      4.699
REMARK  Name = 
REMARK  13 active torsions:
REMARK  status: ('A' for Active; 'I' for Inactive)
REMARK    1  A    between atoms: C_1  and  O_2
REMARK    2  A    between atoms: O_2  and  C_3
REMARK    3  A    between atoms: C_8  and  C_9
REMARK    4  A    between atoms: C_8  and  C_13
REMARK    5  A    between atoms: C_9  and  C_10
REMARK    6  A    between atoms: C_10  and  C_11
REMARK    7  A    between atoms: C_11  and  O_12
REMARK    8  A    between atoms: C_13  and  C_14
REMARK    9  A    between atoms: C_18  and  C_19
REMARK   10  A    between atoms: C_19  and  C_20
REMARK   11  A    between atoms: C_19  and  N_23
REMARK   12  A    between atoms: C_20  and  C_21
REMARK   13  A    between atoms: C_28  and  C_29
REMARK                            x       y       z     vdW  Elec       q    Type
REMARK                         _______ _______ _______ _____ _____    ______ ____
ROOT
ATOM      1  C   UNL     1       2.345   7.543  19.318  0.00  0.00    +0.000 A 
ATOM      2  C   UNL     1       2.502   7.935  17.982  0.00  0.00    +0.000 A 
ATOM      3  C   UNL     1       1.898   9.098  17.510  0.00  0.00    +0.000 A 
ATOM      4  C   UNL     1       1.082   9.852  18.350  0.00  0.00    +0.000 A 
ATOM      5  C   UNL     1       0.813   9.427  19.659  0.00  0.00    +0.000 A 
ATOM      6  C   UNL     1       1.448   8.258  20.127  0.00  0.00    +0.000 A 
ENDROOT
BRANCH   1   7
ATOM      7  C   UNL     1       3.131   6.369  19.858  0.00  0.00    +0.000 C 
BRANCH   7  13
ATOM      8  C   UNL     1       7.155   4.904  16.842  0.00  0.00    +0.000 C 
ATOM      9  O   UNL     1       8.091   4.256  17.300  0.00  0.00    +0.000 OA
ATOM     10  N   UNL     1       6.019   5.214  17.557  0.00  0.00    +0.000 N 
ATOM     11  C   UNL     1       6.003   4.959  18.983  0.00  0.00    +0.000 C 
ATOM     12  C   UNL     1       4.684   4.330  19.403  0.00  0.00    +0.000 C 
ATOM     13  C   UNL     1       3.417   5.112  18.955  0.00  0.00    +0.000 C 
ATOM     14  C   UNL     1       3.561   5.449  17.445  0.00  0.00    +0.000 C 
ATOM     15  C   UNL     1       4.923   6.007  17.020  0.00  0.00    +0.000 C 
BRANCH   8  17
ATOM     16  C   UNL     1       6.794   4.397  14.588  0.00  0.00    +0.000 C 
ATOM     17  O   UNL     1       7.117   5.378  15.569  0.00  0.00    +0.000 OA
ENDBRANCH   8  17
BRANCH  13  18
ATOM     18  C   UNL     1       2.216   4.103  19.139  0.00  0.00    +0.000 C 
BRANCH  18  19
ATOM     19  C   UNL     1       1.422   4.225  20.443  0.00  0.00    +0.000 C 
BRANCH  19  20
ATOM     20  C   UNL     1       2.118   3.526  21.608  0.00  0.00    +0.000 C 
BRANCH  20  21
ATOM     21  O   UNL     1       1.315   2.438  22.050  0.00  0.00    +0.000 OA
ATOM     22  H   UNL     1       1.728   2.070  22.850  0.00  0.00    +0.000 HD
ENDBRANCH  20  21
ENDBRANCH  19  20
ENDBRANCH  18  19
ENDBRANCH  13  18
ENDBRANCH   7  13
ENDBRANCH   1   7
BRANCH   5  23
ATOM     23  C   UNL     1      -0.192  10.164  20.540  0.00  0.00    +0.000 C 
BRANCH  23  24
ATOM     24  N   UNL     1      -0.329  11.542  20.032  0.00  0.00    +0.000 N 
ATOM     25  C   UNL     1       0.606  12.483  20.284  0.00  0.00    +0.000 A 
ATOM     26  N   UNL     1       1.685  12.404  21.022  0.00  0.00    +0.000 NA
ATOM     27  C   UNL     1       2.260  13.640  20.963  0.00  0.00    +0.000 A 
ATOM     28  N   UNL     1       3.407  13.996  21.578  0.00  0.00    +0.000 NA
ATOM     29  C   UNL     1       3.773  15.284  21.398  0.00  0.00    +0.000 A 
ATOM     30  C   UNL     1       5.045  15.717  22.070  0.00  0.00    +0.000 C 
ATOM     31  C   UNL     1       3.049  16.213  20.642  0.00  0.00    +0.000 A 
ATOM     32  C   UNL     1       1.872  15.834  19.996  0.00  0.00    +0.000 A 
ATOM     33  C   UNL     1       1.510  14.509  20.182  0.00  0.00    +0.000 A 
ATOM     34  N   UNL     1       0.465  13.736  19.747  0.00  0.00    +0.000 N 
ATOM     35  H   UNL     1      -0.795  11.565  19.131  0.00  0.00    +0.000 HD
ATOM     36  H   UNL     1      -0.305  14.039  19.175  0.00  0.00    +0.000 HD
ENDBRANCH  23  24
BRANCH  23  37
ATOM     37  C   UNL     1       0.041  10.019  22.057  0.00  0.00    +0.000 C 
BRANCH  37  38
ATOM     38  C   UNL     1      -1.000  10.728  22.829  0.00  0.00    +0.000 C 
ATOM     39  N   UNL     1      -1.843  11.241  23.434  0.00  0.00    +0.000 NA
ENDBRANCH  37  38
ENDBRANCH  23  37
ENDBRANCH   5  23
TORSDOF 11
ENDMDL
MODEL 8
REMARK VINA RESULT:      -7.7      1.366      1.827
REMARK  Name = 
REMARK  13 active torsions:
REMARK  status: ('A' for Active; 'I' for Inactive)
REMARK    1  A    between atoms: C_1  and  O_2
REMARK    2  A    between atoms: O_2  and  C_3
REMARK    3  A    between atoms: C_8  and  C_9
REMARK    4  A    between atoms: C_8  and  C_13
REMARK    5  A    between atoms: C_9  and  C_10
REMARK    6  A    between atoms: C_10  and  C_11
REMARK    7  A    between atoms: C_11  and  O_12
REMARK    8  A    between atoms: C_13  and  C_14
REMARK    9  A    between atoms: C_18  and  C_19
REMARK   10  A    between atoms: C_19  and  C_20
REMARK   11  A    between atoms: C_19  and  N_23
REMARK   12  A    between atoms: C_20  and  C_21
REMARK   13  A    between atoms: C_28  and  C_29
REMARK                            x       y       z     vdW  Elec       q    Type
REMARK                         _______ _______ _______ _____ _____    ______ ____
ROOT
ATOM      1  C   UNL     1       1.599   7.762  20.665  0.00  0.00    +0.000 A 
ATOM      2  C   UNL     1       0.628   7.721  21.674  0.00  0.00    +0.000 A 
ATOM      3  C   UNL     1      -0.428   8.629  21.678  0.00  0.00    +0.000 A 
ATOM      4  C   UNL     1      -0.493   9.629  20.709  0.00  0.00    +0.000 A 
ATOM      5  C   UNL     1       0.523   9.767  19.753  0.00  0.00    +0.000 A 
ATOM      6  C   UNL     1       1.573   8.828  19.751  0.00  0.00    +0.000 A 
ENDROOT
BRANCH   1   7
ATOM      7  C   UNL     1       2.648   6.676  20.581  0.00  0.00    +0.000 C 
BRANCH   7  13
ATOM      8  C   UNL     1       5.755   4.905  16.752  0.00  0.00    +0.000 C 
ATOM      9  O   UNL     1       6.597   4.039  16.966  0.00  0.00    +0.000 OA
ATOM     10  N   UNL     1       4.834   5.323  17.689  0.00  0.00    +0.000 N 
ATOM     11  C   UNL     1       4.992   4.886  19.061  0.00  0.00    +0.000 C 
ATOM     12  C   UNL     1       3.655   4.463  19.648  0.00  0.00    +0.000 C 
ATOM     13  C   UNL     1       2.522   5.520  19.519  0.00  0.00    +0.000 C 
ATOM     14  C   UNL     1       2.492   6.024  18.049  0.00  0.00    +0.000 C 
ATOM     15  C   UNL     1       3.855   6.371  17.442  0.00  0.00    +0.000 C 
BRANCH   8  17
ATOM     16  C   UNL     1       6.303   4.925  14.480  0.00  0.00    +0.000 C 
ATOM     17  O   UNL     1       5.615   5.545  15.562  0.00  0.00    +0.000 OA
ENDBRANCH   8  17
BRANCH  13  18
ATOM     18  C   UNL     1       1.184   4.738  19.815  0.00  0.00    +0.000 C 
BRANCH  18  19
ATOM     19  C   UNL     1       1.315   3.227  20.029  0.00  0.00    +0.000 C 
BRANCH  19  20
ATOM     20  C   UNL     1       0.796   2.429  18.835  0.00  0.00    +0.000 C 
BRANCH  20  21
ATOM     21  O   UNL     1       1.866   1.681  18.269  0.00  0.00    +0.000 OA
ATOM     22  H   UNL     1       1.995   1.992  17.357  0.00  0.00    +0.000 HD
ENDBRANCH  20  21
ENDBRANCH  19  20
ENDBRANCH  18  19
ENDBRANCH  13  18
ENDBRANCH   7  13
ENDBRANCH   1   7
BRANCH   5  23
ATOM     23  C   UNL     1       0.538  10.943  18.779  0.00  0.00    +0.000 C 
BRANCH  23  24
ATOM     24  N   UNL     1      -0.506  10.713  17.762  0.00  0.00    +0.000 N 
ATOM     25  C   UNL     1      -1.774  11.140  17.945  0.00  0.00    +0.000 A 
ATOM     26  N   UNL     1      -2.313  11.719  18.988  0.00  0.00    +0.000 NA
ATOM     27  C   UNL     1      -3.624  11.913  18.662  0.00  0.00    +0.000 A 
ATOM     28  N   UNL     1      -4.545  12.497  19.457  0.00  0.00    +0.000 NA
ATOM     29  C   UNL     1      -5.789  12.559  18.934  0.00  0.00    +0.000 A 
ATOM     30  C   UNL     1      -6.843  13.201  19.791  0.00  0.00    +0.000 C 
ATOM     31  C   UNL     1      -6.141  12.068  17.671  0.00  0.00    +0.000 A 
ATOM     32  C   UNL     1      -5.180  11.480  16.850  0.00  0.00    +0.000 A 
ATOM     33  C   UNL     1      -3.906  11.427  17.394  0.00  0.00    +0.000 A 
ATOM     34  N   UNL     1      -2.699  10.952  16.951  0.00  0.00    +0.000 N 
ATOM     35  H   UNL     1      -0.126  10.740  16.822  0.00  0.00    +0.000 HD
ATOM     36  H   UNL     1      -2.522  10.496  16.071  0.00  0.00    +0.000 HD
ENDBRANCH  23  24
BRANCH  23  37
ATOM     37  C   UNL     1       1.931  11.332  18.248  0.00  0.00    +0.000 C 
BRANCH  37  38
ATOM     38  C   UNL     1       2.312  12.690  18.688  0.00  0.00    +0.000 C 
ATOM     39  N   UNL     1       2.622  13.735  19.078  0.00  0.00    +0.000 NA
ENDBRANCH  37  38
ENDBRANCH  23  37
ENDBRANCH   5  23
TORSDOF 11
ENDMDL
MODEL 9
REMARK VINA RESULT:      -7.6      1.621      3.803
REMARK  Name = 
REMARK  13 active torsions:
REMARK  status: ('A' for Active; 'I' for Inactive)
REMARK    1  A    between atoms: C_1  and  O_2
REMARK    2  A    between atoms: O_2  and  C_3
REMARK    3  A    between atoms: C_8  and  C_9
REMARK    4  A    between atoms: C_8  and  C_13
REMARK    5  A    between atoms: C_9  and  C_10
REMARK    6  A    between atoms: C_10  and  C_11
REMARK    7  A    between atoms: C_11  and  O_12
REMARK    8  A    between atoms: C_13  and  C_14
REMARK    9  A    between atoms: C_18  and  C_19
REMARK   10  A    between atoms: C_19  and  C_20
REMARK   11  A    between atoms: C_19  and  N_23
REMARK   12  A    between atoms: C_20  and  C_21
REMARK   13  A    between atoms: C_28  and  C_29
REMARK                            x       y       z     vdW  Elec       q    Type
REMARK                         _______ _______ _______ _____ _____    ______ ____
ROOT
ATOM      1  C   UNL     1       1.942   8.205  18.722  0.00  0.00    +0.000 A 
ATOM      2  C   UNL     1       1.869   7.792  20.059  0.00  0.00    +0.000 A 
ATOM      3  C   UNL     1       1.237   8.586  21.012  0.00  0.00    +0.000 A 
ATOM      4  C   UNL     1       0.723   9.831  20.655  0.00  0.00    +0.000 A 
ATOM      5  C   UNL     1       0.879  10.323  19.351  0.00  0.00    +0.000 A 
ATOM      6  C   UNL     1       1.504   9.499  18.394  0.00  0.00    +0.000 A 
ENDROOT
BRANCH   1   7
ATOM      7  C   UNL     1       2.489   7.268  17.669  0.00  0.00    +0.000 C 
BRANCH   7  13
ATOM      8  C   UNL     1       2.802   2.473  19.758  0.00  0.00    +0.000 C 
ATOM      9  O   UNL     1       2.740   1.469  19.057  0.00  0.00    +0.000 OA
ATOM     10  N   UNL     1       2.844   3.755  19.254  0.00  0.00    +0.000 N 
ATOM     11  C   UNL     1       2.587   3.956  17.842  0.00  0.00    +0.000 C 
ATOM     12  C   UNL     1       3.581   4.941  17.249  0.00  0.00    +0.000 C 
ATOM     13  C   UNL     1       3.684   6.298  18.002  0.00  0.00    +0.000 C 
ATOM     14  C   UNL     1       3.842   6.001  19.520  0.00  0.00    +0.000 C 
ATOM     15  C   UNL     1       2.887   4.946  20.089  0.00  0.00    +0.000 C 
BRANCH   8  17
ATOM     16  C   UNL     1       1.579   2.465  21.750  0.00  0.00    +0.000 C 
ATOM     17  O   UNL     1       2.853   2.445  21.115  0.00  0.00    +0.000 OA
ENDBRANCH   8  17
BRANCH  13  18
ATOM     18  C   UNL     1       5.011   6.969  17.475  0.00  0.00    +0.000 C 
BRANCH  18  19
ATOM     19  C   UNL     1       5.780   6.197  16.398  0.00  0.00    +0.000 C 
BRANCH  19  20
ATOM     20  C   UNL     1       7.257   6.041  16.746  0.00  0.00    +0.000 C 
BRANCH  20  21
ATOM     21  O   UNL     1       7.538   4.669  16.999  0.00  0.00    +0.000 OA
ATOM     22  H   UNL     1       8.484   4.593  17.209  0.00  0.00    +0.000 HD
ENDBRANCH  20  21
ENDBRANCH  19  20
ENDBRANCH  18  19
ENDBRANCH  13  18
ENDBRANCH   7  13
ENDBRANCH   1   7
BRANCH   5  23
ATOM     23  C   UNL     1       0.450  11.742  18.984  0.00  0.00    +0.000 C 
BRANCH  23  24
ATOM     24  N   UNL     1      -0.527  11.659  17.882  0.00  0.00    +0.000 N 
ATOM     25  C   UNL     1      -1.855  11.753  18.108  0.00  0.00    +0.000 A 
ATOM     26  N   UNL     1      -2.498  11.851  19.245  0.00  0.00    +0.000 NA
ATOM     27  C   UNL     1      -3.821  11.887  18.913  0.00  0.00    +0.000 A 
ATOM     28  N   UNL     1      -4.841  11.995  19.791  0.00  0.00    +0.000 NA
ATOM     29  C   UNL     1      -6.072  11.985  19.236  0.00  0.00    +0.000 A 
ATOM     30  C   UNL     1      -7.233  12.103  20.182  0.00  0.00    +0.000 C 
ATOM     31  C   UNL     1      -6.320  11.870  17.862  0.00  0.00    +0.000 A 
ATOM     32  C   UNL     1      -5.260  11.774  16.960  0.00  0.00    +0.000 A 
ATOM     33  C   UNL     1      -4.001  11.792  17.541  0.00  0.00    +0.000 A 
ATOM     34  N   UNL     1      -2.724  11.724  17.049  0.00  0.00    +0.000 N 
ATOM     35  H   UNL     1      -0.161  12.060  17.025  0.00  0.00    +0.000 HD
ATOM     36  H   UNL     1      -2.459  11.619  16.084  0.00  0.00    +0.000 HD
ENDBRANCH  23  24
BRANCH  23  37
ATOM     37  C   UNL     1       1.605  12.744  18.795  0.00  0.00    +0.000 C 
BRANCH  37  38
ATOM     38  C   UNL     1       2.172  13.160  20.095  0.00  0.00    +0.000 C 
ATOM     39  N   UNL     1       2.656  13.502  21.089  0.00  0.00    +0.000 NA
ENDBRANCH  37  38
ENDBRANCH  23  37
ENDBRANCH   5  23
TORSDOF 11
ENDMDL
