MODEL 1
REMARK VINA RESULT:      -9.2      0.000      0.000
REMARK  Name = 
REMARK  8 active torsions:
REMARK  status: ('A' for Active; 'I' for Inactive)
REMARK    1  A    between atoms: C_2  and  C_4
REMARK    2  A    between atoms: N_7  and  C_8
REMARK    3  A    between atoms: C_8  and  C_9
REMARK    4  A    between atoms: C_9  and  C_10
REMARK    5  A    between atoms: C_10  and  O_11
REMARK    6  A    between atoms: O_11  and  C_12
REMARK    7  A    between atoms: C_15  and  N_16
REMARK    8  A    between atoms: C_17  and  C_18
REMARK                            x       y       z     vdW  Elec       q    Type
REMARK                         _______ _______ _______ _____ _____    ______ ____
ROOT
ATOM      1  C   UNL     1       2.585   7.526  18.269  0.00  0.00    +0.000 A 
ATOM      2  C   UNL     1       2.371   8.746  17.647  0.00  0.00    +0.000 A 
ATOM      3  C   UNL     1       1.746   9.785  18.340  0.00  0.00    +0.000 A 
ATOM      4  C   UNL     1       1.261   9.642  19.661  0.00  0.00    +0.000 A 
ATOM      5  C   UNL     1       1.518   8.444  20.318  0.00  0.00    +0.000 A 
ATOM      6  C   UNL     1       2.173   7.394  19.612  0.00  0.00    +0.000 A 
ENDROOT
BRANCH   4   7
ATOM      7  N   UNL     1       0.523  10.746  20.201  0.00  0.00    +0.000 N 
ATOM      8  C   UNL     1      -0.288  11.582  19.413  0.00  0.00    +0.000 A 
ATOM      9  N   UNL     1      -0.016  12.806  19.874  0.00  0.00    +0.000 NA
ATOM     10  C   UNL     1      -0.034  12.568  21.234  0.00  0.00    +0.000 A 
ATOM     11  C   UNL     1      -0.523  13.451  22.203  0.00  0.00    +0.000 A 
ATOM     12  C   UNL     1      -1.425  12.875  23.088  0.00  0.00    +0.000 A 
ATOM     13  F   UNL     1      -2.256  13.681  23.769  0.00  0.00    +0.000 F 
ATOM     14  C   UNL     1      -1.621  11.492  23.149  0.00  0.00    +0.000 A 
ATOM     15  C   UNL     1      -0.809  10.592  22.420  0.00  0.00    +0.000 A 
ATOM     16  C   UNL     1       0.042  11.172  21.460  0.00  0.00    +0.000 A 
BRANCH   8  17
ATOM     17  C   UNL     1      -1.631  10.998  19.074  0.00  0.00    +0.000 A 
ATOM     18  C   UNL     1      -1.749   9.937  18.187  0.00  0.00    +0.000 A 
ATOM     19  C   UNL     1      -2.931   9.829  17.450  0.00  0.00    +0.000 A 
ATOM     20  C   UNL     1      -3.943  10.775  17.606  0.00  0.00    +0.000 A 
ATOM     21  C   UNL     1      -3.765  11.765  18.547  0.00  0.00    +0.000 A 
ATOM     22  N   UNL     1      -2.655  11.867  19.298  0.00  0.00    +0.000 NA
ENDBRANCH   8  17
ENDBRANCH   4   7
BRANCH   1  23
ATOM     23  O   UNL     1       3.135   6.424  17.653  0.00  0.00    +0.000 OA
BRANCH  23  24
ATOM     24  C   UNL     1       4.463   6.568  17.096  0.00  0.00    +0.000 C 
BRANCH  24  25
ATOM     25  C   UNL     1       5.224   5.239  17.195  0.00  0.00    +0.000 C 
BRANCH  25  26
ATOM     26  C   UNL     1       4.438   4.017  16.669  0.00  0.00    +0.000 C 
BRANCH  26  30
ATOM     27  C   UNL     1       2.436   2.352  20.137  0.00  0.00    +0.000 C 
ATOM     28  C   UNL     1       3.964   2.463  20.111  0.00  0.00    +0.000 C 
ATOM     29  C   UNL     1       4.451   3.438  19.034  0.00  0.00    +0.000 C 
ATOM     30  N   UNL     1       3.956   3.066  17.696  0.00  0.00    +0.000 NA
ATOM     31  C   UNL     1       2.479   3.026  17.692  0.00  0.00    +0.000 C 
ATOM     32  C   UNL     1       1.935   2.030  18.723  0.00  0.00    +0.000 C 
BRANCH  27  34
ATOM     33  N   UNL     1       0.493   3.821  20.336  0.00  0.00    +0.000 N 
ATOM     34  C   UNL     1       1.781   3.599  20.726  0.00  0.00    +0.000 C 
ATOM     35  O   UNL     1       2.313   4.359  21.525  0.00  0.00    +0.000 OA
ATOM     36  H   UNL     1       0.016   4.586  20.775  0.00  0.00    +0.000 HD
ATOM     37  H   UNL     1      -0.056   3.115  19.874  0.00  0.00    +0.000 HD
ENDBRANCH  27  34
ENDBRANCH  26  30
ENDBRANCH  25  26
ENDBRANCH  24  25
ENDBRANCH  23  24
ENDBRANCH   1  23
TORSDOF 8
ENDMDL
MODEL 2
REMARK VINA RESULT:      -8.9      3.959      9.793
REMARK  Name = 
REMARK  8 active torsions:
REMARK  status: ('A' for Active; 'I' for Inactive)
REMARK    1  A    between atoms: C_2  and  C_4
REMARK    2  A    between atoms: N_7  and  C_8
REMARK    3  A    between atoms: C_8  and  C_9
REMARK    4  A    between atoms: C_9  and  C_10
REMARK    5  A    between atoms: C_10  and  O_11
REMARK    6  A    between atoms: O_11  and  C_12
REMARK    7  A    between atoms: C_15  and  N_16
REMARK    8  A    between atoms: C_17  and  C_18
REMARK                            x       y       z     vdW  Elec       q    Type
REMARK                         _______ _______ _______ _____ _____    ______ ____
ROOT
ATOM      1  C   UNL     1       0.818   9.665  19.090  0.00  0.00    +0.000 A 
ATOM      2  C   UNL     1       1.504   9.481  17.900  0.00  0.00    +0.000 A 
ATOM      3  C   UNL     1       2.426   8.439  17.778  0.00  0.00    +0.000 A 
ATOM      4  C   UNL     1       2.744   7.569  18.847  0.00  0.00    +0.000 A 
ATOM      5  C   UNL     1       2.023   7.705  20.028  0.00  0.00    +0.000 A 
ATOM      6  C   UNL     1       1.070   8.758  20.140  0.00  0.00    +0.000 A 
ENDROOT
BRANCH   4   7
ATOM      7  N   UNL     1       3.804   6.630  18.622  0.00  0.00    +0.000 N 
ATOM      8  C   UNL     1       3.852   5.368  19.240  0.00  0.00    +0.000 A 
ATOM      9  N   UNL     1       5.133   5.240  19.592  0.00  0.00    +0.000 NA
ATOM     10  C   UNL     1       5.753   5.697  18.446  0.00  0.00    +0.000 A 
ATOM     11  C   UNL     1       6.937   5.183  17.907  0.00  0.00    +0.000 A 
ATOM     12  C   UNL     1       6.855   4.874  16.555  0.00  0.00    +0.000 A 
ATOM     13  F   UNL     1       7.748   4.012  16.041  0.00  0.00    +0.000 F 
ATOM     14  C   UNL     1       5.771   5.277  15.769  0.00  0.00    +0.000 A 
ATOM     15  C   UNL     1       4.772   6.146  16.266  0.00  0.00    +0.000 A 
ATOM     16  C   UNL     1       4.804   6.388  17.653  0.00  0.00    +0.000 A 
BRANCH   8  17
ATOM     17  C   UNL     1       2.958   4.338  18.607  0.00  0.00    +0.000 A 
ATOM     18  C   UNL     1       1.584   4.362  18.801  0.00  0.00    +0.000 A 
ATOM     19  C   UNL     1       0.894   3.148  18.747  0.00  0.00    +0.000 A 
ATOM     20  C   UNL     1       1.585   1.959  18.519  0.00  0.00    +0.000 A 
ATOM     21  C   UNL     1       2.939   2.032  18.284  0.00  0.00    +0.000 A 
ATOM     22  N   UNL     1       3.620   3.190  18.288  0.00  0.00    +0.000 NA
ENDBRANCH   8  17
ENDBRANCH   4   7
BRANCH   1  23
ATOM     23  O   UNL     1      -0.063  10.697  19.329  0.00  0.00    +0.000 OA
BRANCH  23  24
ATOM     24  C   UNL     1      -1.458  10.352  19.508  0.00  0.00    +0.000 C 
BRANCH  24  25
ATOM     25  C   UNL     1      -2.344  11.284  18.670  0.00  0.00    +0.000 C 
BRANCH  25  26
ATOM     26  C   UNL     1      -3.113  12.339  19.495  0.00  0.00    +0.000 C 
BRANCH  26  30
ATOM     27  C   UNL     1      -7.314  11.262  19.475  0.00  0.00    +0.000 C 
ATOM     28  C   UNL     1      -6.531  11.329  18.160  0.00  0.00    +0.000 C 
ATOM     29  C   UNL     1      -5.017  11.298  18.391  0.00  0.00    +0.000 C 
ATOM     30  N   UNL     1      -4.578  12.383  19.286  0.00  0.00    +0.000 NA
ATOM     31  C   UNL     1      -5.276  12.286  20.585  0.00  0.00    +0.000 C 
ATOM     32  C   UNL     1      -6.799  12.357  20.418  0.00  0.00    +0.000 C 
BRANCH  27  34
ATOM     33  N   UNL     1      -7.635   9.809  21.413  0.00  0.00    +0.000 N 
ATOM     34  C   UNL     1      -7.265   9.872  20.102  0.00  0.00    +0.000 C 
ATOM     35  O   UNL     1      -6.959   8.846  19.508  0.00  0.00    +0.000 OA
ATOM     36  H   UNL     1      -7.691   8.894  21.821  0.00  0.00    +0.000 HD
ATOM     37  H   UNL     1      -8.108  10.569  21.873  0.00  0.00    +0.000 HD
ENDBRANCH  27  34
ENDBRANCH  26  30
ENDBRANCH  25  26
ENDBRANCH  24  25
ENDBRANCH  23  24
ENDBRANCH   1  23
TORSDOF 8
ENDMDL
MODEL 3
REMARK VINA RESULT:      -8.7      4.146      9.858
REMARK  Name = 
REMARK  8 active torsions:
REMARK  status: ('A' for Active; 'I' for Inactive)
REMARK    1  A    between atoms: C_2  and  C_4
REMARK    2  A    between atoms: N_7  and  C_8
REMARK    3  A    between atoms: C_8  and  C_9
REMARK    4  A    between atoms: C_9  and  C_10
REMARK    5  A    between atoms: C_10  and  O_11
REMARK    6  A    between atoms: O_11  and  C_12
REMARK    7  A    between atoms: C_15  and  N_16
REMARK    8  A    between atoms: C_17  and  C_18
REMARK                            x       y       z     vdW  Elec       q    Type
REMARK                         _______ _______ _______ _____ _____    ______ ____
ROOT
ATOM      1  C   UNL     1       0.740   9.432  19.412  0.00  0.00    +0.000 A 
ATOM      2  C   UNL     1       1.345   9.356  18.167  0.00  0.00    +0.000 A 
ATOM      3  C   UNL     1       2.315   8.381  17.920  0.00  0.00    +0.000 A 
ATOM      4  C   UNL     1       2.762   7.476  18.911  0.00  0.00    +0.000 A 
ATOM      5  C   UNL     1       2.124   7.503  20.146  0.00  0.00    +0.000 A 
ATOM      6  C   UNL     1       1.122   8.487  20.387  0.00  0.00    +0.000 A 
ENDROOT
BRANCH   4   7
ATOM      7  N   UNL     1       3.855   6.619  18.557  0.00  0.00    +0.000 N 
ATOM      8  C   UNL     1       4.025   5.333  19.100  0.00  0.00    +0.000 A 
ATOM      9  N   UNL     1       5.336   5.270  19.349  0.00  0.00    +0.000 NA
ATOM     10  C   UNL     1       5.836   5.822  18.186  0.00  0.00    +0.000 A 
ATOM     11  C   UNL     1       7.004   5.412  17.533  0.00  0.00    +0.000 A 
ATOM     12  C   UNL     1       6.835   5.165  16.176  0.00  0.00    +0.000 A 
ATOM     13  F   UNL     1       7.736   4.388  15.552  0.00  0.00    +0.000 F 
ATOM     14  C   UNL     1       5.672   5.537  15.496  0.00  0.00    +0.000 A 
ATOM     15  C   UNL     1       4.664   6.315  16.113  0.00  0.00    +0.000 A 
ATOM     16  C   UNL     1       4.789   6.489  17.505  0.00  0.00    +0.000 A 
BRANCH   8  17
ATOM     17  C   UNL     1       3.149   4.281  18.480  0.00  0.00    +0.000 A 
ATOM     18  C   UNL     1       1.767   4.339  18.595  0.00  0.00    +0.000 A 
ATOM     19  C   UNL     1       1.056   3.136  18.575  0.00  0.00    +0.000 A 
ATOM     20  C   UNL     1       1.736   1.924  18.457  0.00  0.00    +0.000 A 
ATOM     21  C   UNL     1       3.102   1.961  18.295  0.00  0.00    +0.000 A 
ATOM     22  N   UNL     1       3.804   3.106  18.269  0.00  0.00    +0.000 NA
ENDBRANCH   8  17
ENDBRANCH   4   7
BRANCH   1  23
ATOM     23  O   UNL     1      -0.180  10.392  19.772  0.00  0.00    +0.000 OA
BRANCH  23  24
ATOM     24  C   UNL     1      -1.102  10.846  18.753  0.00  0.00    +0.000 C 
BRANCH  24  25
ATOM     25  C   UNL     1      -1.468  12.318  18.989  0.00  0.00    +0.000 C 
BRANCH  25  26
ATOM     26  C   UNL     1      -0.572  13.324  18.231  0.00  0.00    +0.000 C 
BRANCH  26  30
ATOM     27  C   UNL     1       2.997  15.541  19.304  0.00  0.00    +0.000 C 
ATOM     28  C   UNL     1       2.989  14.011  19.385  0.00  0.00    +0.000 C 
ATOM     29  C   UNL     1       1.836  13.399  18.583  0.00  0.00    +0.000 C 
ATOM     30  N   UNL     1       0.529  13.928  19.015  0.00  0.00    +0.000 NA
ATOM     31  C   UNL     1       0.502  15.398  18.873  0.00  0.00    +0.000 C 
ATOM     32  C   UNL     1       1.610  16.069  19.693  0.00  0.00    +0.000 C 
BRANCH  27  34
ATOM     33  N   UNL     1       4.299  15.204  17.263  0.00  0.00    +0.000 N 
ATOM     34  C   UNL     1       3.457  16.040  17.936  0.00  0.00    +0.000 C 
ATOM     35  O   UNL     1       3.098  17.088  17.416  0.00  0.00    +0.000 OA
ATOM     36  H   UNL     1       4.546  15.473  16.328  0.00  0.00    +0.000 HD
ATOM     37  H   UNL     1       4.436  14.246  17.539  0.00  0.00    +0.000 HD
ENDBRANCH  27  34
ENDBRANCH  26  30
ENDBRANCH  25  26
ENDBRANCH  24  25
ENDBRANCH  23  24
ENDBRANCH   1  23
TORSDOF 8
ENDMDL
MODEL 4
REMARK VINA RESULT:      -8.5      4.002     10.012
REMARK  Name = 
REMARK  8 active torsions:
REMARK  status: ('A' for Active; 'I' for Inactive)
REMARK    1  A    between atoms: C_2  and  C_4
REMARK    2  A    between atoms: N_7  and  C_8
REMARK    3  A    between atoms: C_8  and  C_9
REMARK    4  A    between atoms: C_9  and  C_10
REMARK    5  A    between atoms: C_10  and  O_11
REMARK    6  A    between atoms: O_11  and  C_12
REMARK    7  A    between atoms: C_15  and  N_16
REMARK    8  A    between atoms: C_17  and  C_18
REMARK                            x       y       z     vdW  Elec       q    Type
REMARK                         _______ _______ _______ _____ _____    ______ ____
ROOT
ATOM      1  C   UNL     1       0.743   9.441  19.288  0.00  0.00    +0.000 A 
ATOM      2  C   UNL     1       1.351   9.327  18.047  0.00  0.00    +0.000 A 
ATOM      3  C   UNL     1       2.330   8.354  17.835  0.00  0.00    +0.000 A 
ATOM      4  C   UNL     1       2.783   7.487  18.857  0.00  0.00    +0.000 A 
ATOM      5  C   UNL     1       2.143   7.550  20.090  0.00  0.00    +0.000 A 
ATOM      6  C   UNL     1       1.132   8.533  20.295  0.00  0.00    +0.000 A 
ENDROOT
BRANCH   4   7
ATOM      7  N   UNL     1       3.885   6.629  18.534  0.00  0.00    +0.000 N 
ATOM      8  C   UNL     1       4.044   5.347  19.090  0.00  0.00    +0.000 A 
ATOM      9  N   UNL     1       5.349   5.287  19.369  0.00  0.00    +0.000 NA
ATOM     10  C   UNL     1       5.875   5.830  18.213  0.00  0.00    +0.000 A 
ATOM     11  C   UNL     1       7.057   5.416  17.590  0.00  0.00    +0.000 A 
ATOM     12  C   UNL     1       6.918   5.159  16.231  0.00  0.00    +0.000 A 
ATOM     13  F   UNL     1       7.834   4.379  15.633  0.00  0.00    +0.000 F 
ATOM     14  C   UNL     1       5.771   5.525  15.523  0.00  0.00    +0.000 A 
ATOM     15  C   UNL     1       4.749   6.306  16.111  0.00  0.00    +0.000 A 
ATOM     16  C   UNL     1       4.842   6.491  17.504  0.00  0.00    +0.000 A 
BRANCH   8  17
ATOM     17  C   UNL     1       3.182   4.289  18.459  0.00  0.00    +0.000 A 
ATOM     18  C   UNL     1       1.803   4.305  18.607  0.00  0.00    +0.000 A 
ATOM     19  C   UNL     1       1.126   3.083  18.566  0.00  0.00    +0.000 A 
ATOM     20  C   UNL     1       1.835   1.895  18.397  0.00  0.00    +0.000 A 
ATOM     21  C   UNL     1       3.196   1.975  18.205  0.00  0.00    +0.000 A 
ATOM     22  N   UNL     1       3.865   3.140  18.197  0.00  0.00    +0.000 NA
ENDBRANCH   8  17
ENDBRANCH   4   7
BRANCH   1  23
ATOM     23  O   UNL     1      -0.186  10.404  19.615  0.00  0.00    +0.000 OA
BRANCH  23  24
ATOM     24  C   UNL     1      -1.317  10.565  18.725  0.00  0.00    +0.000 C 
BRANCH  24  25
ATOM     25  C   UNL     1      -2.100  11.834  19.092  0.00  0.00    +0.000 C 
BRANCH  25  26
ATOM     26  C   UNL     1      -1.850  12.340  20.530  0.00  0.00    +0.000 C 
BRANCH  26  30
ATOM     27  C   UNL     1      -5.114  13.839  22.961  0.00  0.00    +0.000 C 
ATOM     28  C   UNL     1      -5.335  13.547  21.474  0.00  0.00    +0.000 C 
ATOM     29  C   UNL     1      -4.238  12.646  20.897  0.00  0.00    +0.000 C 
ATOM     30  N   UNL     1      -2.896  13.222  21.097  0.00  0.00    +0.000 NA
ATOM     31  C   UNL     1      -2.645  13.442  22.535  0.00  0.00    +0.000 C 
ATOM     32  C   UNL     1      -3.689  14.375  23.159  0.00  0.00    +0.000 C 
BRANCH  27  34
ATOM     33  N   UNL     1      -6.716  12.220  23.847  0.00  0.00    +0.000 N 
ATOM     34  C   UNL     1      -5.413  12.624  23.835  0.00  0.00    +0.000 C 
ATOM     35  O   UNL     1      -4.577  11.995  24.471  0.00  0.00    +0.000 OA
ATOM     36  H   UNL     1      -6.920  11.374  24.346  0.00  0.00    +0.000 HD
ATOM     37  H   UNL     1      -7.385  12.553  23.172  0.00  0.00    +0.000 HD
ENDBRANCH  27  34
ENDBRANCH  26  30
ENDBRANCH  25  26
ENDBRANCH  24  25
ENDBRANCH  23  24
ENDBRANCH   1  23
TORSDOF 8
ENDMDL
MODEL 5
REMARK VINA RESULT:      -8.5      3.877      9.979
REMARK  Name = 
REMARK  8 active torsions:
REMARK  status: ('A' for Active; 'I' for Inactive)
REMARK    1  A    between atoms: C_2  and  C_4
REMARK    2  A    between atoms: N_7  and  C_8
REMARK    3  A    between atoms: C_8  and  C_9
REMARK    4  A    between atoms: C_9  and  C_10
REMARK    5  A    between atoms: C_10  and  O_11
REMARK    6  A    between atoms: O_11  and  C_12
REMARK    7  A    between atoms: C_15  and  N_16
REMARK    8  A    between atoms: C_17  and  C_18
REMARK                            x       y       z     vdW  Elec       q    Type
REMARK                         _______ _______ _______ _____ _____    ______ ____
ROOT
ATOM      1  C   UNL     1       0.801   9.401  19.364  0.00  0.00    +0.000 A 
ATOM      2  C   UNL     1       1.406   9.344  18.118  0.00  0.00    +0.000 A 
ATOM      3  C   UNL     1       2.378   8.376  17.857  0.00  0.00    +0.000 A 
ATOM      4  C   UNL     1       2.829   7.458  18.835  0.00  0.00    +0.000 A 
ATOM      5  C   UNL     1       2.191   7.466  20.070  0.00  0.00    +0.000 A 
ATOM      6  C   UNL     1       1.187   8.444  20.325  0.00  0.00    +0.000 A 
ENDROOT
BRANCH   4   7
ATOM      7  N   UNL     1       3.924   6.610  18.468  0.00  0.00    +0.000 N 
ATOM      8  C   UNL     1       4.109   5.324  19.007  0.00  0.00    +0.000 A 
ATOM      9  N   UNL     1       5.422   5.269  19.243  0.00  0.00    +0.000 NA
ATOM     10  C   UNL     1       5.907   5.827  18.076  0.00  0.00    +0.000 A 
ATOM     11  C   UNL     1       7.071   5.426  17.410  0.00  0.00    +0.000 A 
ATOM     12  C   UNL     1       6.890   5.180  16.055  0.00  0.00    +0.000 A 
ATOM     13  F   UNL     1       7.790   4.412  15.419  0.00  0.00    +0.000 F 
ATOM     14  C   UNL     1       5.718   5.546  15.387  0.00  0.00    +0.000 A 
ATOM     15  C   UNL     1       4.711   6.315  16.015  0.00  0.00    +0.000 A 
ATOM     16  C   UNL     1       4.849   6.488  17.406  0.00  0.00    +0.000 A 
BRANCH   8  17
ATOM     17  C   UNL     1       3.233   4.267  18.394  0.00  0.00    +0.000 A 
ATOM     18  C   UNL     1       1.850   4.353  18.461  0.00  0.00    +0.000 A 
ATOM     19  C   UNL     1       1.118   3.162  18.457  0.00  0.00    +0.000 A 
ATOM     20  C   UNL     1       1.779   1.936  18.403  0.00  0.00    +0.000 A 
ATOM     21  C   UNL     1       3.150   1.942  18.285  0.00  0.00    +0.000 A 
ATOM     22  N   UNL     1       3.874   3.074  18.244  0.00  0.00    +0.000 NA
ENDBRANCH   8  17
ENDBRANCH   4   7
BRANCH   1  23
ATOM     23  O   UNL     1      -0.121  10.353  19.739  0.00  0.00    +0.000 OA
BRANCH  23  24
ATOM     24  C   UNL     1      -0.605  10.309  21.103  0.00  0.00    +0.000 C 
BRANCH  24  25
ATOM     25  C   UNL     1      -0.219  11.598  21.841  0.00  0.00    +0.000 C 
BRANCH  25  26
ATOM     26  C   UNL     1      -0.652  12.896  21.122  0.00  0.00    +0.000 C 
BRANCH  26  30
ATOM     27  C   UNL     1      -4.046  14.180  23.496  0.00  0.00    +0.000 C 
ATOM     28  C   UNL     1      -3.991  14.499  21.998  0.00  0.00    +0.000 C 
ATOM     29  C   UNL     1      -2.971  13.624  21.263  0.00  0.00    +0.000 C 
ATOM     30  N   UNL     1      -1.623  13.745  21.848  0.00  0.00    +0.000 NA
ATOM     31  C   UNL     1      -1.653  13.371  23.276  0.00  0.00    +0.000 C 
ATOM     32  C   UNL     1      -2.626  14.246  24.074  0.00  0.00    +0.000 C 
BRANCH  27  34
ATOM     33  N   UNL     1      -5.856  12.603  23.035  0.00  0.00    +0.000 N 
ATOM     34  C   UNL     1      -4.735  12.846  23.773  0.00  0.00    +0.000 C 
ATOM     35  O   UNL     1      -4.332  12.000  24.561  0.00  0.00    +0.000 OA
ATOM     36  H   UNL     1      -6.276  11.698  23.139  0.00  0.00    +0.000 HD
ATOM     37  H   UNL     1      -6.092  13.151  22.224  0.00  0.00    +0.000 HD
ENDBRANCH  27  34
ENDBRANCH  26  30
ENDBRANCH  25  26
ENDBRANCH  24  25
ENDBRANCH  23  24
ENDBRANCH   1  23
TORSDOF 8
ENDMDL
MODEL 6
REMARK VINA RESULT:      -8.5      3.996      9.753
REMARK  Name = 
REMARK  8 active torsions:
REMARK  status: ('A' for Active; 'I' for Inactive)
REMARK    1  A    between atoms: C_2  and  C_4
REMARK    2  A    between atoms: N_7  and  C_8
REMARK    3  A    between atoms: C_8  and  C_9
REMARK    4  A    between atoms: C_9  and  C_10
REMARK    5  A    between atoms: C_10  and  O_11
REMARK    6  A    between atoms: O_11  and  C_12
REMARK    7  A    between atoms: C_15  and  N_16
REMARK    8  A    between atoms: C_17  and  C_18
REMARK                            x       y       z     vdW  Elec       q    Type
REMARK                         _______ _______ _______ _____ _____    ______ ____
ROOT
ATOM      1  C   UNL     1       0.563   9.596  19.225  0.00  0.00    +0.000 A 
ATOM      2  C   UNL     1       1.165   9.405  17.992  0.00  0.00    +0.000 A 
ATOM      3  C   UNL     1       2.142   8.419  17.836  0.00  0.00    +0.000 A 
ATOM      4  C   UNL     1       2.599   7.616  18.907  0.00  0.00    +0.000 A 
ATOM      5  C   UNL     1       1.964   7.757  20.136  0.00  0.00    +0.000 A 
ATOM      6  C   UNL     1       0.955   8.752  20.285  0.00  0.00    +0.000 A 
ENDROOT
BRANCH   4   7
ATOM      7  N   UNL     1       3.697   6.737  18.633  0.00  0.00    +0.000 N 
ATOM      8  C   UNL     1       3.822   5.463  19.215  0.00  0.00    +0.000 A 
ATOM      9  N   UNL     1       5.116   5.390  19.535  0.00  0.00    +0.000 NA
ATOM     10  C   UNL     1       5.685   5.907  18.387  0.00  0.00    +0.000 A 
ATOM     11  C   UNL     1       6.880   5.466  17.808  0.00  0.00    +0.000 A 
ATOM     12  C   UNL     1       6.780   5.188  16.450  0.00  0.00    +0.000 A 
ATOM     13  F   UNL     1       7.702   4.385  15.894  0.00  0.00    +0.000 F 
ATOM     14  C   UNL     1       5.660   5.557  15.700  0.00  0.00    +0.000 A 
ATOM     15  C   UNL     1       4.631   6.362  16.243  0.00  0.00    +0.000 A 
ATOM     16  C   UNL     1       4.684   6.570  17.635  0.00  0.00    +0.000 A 
BRANCH   8  17
ATOM     17  C   UNL     1       2.965   4.407  18.576  0.00  0.00    +0.000 A 
ATOM     18  C   UNL     1       1.593   4.373  18.782  0.00  0.00    +0.000 A 
ATOM     19  C   UNL     1       0.951   3.133  18.717  0.00  0.00    +0.000 A 
ATOM     20  C   UNL     1       1.688   1.976  18.465  0.00  0.00    +0.000 A 
ATOM     21  C   UNL     1       3.036   2.107  18.219  0.00  0.00    +0.000 A 
ATOM     22  N   UNL     1       3.669   3.292  18.234  0.00  0.00    +0.000 NA
ENDBRANCH   8  17
ENDBRANCH   4   7
BRANCH   1  23
ATOM     23  O   UNL     1      -0.363  10.580  19.496  0.00  0.00    +0.000 OA
BRANCH  23  24
ATOM     24  C   UNL     1      -0.953  11.266  18.366  0.00  0.00    +0.000 C 
BRANCH  24  25
ATOM     25  C   UNL     1      -2.449  11.505  18.616  0.00  0.00    +0.000 C 
BRANCH  25  26
ATOM     26  C   UNL     1      -3.350  11.215  17.395  0.00  0.00    +0.000 C 
BRANCH  26  30
ATOM     27  C   UNL     1      -7.200  11.714  19.328  0.00  0.00    +0.000 C 
ATOM     28  C   UNL     1      -6.824  10.368  18.701  0.00  0.00    +0.000 C 
ATOM     29  C   UNL     1      -5.316  10.249  18.460  0.00  0.00    +0.000 C 
ATOM     30  N   UNL     1      -4.807  11.349  17.620  0.00  0.00    +0.000 NA
ATOM     31  C   UNL     1      -5.103  12.651  18.251  0.00  0.00    +0.000 C 
ATOM     32  C   UNL     1      -6.607  12.845  18.476  0.00  0.00    +0.000 C 
BRANCH  27  34
ATOM     33  N   UNL     1      -7.365  10.882  21.620  0.00  0.00    +0.000 N 
ATOM     34  C   UNL     1      -6.785  11.800  20.794  0.00  0.00    +0.000 C 
ATOM     35  O   UNL     1      -5.967  12.591  21.246  0.00  0.00    +0.000 OA
ATOM     36  H   UNL     1      -7.044  10.866  22.570  0.00  0.00    +0.000 HD
ATOM     37  H   UNL     1      -7.856  10.078  21.265  0.00  0.00    +0.000 HD
ENDBRANCH  27  34
ENDBRANCH  26  30
ENDBRANCH  25  26
ENDBRANCH  24  25
ENDBRANCH  23  24
ENDBRANCH   1  23
TORSDOF 8
ENDMDL
MODEL 7
REMARK VINA RESULT:      -8.5      4.047     10.096
REMARK  Name = 
REMARK  8 active torsions:
REMARK  status: ('A' for Active; 'I' for Inactive)
REMARK    1  A    between atoms: C_2  and  C_4
REMARK    2  A    between atoms: N_7  and  C_8
REMARK    3  A    between atoms: C_8  and  C_9
REMARK    4  A    between atoms: C_9  and  C_10
REMARK    5  A    between atoms: C_10  and  O_11
REMARK    6  A    between atoms: O_11  and  C_12
REMARK    7  A    between atoms: C_15  and  N_16
REMARK    8  A    between atoms: C_17  and  C_18
REMARK                            x       y       z     vdW  Elec       q    Type
REMARK                         _______ _______ _______ _____ _____    ______ ____
ROOT
ATOM      1  C   UNL     1       0.799   9.557  19.191  0.00  0.00    +0.000 A 
ATOM      2  C   UNL     1       1.415   9.430  17.956  0.00  0.00    +0.000 A 
ATOM      3  C   UNL     1       2.374   8.435  17.752  0.00  0.00    +0.000 A 
ATOM      4  C   UNL     1       2.799   7.558  18.777  0.00  0.00    +0.000 A 
ATOM      5  C   UNL     1       2.149   7.635  20.004  0.00  0.00    +0.000 A 
ATOM      6  C   UNL     1       1.159   8.640  20.201  0.00  0.00    +0.000 A 
ENDROOT
BRANCH   4   7
ATOM      7  N   UNL     1       3.883   6.674  18.462  0.00  0.00    +0.000 N 
ATOM      8  C   UNL     1       4.026   5.402  19.043  0.00  0.00    +0.000 A 
ATOM      9  N   UNL     1       5.331   5.325  19.313  0.00  0.00    +0.000 NA
ATOM     10  C   UNL     1       5.857   5.837  18.143  0.00  0.00    +0.000 A 
ATOM     11  C   UNL     1       7.027   5.391  17.519  0.00  0.00    +0.000 A 
ATOM     12  C   UNL     1       6.874   5.109  16.167  0.00  0.00    +0.000 A 
ATOM     13  F   UNL     1       7.771   4.302  15.578  0.00  0.00    +0.000 F 
ATOM     14  C   UNL     1       5.727   5.480  15.460  0.00  0.00    +0.000 A 
ATOM     15  C   UNL     1       4.723   6.290  16.040  0.00  0.00    +0.000 A 
ATOM     16  C   UNL     1       4.830   6.501  17.428  0.00  0.00    +0.000 A 
BRANCH   8  17
ATOM     17  C   UNL     1       3.141   4.346  18.440  0.00  0.00    +0.000 A 
ATOM     18  C   UNL     1       1.774   4.544  18.309  0.00  0.00    +0.000 A 
ATOM     19  C   UNL     1       0.944   3.420  18.340  0.00  0.00    +0.000 A 
ATOM     20  C   UNL     1       1.492   2.150  18.512  0.00  0.00    +0.000 A 
ATOM     21  C   UNL     1       2.862   2.039  18.580  0.00  0.00    +0.000 A 
ATOM     22  N   UNL     1       3.685   3.099  18.511  0.00  0.00    +0.000 NA
ENDBRANCH   8  17
ENDBRANCH   4   7
BRANCH   1  23
ATOM     23  O   UNL     1      -0.110  10.541  19.510  0.00  0.00    +0.000 OA
BRANCH  23  24
ATOM     24  C   UNL     1      -0.295  10.846  20.913  0.00  0.00    +0.000 C 
BRANCH  24  25
ATOM     25  C   UNL     1      -1.265  12.024  21.074  0.00  0.00    +0.000 C 
BRANCH  25  26
ATOM     26  C   UNL     1      -0.908  12.987  22.229  0.00  0.00    +0.000 C 
BRANCH  26  30
ATOM     27  C   UNL     1      -4.869  13.653  23.866  0.00  0.00    +0.000 C 
ATOM     28  C   UNL     1      -3.928  14.838  23.622  0.00  0.00    +0.000 C 
ATOM     29  C   UNL     1      -2.784  14.476  22.670  0.00  0.00    +0.000 C 
ATOM     30  N   UNL     1      -2.011  13.320  23.159  0.00  0.00    +0.000 NA
ATOM     31  C   UNL     1      -2.897  12.150  23.330  0.00  0.00    +0.000 C 
ATOM     32  C   UNL     1      -4.039  12.441  24.310  0.00  0.00    +0.000 C 
BRANCH  27  34
ATOM     33  N   UNL     1      -6.251  14.451  22.015  0.00  0.00    +0.000 N 
ATOM     34  C   UNL     1      -5.744  13.356  22.651  0.00  0.00    +0.000 C 
ATOM     35  O   UNL     1      -5.977  12.237  22.212  0.00  0.00    +0.000 OA
ATOM     36  H   UNL     1      -6.758  14.283  21.166  0.00  0.00    +0.000 HD
ATOM     37  H   UNL     1      -5.906  15.380  22.192  0.00  0.00    +0.000 HD
ENDBRANCH  27  34
ENDBRANCH  26  30
ENDBRANCH  25  26
ENDBRANCH  24  25
ENDBRANCH  23  24
ENDBRANCH   1  23
TORSDOF 8
ENDMDL
MODEL 8
REMARK VINA RESULT:      -8.4      1.557      3.066
REMARK  Name = 
REMARK  8 active torsions:
REMARK  status: ('A' for Active; 'I' for Inactive)
REMARK    1  A    between atoms: C_2  and  C_4
REMARK    2  A    between atoms: N_7  and  C_8
REMARK    3  A    between atoms: C_8  and  C_9
REMARK    4  A    between atoms: C_9  and  C_10
REMARK    5  A    between atoms: C_10  and  O_11
REMARK    6  A    between atoms: O_11  and  C_12
REMARK    7  A    between atoms: C_15  and  N_16
REMARK    8  A    between atoms: C_17  and  C_18
REMARK                            x       y       z     vdW  Elec       q    Type
REMARK                         _______ _______ _______ _____ _____    ______ ____
ROOT
ATOM      1  C   UNL     1       2.261   7.745  18.678  0.00  0.00    +0.000 A 
ATOM      2  C   UNL     1       2.083   8.871  17.890  0.00  0.00    +0.000 A 
ATOM      3  C   UNL     1       1.453  10.001  18.417  0.00  0.00    +0.000 A 
ATOM      4  C   UNL     1       0.927  10.043  19.730  0.00  0.00    +0.000 A 
ATOM      5  C   UNL     1       1.149   8.943  20.550  0.00  0.00    +0.000 A 
ATOM      6  C   UNL     1       1.809   7.800  20.013  0.00  0.00    +0.000 A 
ENDROOT
BRANCH   4   7
ATOM      7  N   UNL     1       0.189  11.217  20.092  0.00  0.00    +0.000 N 
ATOM      8  C   UNL     1      -0.656  11.897  19.197  0.00  0.00    +0.000 A 
ATOM      9  N   UNL     1      -0.388  13.184  19.429  0.00  0.00    +0.000 NA
ATOM     10  C   UNL     1      -0.363  13.187  20.810  0.00  0.00    +0.000 A 
ATOM     11  C   UNL     1      -0.836  14.221  21.625  0.00  0.00    +0.000 A 
ATOM     12  C   UNL     1      -1.704  13.799  22.625  0.00  0.00    +0.000 A 
ATOM     13  F   UNL     1      -2.526  14.704  23.180  0.00  0.00    +0.000 F 
ATOM     14  C   UNL     1      -1.877  12.447  22.931  0.00  0.00    +0.000 A 
ATOM     15  C   UNL     1      -1.074  11.441  22.345  0.00  0.00    +0.000 A 
ATOM     16  C   UNL     1      -0.261  11.852  21.272  0.00  0.00    +0.000 A 
BRANCH   8  17
ATOM     17  C   UNL     1      -1.999  11.250  19.007  0.00  0.00    +0.000 A 
ATOM     18  C   UNL     1      -2.154  10.145  18.182  0.00  0.00    +0.000 A 
ATOM     19  C   UNL     1      -3.392   9.959  17.560  0.00  0.00    +0.000 A 
ATOM     20  C   UNL     1      -4.422  10.876  17.765  0.00  0.00    +0.000 A 
ATOM     21  C   UNL     1      -4.200  11.915  18.640  0.00  0.00    +0.000 A 
ATOM     22  N   UNL     1      -3.034  12.092  19.283  0.00  0.00    +0.000 NA
ENDBRANCH   8  17
ENDBRANCH   4   7
BRANCH   1  23
ATOM     23  O   UNL     1       2.813   6.564  18.235  0.00  0.00    +0.000 OA
BRANCH  23  24
ATOM     24  C   UNL     1       2.450   5.353  18.941  0.00  0.00    +0.000 C 
BRANCH  24  25
ATOM     25  C   UNL     1       2.530   4.146  17.996  0.00  0.00    +0.000 C 
BRANCH  25  26
ATOM     26  C   UNL     1       3.660   3.148  18.337  0.00  0.00    +0.000 C 
BRANCH  26  30
ATOM     27  C   UNL     1       7.015   5.187  16.495  0.00  0.00    +0.000 C 
ATOM     28  C   UNL     1       6.155   4.222  15.671  0.00  0.00    +0.000 C 
ATOM     29  C   UNL     1       4.806   3.942  16.341  0.00  0.00    +0.000 C 
ATOM     30  N   UNL     1       4.973   3.416  17.708  0.00  0.00    +0.000 NA
ATOM     31  C   UNL     1       5.740   4.373  18.531  0.00  0.00    +0.000 C 
ATOM     32  C   UNL     1       7.122   4.658  17.931  0.00  0.00    +0.000 C 
BRANCH  27  34
ATOM     33  N   UNL     1       7.204   7.535  17.148  0.00  0.00    +0.000 N 
ATOM     34  C   UNL     1       6.491   6.619  16.431  0.00  0.00    +0.000 C 
ATOM     35  O   UNL     1       5.527   6.984  15.770  0.00  0.00    +0.000 OA
ATOM     36  H   UNL     1       6.928   8.494  17.053  0.00  0.00    +0.000 HD
ATOM     37  H   UNL     1       8.120   7.332  17.512  0.00  0.00    +0.000 HD
ENDBRANCH  27  34
ENDBRANCH  26  30
ENDBRANCH  25  26
ENDBRANCH  24  25
ENDBRANCH  23  24
ENDBRANCH   1  23
TORSDOF 8
ENDMDL
MODEL 9
REMARK VINA RESULT:      -8.4      4.170     10.208
REMARK  Name = 
REMARK  8 active torsions:
REMARK  status: ('A' for Active; 'I' for Inactive)
REMARK    1  A    between atoms: C_2  and  C_4
REMARK    2  A    between atoms: N_7  and  C_8
REMARK    3  A    between atoms: C_8  and  C_9
REMARK    4  A    between atoms: C_9  and  C_10
REMARK    5  A    between atoms: C_10  and  O_11
REMARK    6  A    between atoms: O_11  and  C_12
REMARK    7  A    between atoms: C_15  and  N_16
REMARK    8  A    between atoms: C_17  and  C_18
REMARK                            x       y       z     vdW  Elec       q    Type
REMARK                         _______ _______ _______ _____ _____    ______ ____
ROOT
ATOM      1  C   UNL     1       0.749   9.552  19.091  0.00  0.00    +0.000 A 
ATOM      2  C   UNL     1       1.399   9.350  17.884  0.00  0.00    +0.000 A 
ATOM      3  C   UNL     1       2.352   8.336  17.764  0.00  0.00    +0.000 A 
ATOM      4  C   UNL     1       2.737   7.513  18.849  0.00  0.00    +0.000 A 
ATOM      5  C   UNL     1       2.053   7.665  20.050  0.00  0.00    +0.000 A 
ATOM      6  C   UNL     1       1.068   8.690  20.161  0.00  0.00    +0.000 A 
ENDROOT
BRANCH   4   7
ATOM      7  N   UNL     1       3.820   6.604  18.617  0.00  0.00    +0.000 N 
ATOM      8  C   UNL     1       3.906   5.344  19.235  0.00  0.00    +0.000 A 
ATOM      9  N   UNL     1       5.193   5.251  19.579  0.00  0.00    +0.000 NA
ATOM     10  C   UNL     1       5.792   5.723  18.428  0.00  0.00    +0.000 A 
ATOM     11  C   UNL     1       6.986   5.241  17.881  0.00  0.00    +0.000 A 
ATOM     12  C   UNL     1       6.902   4.928  16.529  0.00  0.00    +0.000 A 
ATOM     13  F   UNL     1       7.815   4.091  16.010  0.00  0.00    +0.000 F 
ATOM     14  C   UNL     1       5.803   5.302  15.751  0.00  0.00    +0.000 A 
ATOM     15  C   UNL     1       4.784   6.144  16.254  0.00  0.00    +0.000 A 
ATOM     16  C   UNL     1       4.819   6.388  17.641  0.00  0.00    +0.000 A 
BRANCH   8  17
ATOM     17  C   UNL     1       3.036   4.289  18.609  0.00  0.00    +0.000 A 
ATOM     18  C   UNL     1       1.664   4.276  18.813  0.00  0.00    +0.000 A 
ATOM     19  C   UNL     1       1.006   3.045  18.764  0.00  0.00    +0.000 A 
ATOM     20  C   UNL     1       1.727   1.874  18.532  0.00  0.00    +0.000 A 
ATOM     21  C   UNL     1       3.077   1.983  18.287  0.00  0.00    +0.000 A 
ATOM     22  N   UNL     1       3.727   3.160  18.286  0.00  0.00    +0.000 NA
ENDBRANCH   8  17
ENDBRANCH   4   7
BRANCH   1  23
ATOM     23  O   UNL     1      -0.159  10.561  19.328  0.00  0.00    +0.000 OA
BRANCH  23  24
ATOM     24  C   UNL     1      -1.531  10.328  18.929  0.00  0.00    +0.000 C 
BRANCH  24  25
ATOM     25  C   UNL     1      -2.193  11.650  18.517  0.00  0.00    +0.000 C 
BRANCH  25  26
ATOM     26  C   UNL     1      -3.369  11.490  17.528  0.00  0.00    +0.000 C 
BRANCH  26  30
ATOM     27  C   UNL     1      -7.104  13.061  19.072  0.00  0.00    +0.000 C 
ATOM     28  C   UNL     1      -6.096  12.405  20.020  0.00  0.00    +0.000 C 
ATOM     29  C   UNL     1      -4.701  12.307  19.396  0.00  0.00    +0.000 C 
ATOM     30  N   UNL     1      -4.725  11.578  18.114  0.00  0.00    +0.000 NA
ATOM     31  C   UNL     1      -5.642  12.244  17.167  0.00  0.00    +0.000 C 
ATOM     32  C   UNL     1      -7.069  12.331  17.723  0.00  0.00    +0.000 C 
BRANCH  27  34
ATOM     33  N   UNL     1      -7.476  15.154  17.866  0.00  0.00    +0.000 N 
ATOM     34  C   UNL     1      -6.871  14.563  18.937  0.00  0.00    +0.000 C 
ATOM     35  O   UNL     1      -6.228  15.246  19.723  0.00  0.00    +0.000 OA
ATOM     36  H   UNL     1      -7.406  16.153  17.805  0.00  0.00    +0.000 HD
ATOM     37  H   UNL     1      -8.191  14.690  17.332  0.00  0.00    +0.000 HD
ENDBRANCH  27  34
ENDBRANCH  26  30
ENDBRANCH  25  26
ENDBRANCH  24  25
ENDBRANCH  23  24
ENDBRANCH   1  23
TORSDOF 8
ENDMDL
