MODEL 1
REMARK VINA RESULT:      -7.1      0.000      0.000
REMARK  Name = 
REMARK  4 active torsions:
REMARK  status: ('A' for Active; 'I' for Inactive)
REMARK    1  A    between atoms: C_1  and  C_2
REMARK    2  A    between atoms: C_8  and  N_9
REMARK    3  A    between atoms: C_12  and  C_13
REMARK    4  A    between atoms: C_13  and  O_15
REMARK                            x       y       z     vdW  Elec       q    Type
REMARK                         _______ _______ _______ _____ _____    ______ ____
ROOT
ATOM      1  C   UNL     1       2.232   2.565  21.755  0.00  0.00    +0.000 C 
ATOM      2  C   UNL     1       2.517   3.698  20.814  0.00  0.00    +0.000 A 
ATOM      3  N   UNL     1       1.898   4.867  21.147  0.00  0.00    +0.000 NA
ATOM      4  C   UNL     1       2.001   5.950  20.363  0.00  0.00    +0.000 A 
ATOM      5  N   UNL     1       1.343   7.045  20.739  0.00  0.00    +0.000 NA
ATOM      6  C   UNL     1       1.417   8.173  19.984  0.00  0.00    +0.000 A 
ATOM      7  C   UNL     1       2.129   8.243  18.790  0.00  0.00    +0.000 A 
ATOM      8  C   UNL     1       2.816   7.093  18.375  0.00  0.00    +0.000 A 
ATOM      9  C   UNL     1       2.771   5.930  19.195  0.00  0.00    +0.000 A 
ATOM     10  C   UNL     1       3.445   4.727  18.886  0.00  0.00    +0.000 A 
ATOM     11  C   UNL     1       3.316   3.588  19.686  0.00  0.00    +0.000 A 
ATOM     12  C   UNL     1       2.191   9.528  17.997  0.00  0.00    +0.000 C 
ATOM     13  C   UNL     1       1.116  10.544  18.374  0.00  0.00    +0.000 C 
ATOM     14  C   UNL     1       1.035  10.682  19.885  0.00  0.00    +0.000 C 
ATOM     15  C   UNL     1       0.623   9.350  20.505  0.00  0.00    +0.000 C 
ENDROOT
BRANCH   8  16
ATOM     16  N   UNL     1       3.716   7.164  17.288  0.00  0.00    +0.000 N 
ATOM     17  H   UNL     1       4.181   6.293  17.054  0.00  0.00    +0.000 HD
ATOM     18  H   UNL     1       4.391   7.920  17.337  0.00  0.00    +0.000 HD
ENDBRANCH   8  16
BRANCH  11  19
ATOM     19  C   UNL     1       3.958   2.356  19.164  0.00  0.00    +0.000 C 
ATOM     20  O   UNL     1       3.483   1.746  18.217  0.00  0.00    +0.000 OA
BRANCH  19  21
ATOM     21  O   UNL     1       5.110   1.981  19.747  0.00  0.00    +0.000 OA
ATOM     22  H   UNL     1       5.403   1.070  19.581  0.00  0.00    +0.000 HD
ENDBRANCH  19  21
ENDBRANCH  11  19
TORSDOF 3
ENDMDL
MODEL 2
REMARK VINA RESULT:      -6.7      1.788      3.440
REMARK  Name = 
REMARK  4 active torsions:
REMARK  status: ('A' for Active; 'I' for Inactive)
REMARK    1  A    between atoms: C_1  and  C_2
REMARK    2  A    between atoms: C_8  and  N_9
REMARK    3  A    between atoms: C_12  and  C_13
REMARK    4  A    between atoms: C_13  and  O_15
REMARK                            x       y       z     vdW  Elec       q    Type
REMARK                         _______ _______ _______ _____ _____    ______ ____
ROOT
ATOM      1  C   UNL     1       5.445   5.979  15.895  0.00  0.00    +0.000 C 
ATOM      2  C   UNL     1       4.523   6.233  17.050  0.00  0.00    +0.000 A 
ATOM      3  N   UNL     1       3.762   7.357  16.919  0.00  0.00    +0.000 NA
ATOM      4  C   UNL     1       2.940   7.754  17.902  0.00  0.00    +0.000 A 
ATOM      5  N   UNL     1       2.252   8.877  17.712  0.00  0.00    +0.000 NA
ATOM      6  C   UNL     1       1.401   9.322  18.674  0.00  0.00    +0.000 A 
ATOM      7  C   UNL     1       1.228   8.675  19.894  0.00  0.00    +0.000 A 
ATOM      8  C   UNL     1       1.957   7.497  20.113  0.00  0.00    +0.000 A 
ATOM      9  C   UNL     1       2.811   7.013  19.082  0.00  0.00    +0.000 A 
ATOM     10  C   UNL     1       3.571   5.826  19.187  0.00  0.00    +0.000 A 
ATOM     11  C   UNL     1       4.449   5.426  18.176  0.00  0.00    +0.000 A 
ATOM     12  C   UNL     1       0.257   9.205  20.923  0.00  0.00    +0.000 C 
ATOM     13  C   UNL     1      -0.163  10.655  20.694  0.00  0.00    +0.000 C 
ATOM     14  C   UNL     1      -0.535  10.867  19.237  0.00  0.00    +0.000 C 
ATOM     15  C   UNL     1       0.680  10.612  18.350  0.00  0.00    +0.000 C 
ENDROOT
BRANCH   8  16
ATOM     16  N   UNL     1       1.672   6.692  21.239  0.00  0.00    +0.000 N 
ATOM     17  H   UNL     1       1.886   5.706  21.131  0.00  0.00    +0.000 HD
ATOM     18  H   UNL     1       0.741   6.808  21.626  0.00  0.00    +0.000 HD
ENDBRANCH   8  16
BRANCH  11  19
ATOM     19  C   UNL     1       5.291   4.242  18.482  0.00  0.00    +0.000 C 
ATOM     20  O   UNL     1       6.325   4.349  19.126  0.00  0.00    +0.000 OA
BRANCH  19  21
ATOM     21  O   UNL     1       4.830   3.050  18.066  0.00  0.00    +0.000 OA
ATOM     22  H   UNL     1       4.779   2.918  17.104  0.00  0.00    +0.000 HD
ENDBRANCH  19  21
ENDBRANCH  11  19
TORSDOF 3
ENDMDL
MODEL 3
REMARK VINA RESULT:      -6.7      3.858      5.655
REMARK  Name = 
REMARK  4 active torsions:
REMARK  status: ('A' for Active; 'I' for Inactive)
REMARK    1  A    between atoms: C_1  and  C_2
REMARK    2  A    between atoms: C_8  and  N_9
REMARK    3  A    between atoms: C_12  and  C_13
REMARK    4  A    between atoms: C_13  and  O_15
REMARK                            x       y       z     vdW  Elec       q    Type
REMARK                         _______ _______ _______ _____ _____    ______ ____
ROOT
ATOM      1  C   UNL     1       7.448   7.005  16.784  0.00  0.00    +0.000 C 
ATOM      2  C   UNL     1       6.371   5.967  16.895  0.00  0.00    +0.000 A 
ATOM      3  N   UNL     1       5.654   6.029  18.053  0.00  0.00    +0.000 NA
ATOM      4  C   UNL     1       4.704   5.123  18.327  0.00  0.00    +0.000 A 
ATOM      5  N   UNL     1       4.067   5.233  19.491  0.00  0.00    +0.000 NA
ATOM      6  C   UNL     1       3.092   4.344  19.817  0.00  0.00    +0.000 A 
ATOM      7  C   UNL     1       2.734   3.275  19.001  0.00  0.00    +0.000 A 
ATOM      8  C   UNL     1       3.406   3.139  17.777  0.00  0.00    +0.000 A 
ATOM      9  C   UNL     1       4.394   4.101  17.423  0.00  0.00    +0.000 A 
ATOM     10  C   UNL     1       5.112   4.075  16.206  0.00  0.00    +0.000 A 
ATOM     11  C   UNL     1       6.122   5.000  15.931  0.00  0.00    +0.000 A 
ATOM     12  C   UNL     1       1.631   2.324  19.405  0.00  0.00    +0.000 C 
ATOM     13  C   UNL     1       1.271   2.384  20.887  0.00  0.00    +0.000 C 
ATOM     14  C   UNL     1       1.118   3.829  21.330  0.00  0.00    +0.000 C 
ATOM     15  C   UNL     1       2.445   4.564  21.167  0.00  0.00    +0.000 C 
ENDROOT
BRANCH   8  16
ATOM     16  N   UNL     1       2.948   2.203  16.822  0.00  0.00    +0.000 N 
ATOM     17  H   UNL     1       2.451   2.599  16.032  0.00  0.00    +0.000 HD
ATOM     18  H   UNL     1       2.432   1.417  17.204  0.00  0.00    +0.000 HD
ENDBRANCH   8  16
BRANCH  11  19
ATOM     19  C   UNL     1       6.893   4.765  14.684  0.00  0.00    +0.000 C 
ATOM     20  O   UNL     1       7.802   5.511  14.351  0.00  0.00    +0.000 OA
BRANCH  19  21
ATOM     21  O   UNL     1       6.576   3.667  13.976  0.00  0.00    +0.000 OA
ATOM     22  H   UNL     1       5.684   3.642  13.591  0.00  0.00    +0.000 HD
ENDBRANCH  19  21
ENDBRANCH  11  19
TORSDOF 3
ENDMDL
MODEL 4
REMARK VINA RESULT:      -6.7      1.098      2.914
REMARK  Name = 
REMARK  4 active torsions:
REMARK  status: ('A' for Active; 'I' for Inactive)
REMARK    1  A    between atoms: C_1  and  C_2
REMARK    2  A    between atoms: C_8  and  N_9
REMARK    3  A    between atoms: C_12  and  C_13
REMARK    4  A    between atoms: C_13  and  O_15
REMARK                            x       y       z     vdW  Elec       q    Type
REMARK                         _______ _______ _______ _____ _____    ______ ____
ROOT
ATOM      1  C   UNL     1       5.312   3.890  16.398  0.00  0.00    +0.000 C 
ATOM      2  C   UNL     1       4.410   4.523  17.417  0.00  0.00    +0.000 A 
ATOM      3  N   UNL     1       4.038   5.799  17.114  0.00  0.00    +0.000 NA
ATOM      4  C   UNL     1       3.291   6.521  17.962  0.00  0.00    +0.000 A 
ATOM      5  N   UNL     1       2.993   7.769  17.610  0.00  0.00    +0.000 NA
ATOM      6  C   UNL     1       2.235   8.543  18.431  0.00  0.00    +0.000 A 
ATOM      7  C   UNL     1       1.767   8.108  19.668  0.00  0.00    +0.000 A 
ATOM      8  C   UNL     1       2.084   6.798  20.058  0.00  0.00    +0.000 A 
ATOM      9  C   UNL     1       2.841   5.980  19.172  0.00  0.00    +0.000 A 
ATOM     10  C   UNL     1       3.194   4.640  19.453  0.00  0.00    +0.000 A 
ATOM     11  C   UNL     1       3.997   3.897  18.584  0.00  0.00    +0.000 A 
ATOM     12  C   UNL     1       0.914   9.004  20.535  0.00  0.00    +0.000 C 
ATOM     13  C   UNL     1       0.974  10.481  20.151  0.00  0.00    +0.000 C 
ATOM     14  C   UNL     1       0.813  10.637  18.648  0.00  0.00    +0.000 C 
ATOM     15  C   UNL     1       1.968   9.945  17.930  0.00  0.00    +0.000 C 
ENDROOT
BRANCH   8  16
ATOM     16  N   UNL     1       1.471   6.235  21.200  0.00  0.00    +0.000 N 
ATOM     17  H   UNL     1       0.739   6.798  21.619  0.00  0.00    +0.000 HD
ATOM     18  H   UNL     1       2.113   5.907  21.914  0.00  0.00    +0.000 HD
ENDBRANCH   8  16
BRANCH  11  19
ATOM     19  C   UNL     1       4.412   2.558  19.073  0.00  0.00    +0.000 C 
ATOM     20  O   UNL     1       5.068   2.433  20.097  0.00  0.00    +0.000 OA
BRANCH  19  21
ATOM     21  O   UNL     1       3.984   1.497  18.367  0.00  0.00    +0.000 OA
ATOM     22  H   UNL     1       4.665   0.986  17.899  0.00  0.00    +0.000 HD
ENDBRANCH  19  21
ENDBRANCH  11  19
TORSDOF 3
ENDMDL
MODEL 5
REMARK VINA RESULT:      -6.5      3.446      6.068
REMARK  Name = 
REMARK  4 active torsions:
REMARK  status: ('A' for Active; 'I' for Inactive)
REMARK    1  A    between atoms: C_1  and  C_2
REMARK    2  A    between atoms: C_8  and  N_9
REMARK    3  A    between atoms: C_12  and  C_13
REMARK    4  A    between atoms: C_13  and  O_15
REMARK                            x       y       z     vdW  Elec       q    Type
REMARK                         _______ _______ _______ _____ _____    ______ ____
ROOT
ATOM      1  C   UNL     1       0.441  10.882  19.361  0.00  0.00    +0.000 C 
ATOM      2  C   UNL     1       1.151   9.570  19.520  0.00  0.00    +0.000 A 
ATOM      3  N   UNL     1       1.953   9.240  18.467  0.00  0.00    +0.000 NA
ATOM      4  C   UNL     1       2.598   8.065  18.432  0.00  0.00    +0.000 A 
ATOM      5  N   UNL     1       3.338   7.802  17.357  0.00  0.00    +0.000 NA
ATOM      6  C   UNL     1       4.017   6.627  17.272  0.00  0.00    +0.000 A 
ATOM      7  C   UNL     1       3.956   5.641  18.253  0.00  0.00    +0.000 A 
ATOM      8  C   UNL     1       3.170   5.900  19.386  0.00  0.00    +0.000 A 
ATOM      9  C   UNL     1       2.498   7.151  19.487  0.00  0.00    +0.000 A 
ATOM     10  C   UNL     1       1.702   7.525  20.593  0.00  0.00    +0.000 A 
ATOM     11  C   UNL     1       1.005   8.736  20.618  0.00  0.00    +0.000 A 
ATOM     12  C   UNL     1       4.744   4.359  18.116  0.00  0.00    +0.000 C 
ATOM     13  C   UNL     1       5.234   4.079  16.698  0.00  0.00    +0.000 C 
ATOM     14  C   UNL     1       5.863   5.329  16.106  0.00  0.00    +0.000 C 
ATOM     15  C   UNL     1       4.817   6.436  16.003  0.00  0.00    +0.000 C 
ENDROOT
BRANCH   8  16
ATOM     16  N   UNL     1       3.231   5.031  20.499  0.00  0.00    +0.000 N 
ATOM     17  H   UNL     1       4.081   4.482  20.573  0.00  0.00    +0.000 HD
ATOM     18  H   UNL     1       2.418   4.439  20.627  0.00  0.00    +0.000 HD
ENDBRANCH   8  16
BRANCH  11  19
ATOM     19  C   UNL     1       0.093   8.933  21.773  0.00  0.00    +0.000 C 
ATOM     20  O   UNL     1      -0.916   8.255  21.905  0.00  0.00    +0.000 OA
BRANCH  19  21
ATOM     21  O   UNL     1       0.461   9.849  22.685  0.00  0.00    +0.000 OA
ATOM     22  H   UNL     1       0.683   9.515  23.570  0.00  0.00    +0.000 HD
ENDBRANCH  19  21
ENDBRANCH  11  19
TORSDOF 3
ENDMDL
MODEL 6
REMARK VINA RESULT:      -6.5      2.291      3.100
REMARK  Name = 
REMARK  4 active torsions:
REMARK  status: ('A' for Active; 'I' for Inactive)
REMARK    1  A    between atoms: C_1  and  C_2
REMARK    2  A    between atoms: C_8  and  N_9
REMARK    3  A    between atoms: C_12  and  C_13
REMARK    4  A    between atoms: C_13  and  O_15
REMARK                            x       y       z     vdW  Elec       q    Type
REMARK                         _______ _______ _______ _____ _____    ______ ____
ROOT
ATOM      1  C   UNL     1       4.389   4.166  18.989  0.00  0.00    +0.000 C 
ATOM      2  C   UNL     1       3.809   5.533  18.777  0.00  0.00    +0.000 A 
ATOM      3  N   UNL     1       2.999   5.958  19.789  0.00  0.00    +0.000 NA
ATOM      4  C   UNL     1       2.352   7.130  19.710  0.00  0.00    +0.000 A 
ATOM      5  N   UNL     1       1.556   7.461  20.725  0.00  0.00    +0.000 NA
ATOM      6  C   UNL     1       0.880   8.641  20.699  0.00  0.00    +0.000 A 
ATOM      7  C   UNL     1       0.944   9.530  19.630  0.00  0.00    +0.000 A 
ATOM      8  C   UNL     1       1.769   9.187  18.548  0.00  0.00    +0.000 A 
ATOM      9  C   UNL     1       2.509   7.972  18.604  0.00  0.00    +0.000 A 
ATOM     10  C   UNL     1       3.387   7.542  17.583  0.00  0.00    +0.000 A 
ATOM     11  C   UNL     1       4.039   6.308  17.650  0.00  0.00    +0.000 A 
ATOM     12  C   UNL     1       0.184  10.836  19.659  0.00  0.00    +0.000 C 
ATOM     13  C   UNL     1      -0.927  10.885  20.705  0.00  0.00    +0.000 C 
ATOM     14  C   UNL     1      -0.414  10.368  22.038  0.00  0.00    +0.000 C 
ATOM     15  C   UNL     1       0.002   8.906  21.901  0.00  0.00    +0.000 C 
ENDROOT
BRANCH   8  16
ATOM     16  N   UNL     1       2.033  10.136  17.535  0.00  0.00    +0.000 N 
ATOM     17  H   UNL     1       2.978  10.125  17.168  0.00  0.00    +0.000 HD
ATOM     18  H   UNL     1       1.752  11.087  17.753  0.00  0.00    +0.000 HD
ENDBRANCH   8  16
BRANCH  11  19
ATOM     19  C   UNL     1       4.813   5.920  16.443  0.00  0.00    +0.000 C 
ATOM     20  O   UNL     1       4.768   4.781  16.002  0.00  0.00    +0.000 OA
BRANCH  19  21
ATOM     21  O   UNL     1       5.514   6.893  15.837  0.00  0.00    +0.000 OA
ATOM     22  H   UNL     1       5.663   6.789  14.882  0.00  0.00    +0.000 HD
ENDBRANCH  19  21
ENDBRANCH  11  19
TORSDOF 3
ENDMDL
MODEL 7
REMARK VINA RESULT:      -6.4      3.428      6.212
REMARK  Name = 
REMARK  4 active torsions:
REMARK  status: ('A' for Active; 'I' for Inactive)
REMARK    1  A    between atoms: C_1  and  C_2
REMARK    2  A    between atoms: C_8  and  N_9
REMARK    3  A    between atoms: C_12  and  C_13
REMARK    4  A    between atoms: C_13  and  O_15
REMARK                            x       y       z     vdW  Elec       q    Type
REMARK                         _______ _______ _______ _____ _____    ______ ____
ROOT
ATOM      1  C   UNL     1       0.589  10.893  19.713  0.00  0.00    +0.000 C 
ATOM      2  C   UNL     1       1.098   9.509  19.988  0.00  0.00    +0.000 A 
ATOM      3  N   UNL     1       1.805   8.961  18.959  0.00  0.00    +0.000 NA
ATOM      4  C   UNL     1       2.265   7.703  19.028  0.00  0.00    +0.000 A 
ATOM      5  N   UNL     1       2.921   7.229  17.972  0.00  0.00    +0.000 NA
ATOM      6  C   UNL     1       3.412   5.961  17.991  0.00  0.00    +0.000 A 
ATOM      7  C   UNL     1       3.234   5.094  19.065  0.00  0.00    +0.000 A 
ATOM      8  C   UNL     1       2.534   5.576  20.180  0.00  0.00    +0.000 A 
ATOM      9  C   UNL     1       2.062   6.919  20.170  0.00  0.00    +0.000 A 
ATOM     10  C   UNL     1       1.368   7.514  21.248  0.00  0.00    +0.000 A 
ATOM     11  C   UNL     1       0.863   8.815  21.166  0.00  0.00    +0.000 A 
ATOM     12  C   UNL     1       3.815   3.699  19.041  0.00  0.00    +0.000 C 
ATOM     13  C   UNL     1       4.211   3.214  17.649  0.00  0.00    +0.000 C 
ATOM     14  C   UNL     1       5.002   4.291  16.926  0.00  0.00    +0.000 C 
ATOM     15  C   UNL     1       4.132   5.530  16.733  0.00  0.00    +0.000 C 
ENDROOT
BRANCH   8  16
ATOM     16  N   UNL     1       2.499   4.818  21.372  0.00  0.00    +0.000 N 
ATOM     17  H   UNL     1       1.616   4.836  21.871  0.00  0.00    +0.000 HD
ATOM     18  H   UNL     1       3.267   4.989  22.013  0.00  0.00    +0.000 HD
ENDBRANCH   8  16
BRANCH  11  19
ATOM     19  C   UNL     1       0.029   9.257  22.311  0.00  0.00    +0.000 C 
ATOM     20  O   UNL     1       0.280  10.289  22.916  0.00  0.00    +0.000 OA
BRANCH  19  21
ATOM     21  O   UNL     1      -1.040   8.498  22.609  0.00  0.00    +0.000 OA
ATOM     22  H   UNL     1      -0.980   7.557  22.377  0.00  0.00    +0.000 HD
ENDBRANCH  19  21
ENDBRANCH  11  19
TORSDOF 3
ENDMDL
MODEL 8
REMARK VINA RESULT:      -6.3      3.603      5.743
REMARK  Name = 
REMARK  4 active torsions:
REMARK  status: ('A' for Active; 'I' for Inactive)
REMARK    1  A    between atoms: C_1  and  C_2
REMARK    2  A    between atoms: C_8  and  N_9
REMARK    3  A    between atoms: C_12  and  C_13
REMARK    4  A    between atoms: C_13  and  O_15
REMARK                            x       y       z     vdW  Elec       q    Type
REMARK                         _______ _______ _______ _____ _____    ______ ____
ROOT
ATOM      1  C   UNL     1       5.561   7.292  15.251  0.00  0.00    +0.000 C 
ATOM      2  C   UNL     1       5.150   6.016  15.924  0.00  0.00    +0.000 A 
ATOM      3  N   UNL     1       4.282   6.188  16.962  0.00  0.00    +0.000 NA
ATOM      4  C   UNL     1       3.879   5.148  17.706  0.00  0.00    +0.000 A 
ATOM      5  N   UNL     1       3.055   5.400  18.721  0.00  0.00    +0.000 NA
ATOM      6  C   UNL     1       2.612   4.382  19.504  0.00  0.00    +0.000 A 
ATOM      7  C   UNL     1       3.007   3.059  19.326  0.00  0.00    +0.000 A 
ATOM      8  C   UNL     1       3.885   2.780  18.269  0.00  0.00    +0.000 A 
ATOM      9  C   UNL     1       4.309   3.846  17.426  0.00  0.00    +0.000 A 
ATOM     10  C   UNL     1       5.171   3.675  16.319  0.00  0.00    +0.000 A 
ATOM     11  C   UNL     1       5.615   4.761  15.560  0.00  0.00    +0.000 A 
ATOM     12  C   UNL     1       2.471   1.962  20.217  0.00  0.00    +0.000 C 
ATOM     13  C   UNL     1       1.842   2.465  21.513  0.00  0.00    +0.000 C 
ATOM     14  C   UNL     1       0.902   3.623  21.223  0.00  0.00    +0.000 C 
ATOM     15  C   UNL     1       1.687   4.789  20.629  0.00  0.00    +0.000 C 
ENDROOT
BRANCH   8  16
ATOM     16  N   UNL     1       4.158   1.439  17.914  0.00  0.00    +0.000 N 
ATOM     17  H   UNL     1       5.071   1.279  17.502  0.00  0.00    +0.000 HD
ATOM     18  H   UNL     1       3.439   0.986  17.361  0.00  0.00    +0.000 HD
ENDBRANCH   8  16
BRANCH  11  19
ATOM     19  C   UNL     1       6.632   4.452  14.523  0.00  0.00    +0.000 C 
ATOM     20  O   UNL     1       7.664   5.102  14.435  0.00  0.00    +0.000 OA
BRANCH  19  21
ATOM     21  O   UNL     1       6.383   3.396  13.729  0.00  0.00    +0.000 OA
ATOM     22  H   UNL     1       7.018   3.235  13.012  0.00  0.00    +0.000 HD
ENDBRANCH  19  21
ENDBRANCH  11  19
TORSDOF 3
ENDMDL
MODEL 9
REMARK VINA RESULT:      -6.2      4.340      5.414
REMARK  Name = 
REMARK  4 active torsions:
REMARK  status: ('A' for Active; 'I' for Inactive)
REMARK    1  A    between atoms: C_1  and  C_2
REMARK    2  A    between atoms: C_8  and  N_9
REMARK    3  A    between atoms: C_12  and  C_13
REMARK    4  A    between atoms: C_13  and  O_15
REMARK                            x       y       z     vdW  Elec       q    Type
REMARK                         _______ _______ _______ _____ _____    ______ ____
ROOT
ATOM      1  C   UNL     1       0.390   2.077  18.901  0.00  0.00    +0.000 C 
ATOM      2  C   UNL     1       1.739   2.733  18.872  0.00  0.00    +0.000 A 
ATOM      3  N   UNL     1       2.212   2.977  17.616  0.00  0.00    +0.000 NA
ATOM      4  C   UNL     1       3.434   3.496  17.427  0.00  0.00    +0.000 A 
ATOM      5  N   UNL     1       3.837   3.678  16.171  0.00  0.00    +0.000 NA
ATOM      6  C   UNL     1       5.065   4.205  15.923  0.00  0.00    +0.000 A 
ATOM      7  C   UNL     1       5.966   4.542  16.929  0.00  0.00    +0.000 A 
ATOM      8  C   UNL     1       5.560   4.343  18.257  0.00  0.00    +0.000 A 
ATOM      9  C   UNL     1       4.254   3.833  18.509  0.00  0.00    +0.000 A 
ATOM     10  C   UNL     1       3.734   3.619  19.806  0.00  0.00    +0.000 A 
ATOM     11  C   UNL     1       2.473   3.052  20.005  0.00  0.00    +0.000 A 
ATOM     12  C   UNL     1       7.314   5.139  16.598  0.00  0.00    +0.000 C 
ATOM     13  C   UNL     1       7.739   4.946  15.144  0.00  0.00    +0.000 C 
ATOM     14  C   UNL     1       6.592   5.299  14.213  0.00  0.00    +0.000 C 
ATOM     15  C   UNL     1       5.416   4.358  14.459  0.00  0.00    +0.000 C 
ENDROOT
BRANCH   8  16
ATOM     16  N   UNL     1       6.343   4.853  19.317  0.00  0.00    +0.000 N 
ATOM     17  H   UNL     1       6.749   4.154  19.930  0.00  0.00    +0.000 HD
ATOM     18  H   UNL     1       5.902   5.585  19.864  0.00  0.00    +0.000 HD
ENDBRANCH   8  16
BRANCH  11  19
ATOM     19  C   UNL     1       2.116   2.747  21.414  0.00  0.00    +0.000 C 
ATOM     20  O   UNL     1       1.019   3.038  21.867  0.00  0.00    +0.000 OA
BRANCH  19  21
ATOM     21  O   UNL     1       3.036   2.090  22.141  0.00  0.00    +0.000 OA
ATOM     22  H   UNL     1       2.853   2.000  23.091  0.00  0.00    +0.000 HD
ENDBRANCH  19  21
ENDBRANCH  11  19
TORSDOF 3
ENDMDL
