MODEL 1
REMARK VINA RESULT:      -7.5      0.000      0.000
REMARK  Name = 
REMARK  4 active torsions:
REMARK  status: ('A' for Active; 'I' for Inactive)
REMARK    1  A    between atoms: C_1  and  C_2
REMARK    2  A    between atoms: C_4  and  C_5
REMARK    3  A    between atoms: C_8  and  N_9
REMARK    4  A    between atoms: C_15  and  C_16
REMARK                            x       y       z     vdW  Elec       q    Type
REMARK                         _______ _______ _______ _____ _____    ______ ____
ROOT
ATOM      1  C   UNL     1       4.158   5.090  17.456  0.00  0.00    +0.000 A 
ATOM      2  C   UNL     1       4.619   6.240  16.785  0.00  0.00    +0.000 A 
ATOM      3  C   UNL     1       5.486   6.155  15.689  0.00  0.00    +0.000 A 
ATOM      4  C   UNL     1       5.923   4.901  15.253  0.00  0.00    +0.000 A 
ATOM      5  C   UNL     1       5.494   3.741  15.901  0.00  0.00    +0.000 A 
ATOM      6  C   UNL     1       4.615   3.842  16.987  0.00  0.00    +0.000 A 
ENDROOT
BRANCH   1  10
ATOM      7  C   UNL     1       1.545   7.795  20.804  0.00  0.00    +0.000 C 
ATOM      8  C   UNL     1       1.962   6.481  20.215  0.00  0.00    +0.000 A 
ATOM      9  C   UNL     1       2.824   6.428  19.124  0.00  0.00    +0.000 A 
ATOM     10  C   UNL     1       3.230   5.189  18.609  0.00  0.00    +0.000 A 
ATOM     11  C   UNL     1       2.718   4.045  19.238  0.00  0.00    +0.000 A 
ATOM     12  C   UNL     1       1.842   4.171  20.312  0.00  0.00    +0.000 A 
ATOM     13  C   UNL     1       1.264   2.961  20.980  0.00  0.00    +0.000 C 
ATOM     14  N   UNL     1       1.467   5.371  20.806  0.00  0.00    +0.000 NA
ENDBRANCH   1  10
BRANCH   4  15
ATOM     15  N   UNL     1       6.837   4.802  14.108  0.00  0.00    +0.000 N 
ATOM     16  O   UNL     1       6.545   4.005  13.204  0.00  0.00    +0.000 OA
ATOM     17  O   UNL     1       7.847   5.519  14.112  0.00  0.00    +0.000 OA
ENDBRANCH   4  15
TORSDOF 2
ENDMDL
MODEL 2
REMARK VINA RESULT:      -7.5      0.060      2.017
REMARK  Name = 
REMARK  4 active torsions:
REMARK  status: ('A' for Active; 'I' for Inactive)
REMARK    1  A    between atoms: C_1  and  C_2
REMARK    2  A    between atoms: C_4  and  C_5
REMARK    3  A    between atoms: C_8  and  N_9
REMARK    4  A    between atoms: C_15  and  C_16
REMARK                            x       y       z     vdW  Elec       q    Type
REMARK                         _______ _______ _______ _____ _____    ______ ____
ROOT
ATOM      1  C   UNL     1       4.151   5.122  17.481  0.00  0.00    +0.000 A 
ATOM      2  C   UNL     1       4.609   6.265  16.795  0.00  0.00    +0.000 A 
ATOM      3  C   UNL     1       5.471   6.167  15.697  0.00  0.00    +0.000 A 
ATOM      4  C   UNL     1       5.907   4.909  15.273  0.00  0.00    +0.000 A 
ATOM      5  C   UNL     1       5.480   3.756  15.936  0.00  0.00    +0.000 A 
ATOM      6  C   UNL     1       4.606   3.869  17.024  0.00  0.00    +0.000 A 
ENDROOT
BRANCH   1  10
ATOM      7  C   UNL     1       1.272   3.042  21.051  0.00  0.00    +0.000 C 
ATOM      8  C   UNL     1       1.851   4.242  20.363  0.00  0.00    +0.000 A 
ATOM      9  C   UNL     1       2.725   4.099  19.290  0.00  0.00    +0.000 A 
ATOM     10  C   UNL     1       3.228   5.233  18.637  0.00  0.00    +0.000 A 
ATOM     11  C   UNL     1       2.816   6.480  19.129  0.00  0.00    +0.000 A 
ATOM     12  C   UNL     1       1.956   6.550  20.222  0.00  0.00    +0.000 A 
ATOM     13  C   UNL     1       1.524   7.874  20.777  0.00  0.00    +0.000 C 
ATOM     14  N   UNL     1       1.469   5.450  20.834  0.00  0.00    +0.000 NA
ENDBRANCH   1  10
BRANCH   4  15
ATOM     15  N   UNL     1       6.815   4.797  14.126  0.00  0.00    +0.000 N 
ATOM     16  O   UNL     1       6.520   3.989  13.232  0.00  0.00    +0.000 OA
ATOM     17  O   UNL     1       7.824   5.515  14.116  0.00  0.00    +0.000 OA
ENDBRANCH   4  15
TORSDOF 2
ENDMDL
MODEL 3
REMARK VINA RESULT:      -7.5      0.095      1.395
REMARK  Name = 
REMARK  4 active torsions:
REMARK  status: ('A' for Active; 'I' for Inactive)
REMARK    1  A    between atoms: C_1  and  C_2
REMARK    2  A    between atoms: C_4  and  C_5
REMARK    3  A    between atoms: C_8  and  N_9
REMARK    4  A    between atoms: C_15  and  C_16
REMARK                            x       y       z     vdW  Elec       q    Type
REMARK                         _______ _______ _______ _____ _____    ______ ____
ROOT
ATOM      1  C   UNL     1       4.143   5.149  17.461  0.00  0.00    +0.000 A 
ATOM      2  C   UNL     1       4.544   3.889  16.973  0.00  0.00    +0.000 A 
ATOM      3  C   UNL     1       5.420   3.766  15.888  0.00  0.00    +0.000 A 
ATOM      4  C   UNL     1       5.901   4.916  15.257  0.00  0.00    +0.000 A 
ATOM      5  C   UNL     1       5.517   6.180  15.708  0.00  0.00    +0.000 A 
ATOM      6  C   UNL     1       4.651   6.287  16.804  0.00  0.00    +0.000 A 
ENDROOT
BRANCH   1  10
ATOM      7  C   UNL     1       1.529   7.925  20.750  0.00  0.00    +0.000 C 
ATOM      8  C   UNL     1       1.955   6.598  20.196  0.00  0.00    +0.000 A 
ATOM      9  C   UNL     1       2.808   6.522  19.100  0.00  0.00    +0.000 A 
ATOM     10  C   UNL     1       3.223   5.272  18.618  0.00  0.00    +0.000 A 
ATOM     11  C   UNL     1       2.729   4.142  19.285  0.00  0.00    +0.000 A 
ATOM     12  C   UNL     1       1.860   4.291  20.362  0.00  0.00    +0.000 A 
ATOM     13  C   UNL     1       1.301   3.095  21.071  0.00  0.00    +0.000 C 
ATOM     14  N   UNL     1       1.476   5.501  20.824  0.00  0.00    +0.000 NA
ENDBRANCH   1  10
BRANCH   4  15
ATOM     15  N   UNL     1       6.816   4.796  14.115  0.00  0.00    +0.000 N 
ATOM     16  O   UNL     1       7.811   5.537  14.092  0.00  0.00    +0.000 OA
ATOM     17  O   UNL     1       6.541   3.963  13.240  0.00  0.00    +0.000 OA
ENDBRANCH   4  15
TORSDOF 2
ENDMDL
MODEL 4
REMARK VINA RESULT:      -7.5      0.114      2.334
REMARK  Name = 
REMARK  4 active torsions:
REMARK  status: ('A' for Active; 'I' for Inactive)
REMARK    1  A    between atoms: C_1  and  C_2
REMARK    2  A    between atoms: C_4  and  C_5
REMARK    3  A    between atoms: C_8  and  N_9
REMARK    4  A    between atoms: C_15  and  C_16
REMARK                            x       y       z     vdW  Elec       q    Type
REMARK                         _______ _______ _______ _____ _____    ______ ____
ROOT
ATOM      1  C   UNL     1       4.169   5.167  17.457  0.00  0.00    +0.000 A 
ATOM      2  C   UNL     1       4.586   3.907  16.983  0.00  0.00    +0.000 A 
ATOM      3  C   UNL     1       5.461   3.783  15.897  0.00  0.00    +0.000 A 
ATOM      4  C   UNL     1       5.925   4.932  15.251  0.00  0.00    +0.000 A 
ATOM      5  C   UNL     1       5.524   6.196  15.688  0.00  0.00    +0.000 A 
ATOM      6  C   UNL     1       4.660   6.305  16.785  0.00  0.00    +0.000 A 
ENDROOT
BRANCH   1  10
ATOM      7  C   UNL     1       1.322   3.126  21.074  0.00  0.00    +0.000 C 
ATOM      8  C   UNL     1       1.889   4.318  20.364  0.00  0.00    +0.000 A 
ATOM      9  C   UNL     1       2.759   4.164  19.289  0.00  0.00    +0.000 A 
ATOM     10  C   UNL     1       3.251   5.291  18.615  0.00  0.00    +0.000 A 
ATOM     11  C   UNL     1       2.832   6.543  19.088  0.00  0.00    +0.000 A 
ATOM     12  C   UNL     1       1.978   6.625  20.184  0.00  0.00    +0.000 A 
ATOM     13  C   UNL     1       1.539   7.954  20.719  0.00  0.00    +0.000 C 
ATOM     14  N   UNL     1       1.501   5.531  20.817  0.00  0.00    +0.000 NA
ENDBRANCH   1  10
BRANCH   4  15
ATOM     15  N   UNL     1       6.838   4.811  14.108  0.00  0.00    +0.000 N 
ATOM     16  O   UNL     1       6.567   3.968  13.239  0.00  0.00    +0.000 OA
ATOM     17  O   UNL     1       7.826   5.557  14.077  0.00  0.00    +0.000 OA
ENDBRANCH   4  15
TORSDOF 2
ENDMDL
MODEL 5
REMARK VINA RESULT:      -7.0      3.854      6.556
REMARK  Name = 
REMARK  4 active torsions:
REMARK  status: ('A' for Active; 'I' for Inactive)
REMARK    1  A    between atoms: C_1  and  C_2
REMARK    2  A    between atoms: C_4  and  C_5
REMARK    3  A    between atoms: C_8  and  N_9
REMARK    4  A    between atoms: C_15  and  C_16
REMARK                            x       y       z     vdW  Elec       q    Type
REMARK                         _______ _______ _______ _____ _____    ______ ____
ROOT
ATOM      1  C   UNL     1       4.240   4.477  18.105  0.00  0.00    +0.000 A 
ATOM      2  C   UNL     1       2.911   4.643  17.669  0.00  0.00    +0.000 A 
ATOM      3  C   UNL     1       1.833   4.081  18.364  0.00  0.00    +0.000 A 
ATOM      4  C   UNL     1       2.074   3.322  19.512  0.00  0.00    +0.000 A 
ATOM      5  C   UNL     1       3.381   3.130  19.968  0.00  0.00    +0.000 A 
ATOM      6  C   UNL     1       4.447   3.710  19.269  0.00  0.00    +0.000 A 
ENDROOT
BRANCH   1  10
ATOM      7  C   UNL     1       7.268   4.739  14.090  0.00  0.00    +0.000 C 
ATOM      8  C   UNL     1       6.828   5.225  15.439  0.00  0.00    +0.000 A 
ATOM      9  C   UNL     1       5.749   4.640  16.093  0.00  0.00    +0.000 A 
ATOM     10  C   UNL     1       5.376   5.085  17.370  0.00  0.00    +0.000 A 
ATOM     11  C   UNL     1       6.129   6.132  17.919  0.00  0.00    +0.000 A 
ATOM     12  C   UNL     1       7.183   6.687  17.198  0.00  0.00    +0.000 A 
ATOM     13  C   UNL     1       7.983   7.824  17.759  0.00  0.00    +0.000 C 
ATOM     14  N   UNL     1       7.540   6.242  15.975  0.00  0.00    +0.000 NA
ENDBRANCH   1  10
BRANCH   4  15
ATOM     15  N   UNL     1       0.951   2.725  20.245  0.00  0.00    +0.000 N 
ATOM     16  O   UNL     1      -0.025   2.334  19.586  0.00  0.00    +0.000 OA
ATOM     17  O   UNL     1       1.042   2.647  21.477  0.00  0.00    +0.000 OA
ENDBRANCH   4  15
TORSDOF 2
ENDMDL
MODEL 6
REMARK VINA RESULT:      -7.0      3.805      6.608
REMARK  Name = 
REMARK  4 active torsions:
REMARK  status: ('A' for Active; 'I' for Inactive)
REMARK    1  A    between atoms: C_1  and  C_2
REMARK    2  A    between atoms: C_4  and  C_5
REMARK    3  A    between atoms: C_8  and  N_9
REMARK    4  A    between atoms: C_15  and  C_16
REMARK                            x       y       z     vdW  Elec       q    Type
REMARK                         _______ _______ _______ _____ _____    ______ ____
ROOT
ATOM      1  C   UNL     1       4.249   4.499  18.093  0.00  0.00    +0.000 A 
ATOM      2  C   UNL     1       4.461   3.552  19.115  0.00  0.00    +0.000 A 
ATOM      3  C   UNL     1       3.395   2.966  19.809  0.00  0.00    +0.000 A 
ATOM      4  C   UNL     1       2.084   3.337  19.497  0.00  0.00    +0.000 A 
ATOM      5  C   UNL     1       1.838   4.280  18.496  0.00  0.00    +0.000 A 
ATOM      6  C   UNL     1       2.914   4.846  17.802  0.00  0.00    +0.000 A 
ENDROOT
BRANCH   1  10
ATOM      7  C   UNL     1       7.286   4.741  14.085  0.00  0.00    +0.000 C 
ATOM      8  C   UNL     1       6.840   5.236  15.427  0.00  0.00    +0.000 A 
ATOM      9  C   UNL     1       5.762   4.651  16.084  0.00  0.00    +0.000 A 
ATOM     10  C   UNL     1       5.383   5.106  17.355  0.00  0.00    +0.000 A 
ATOM     11  C   UNL     1       6.129   6.162  17.897  0.00  0.00    +0.000 A 
ATOM     12  C   UNL     1       7.182   6.716  17.175  0.00  0.00    +0.000 A 
ATOM     13  C   UNL     1       7.975   7.862  17.727  0.00  0.00    +0.000 C 
ATOM     14  N   UNL     1       7.545   6.262  15.956  0.00  0.00    +0.000 NA
ENDBRANCH   1  10
BRANCH   4  15
ATOM     15  N   UNL     1       0.960   2.733  20.223  0.00  0.00    +0.000 N 
ATOM     16  O   UNL     1       0.003   2.311  19.556  0.00  0.00    +0.000 OA
ATOM     17  O   UNL     1       1.032   2.680  21.458  0.00  0.00    +0.000 OA
ENDBRANCH   4  15
TORSDOF 2
ENDMDL
MODEL 7
REMARK VINA RESULT:      -7.0      3.822      6.415
REMARK  Name = 
REMARK  4 active torsions:
REMARK  status: ('A' for Active; 'I' for Inactive)
REMARK    1  A    between atoms: C_1  and  C_2
REMARK    2  A    between atoms: C_4  and  C_5
REMARK    3  A    between atoms: C_8  and  N_9
REMARK    4  A    between atoms: C_15  and  C_16
REMARK                            x       y       z     vdW  Elec       q    Type
REMARK                         _______ _______ _______ _____ _____    ______ ____
ROOT
ATOM      1  C   UNL     1       4.254   4.515  18.129  0.00  0.00    +0.000 A 
ATOM      2  C   UNL     1       4.467   3.655  19.225  0.00  0.00    +0.000 A 
ATOM      3  C   UNL     1       3.401   3.075  19.924  0.00  0.00    +0.000 A 
ATOM      4  C   UNL     1       2.089   3.364  19.541  0.00  0.00    +0.000 A 
ATOM      5  C   UNL     1       1.841   4.219  18.465  0.00  0.00    +0.000 A 
ATOM      6  C   UNL     1       2.918   4.780  17.768  0.00  0.00    +0.000 A 
ENDROOT
BRANCH   1  10
ATOM      7  C   UNL     1       7.960   7.897  17.711  0.00  0.00    +0.000 C 
ATOM      8  C   UNL     1       7.179   6.731  17.183  0.00  0.00    +0.000 A 
ATOM      9  C   UNL     1       6.129   6.184  17.914  0.00  0.00    +0.000 A 
ATOM     10  C   UNL     1       5.388   5.117  17.387  0.00  0.00    +0.000 A 
ATOM     11  C   UNL     1       5.770   4.645  16.123  0.00  0.00    +0.000 A 
ATOM     12  C   UNL     1       6.846   5.225  15.457  0.00  0.00    +0.000 A 
ATOM     13  C   UNL     1       7.284   4.718  14.116  0.00  0.00    +0.000 C 
ATOM     14  N   UNL     1       7.545   6.261  15.970  0.00  0.00    +0.000 NA
ENDBRANCH   1  10
BRANCH   4  15
ATOM     15  N   UNL     1       0.965   2.764  20.271  0.00  0.00    +0.000 N 
ATOM     16  O   UNL     1       0.001   2.352  19.608  0.00  0.00    +0.000 OA
ATOM     17  O   UNL     1       1.044   2.705  21.505  0.00  0.00    +0.000 OA
ENDBRANCH   4  15
TORSDOF 2
ENDMDL
MODEL 8
REMARK VINA RESULT:      -7.0      3.774      6.338
REMARK  Name = 
REMARK  4 active torsions:
REMARK  status: ('A' for Active; 'I' for Inactive)
REMARK    1  A    between atoms: C_1  and  C_2
REMARK    2  A    between atoms: C_4  and  C_5
REMARK    3  A    between atoms: C_8  and  N_9
REMARK    4  A    between atoms: C_15  and  C_16
REMARK                            x       y       z     vdW  Elec       q    Type
REMARK                         _______ _______ _______ _____ _____    ______ ____
ROOT
ATOM      1  C   UNL     1       4.246   4.492  18.041  0.00  0.00    +0.000 A 
ATOM      2  C   UNL     1       2.930   4.963  17.865  0.00  0.00    +0.000 A 
ATOM      3  C   UNL     1       1.848   4.397  18.550  0.00  0.00    +0.000 A 
ATOM      4  C   UNL     1       2.068   3.325  19.419  0.00  0.00    +0.000 A 
ATOM      5  C   UNL     1       3.358   2.826  19.610  0.00  0.00    +0.000 A 
ATOM      6  C   UNL     1       4.432   3.413  18.929  0.00  0.00    +0.000 A 
ENDROOT
BRANCH   1  10
ATOM      7  C   UNL     1       7.973   7.863  17.730  0.00  0.00    +0.000 C 
ATOM      8  C   UNL     1       7.190   6.715  17.169  0.00  0.00    +0.000 A 
ATOM      9  C   UNL     1       6.132   6.155  17.879  0.00  0.00    +0.000 A 
ATOM     10  C   UNL     1       5.389   5.105  17.322  0.00  0.00    +0.000 A 
ATOM     11  C   UNL     1       5.776   4.663  16.049  0.00  0.00    +0.000 A 
ATOM     12  C   UNL     1       6.859   5.253  15.404  0.00  0.00    +0.000 A 
ATOM     13  C   UNL     1       7.304   4.777  14.054  0.00  0.00    +0.000 C 
ATOM     14  N   UNL     1       7.560   6.272  15.946  0.00  0.00    +0.000 NA
ENDBRANCH   1  10
BRANCH   4  15
ATOM     15  N   UNL     1       0.938   2.721  20.136  0.00  0.00    +0.000 N 
ATOM     16  O   UNL     1       0.009   2.253  19.461  0.00  0.00    +0.000 OA
ATOM     17  O   UNL     1       0.978   2.713  21.374  0.00  0.00    +0.000 OA
ENDBRANCH   4  15
TORSDOF 2
ENDMDL
MODEL 9
REMARK VINA RESULT:      -6.9      3.912      6.783
REMARK  Name = 
REMARK  4 active torsions:
REMARK  status: ('A' for Active; 'I' for Inactive)
REMARK    1  A    between atoms: C_1  and  C_2
REMARK    2  A    between atoms: C_4  and  C_5
REMARK    3  A    between atoms: C_8  and  N_9
REMARK    4  A    between atoms: C_15  and  C_16
REMARK                            x       y       z     vdW  Elec       q    Type
REMARK                         _______ _______ _______ _____ _____    ______ ____
ROOT
ATOM      1  C   UNL     1       4.487   4.579  18.651  0.00  0.00    +0.000 A 
ATOM      2  C   UNL     1       4.264   3.188  18.701  0.00  0.00    +0.000 A 
ATOM      3  C   UNL     1       3.280   2.630  19.525  0.00  0.00    +0.000 A 
ATOM      4  C   UNL     1       2.504   3.465  20.333  0.00  0.00    +0.000 A 
ATOM      5  C   UNL     1       2.704   4.847  20.316  0.00  0.00    +0.000 A 
ATOM      6  C   UNL     1       3.683   5.391  19.476  0.00  0.00    +0.000 A 
ENDROOT
BRANCH   1  10
ATOM      7  C   UNL     1       7.134   4.611  14.368  0.00  0.00    +0.000 C 
ATOM      8  C   UNL     1       6.794   5.193  15.707  0.00  0.00    +0.000 A 
ATOM      9  C   UNL     1       5.804   4.626  16.503  0.00  0.00    +0.000 A 
ATOM     10  C   UNL     1       5.525   5.164  17.768  0.00  0.00    +0.000 A 
ATOM     11  C   UNL     1       6.276   6.282  18.158  0.00  0.00    +0.000 A 
ATOM     12  C   UNL     1       7.236   6.812  17.301  0.00  0.00    +0.000 A 
ATOM     13  C   UNL     1       8.031   8.022  17.691  0.00  0.00    +0.000 C 
ATOM     14  N   UNL     1       7.504   6.278  16.090  0.00  0.00    +0.000 NA
ENDBRANCH   1  10
BRANCH   4  15
ATOM     15  N   UNL     1       1.472   2.888  21.204  0.00  0.00    +0.000 N 
ATOM     16  O   UNL     1       1.813   2.525  22.340  0.00  0.00    +0.000 OA
ATOM     17  O   UNL     1       0.322   2.796  20.754  0.00  0.00    +0.000 OA
ENDBRANCH   4  15
TORSDOF 2
ENDMDL
