MODEL 1
REMARK VINA RESULT:      -7.8      0.000      0.000
REMARK  Name = 
REMARK  5 active torsions:
REMARK  status: ('A' for Active; 'I' for Inactive)
REMARK    1  A    between atoms: C_2  and  C_3
REMARK    2  A    between atoms: C_8  and  N_9
REMARK    3  A    between atoms: N_9  and  C_10
REMARK    4  A    between atoms: N_9  and  C_20
REMARK    5  A    between atoms: C_10  and  C_11
REMARK                            x       y       z     vdW  Elec       q    Type
REMARK                         _______ _______ _______ _____ _____    ______ ____
ROOT
ATOM      1  N   UNL     1       3.087   5.783  18.169  0.00  0.00    +0.000 N 
ENDROOT
BRANCH   1   7
ATOM      2  C   UNL     1       1.919   2.945  20.013  0.00  0.00    +0.000 A 
ATOM      3  N   UNL     1       1.927   1.894  19.179  0.00  0.00    +0.000 NA
ATOM      4  C   UNL     1       2.282   2.188  17.916  0.00  0.00    +0.000 A 
ATOM      5  C   UNL     1       2.624   3.455  17.476  0.00  0.00    +0.000 A 
ATOM      6  F   UNL     1       2.974   3.610  16.194  0.00  0.00    +0.000 F 
ATOM      7  C   UNL     1       2.654   4.481  18.413  0.00  0.00    +0.000 A 
ATOM      8  N   UNL     1       2.268   4.204  19.686  0.00  0.00    +0.000 NA
BRANCH   2  10
ATOM      9  N   UNL     1       1.167   2.508  22.467  0.00  0.00    +0.000 NA
ATOM     10  C   UNL     1       1.513   2.705  21.382  0.00  0.00    +0.000 C 
ENDBRANCH   2  10
ENDBRANCH   1   7
BRANCH   1  11
ATOM     11  C   UNL     1       4.550   5.996  18.173  0.00  0.00    +0.000 C 
ATOM     12  C   UNL     1       5.146   5.828  16.771  0.00  0.00    +0.000 C 
ATOM     13  C   UNL     1       6.629   6.163  16.739  0.00  0.00    +0.000 C 
ATOM     14  S   UNL     1       7.586   5.068  17.828  0.00  0.00    +0.000 S 
ATOM     15  C   UNL     1       6.693   5.374  19.379  0.00  0.00    +0.000 C 
ATOM     16  C   UNL     1       5.208   5.097  19.231  0.00  0.00    +0.000 C 
ENDBRANCH   1  11
BRANCH   1  17
ATOM     17  C   UNL     1       2.233   6.867  17.661  0.00  0.00    +0.000 C 
BRANCH  17  18
ATOM     18  C   UNL     1       2.062   8.033  18.615  0.00  0.00    +0.000 A 
ATOM     19  C   UNL     1       1.810   9.313  18.049  0.00  0.00    +0.000 A 
ATOM     20  C   UNL     1       1.181  10.309  18.795  0.00  0.00    +0.000 A 
ATOM     21  C   UNL     1       0.836   9.985  20.085  0.00  0.00    +0.000 A 
ATOM     22  C   UNL     1       1.263   8.819  20.685  0.00  0.00    +0.000 A 
ATOM     23  C   UNL     1       1.928   7.845  19.993  0.00  0.00    +0.000 A 
ATOM     24  O   UNL     1       0.738   8.661  21.934  0.00  0.00    +0.000 OA
ATOM     25  C   UNL     1      -0.363   9.580  21.804  0.00  0.00    +0.000 C 
ATOM     26  O   UNL     1      -0.070  10.639  20.868  0.00  0.00    +0.000 OA
ENDBRANCH  17  18
ENDBRANCH   1  17
TORSDOF 5
ENDMDL
MODEL 2
REMARK VINA RESULT:      -7.6      0.645      1.225
REMARK  Name = 
REMARK  5 active torsions:
REMARK  status: ('A' for Active; 'I' for Inactive)
REMARK    1  A    between atoms: C_2  and  C_3
REMARK    2  A    between atoms: C_8  and  N_9
REMARK    3  A    between atoms: N_9  and  C_10
REMARK    4  A    between atoms: N_9  and  C_20
REMARK    5  A    between atoms: C_10  and  C_11
REMARK                            x       y       z     vdW  Elec       q    Type
REMARK                         _______ _______ _______ _____ _____    ______ ____
ROOT
ATOM      1  N   UNL     1       3.511   5.478  17.946  0.00  0.00    +0.000 N 
ENDROOT
BRANCH   1   7
ATOM      2  C   UNL     1       2.032   2.888  19.927  0.00  0.00    +0.000 A 
ATOM      3  N   UNL     1       1.885   1.814  19.136  0.00  0.00    +0.000 NA
ATOM      4  C   UNL     1       2.244   2.011  17.856  0.00  0.00    +0.000 A 
ATOM      5  C   UNL     1       2.735   3.205  17.358  0.00  0.00    +0.000 A 
ATOM      6  F   UNL     1       3.071   3.265  16.064  0.00  0.00    +0.000 F 
ATOM      7  C   UNL     1       2.920   4.254  18.251  0.00  0.00    +0.000 A 
ATOM      8  N   UNL     1       2.533   4.077  19.542  0.00  0.00    +0.000 NA
BRANCH   2  10
ATOM      9  N   UNL     1       1.311   2.673  22.419  0.00  0.00    +0.000 NA
ATOM     10  C   UNL     1       1.633   2.755  21.312  0.00  0.00    +0.000 C 
ENDBRANCH   2  10
ENDBRANCH   1   7
BRANCH   1  11
ATOM     11  C   UNL     1       4.989   5.502  17.924  0.00  0.00    +0.000 C 
ATOM     12  C   UNL     1       5.571   5.603  19.338  0.00  0.00    +0.000 C 
ATOM     13  C   UNL     1       7.088   5.507  19.337  0.00  0.00    +0.000 C 
ATOM     14  S   UNL     1       7.844   6.856  18.383  0.00  0.00    +0.000 S 
ATOM     15  C   UNL     1       6.989   6.590  16.804  0.00  0.00    +0.000 C 
ATOM     16  C   UNL     1       5.480   6.608  16.977  0.00  0.00    +0.000 C 
ENDBRANCH   1  11
BRANCH   1  17
ATOM     17  C   UNL     1       2.793   6.640  17.402  0.00  0.00    +0.000 C 
BRANCH  17  18
ATOM     18  C   UNL     1       2.458   7.709  18.423  0.00  0.00    +0.000 A 
ATOM     19  C   UNL     1       2.104   8.997  17.935  0.00  0.00    +0.000 A 
ATOM     20  C   UNL     1       1.341   9.868  18.713  0.00  0.00    +0.000 A 
ATOM     21  C   UNL     1       0.969   9.415  19.956  0.00  0.00    +0.000 A 
ATOM     22  C   UNL     1       1.482   8.255  20.495  0.00  0.00    +0.000 A 
ATOM     23  C   UNL     1       2.276   7.405  19.776  0.00  0.00    +0.000 A 
ATOM     24  O   UNL     1       0.915   7.952  21.699  0.00  0.00    +0.000 OA
ATOM     25  C   UNL     1      -0.266   8.766  21.572  0.00  0.00    +0.000 C 
ATOM     26  O   UNL     1      -0.037   9.916  20.730  0.00  0.00    +0.000 OA
ENDBRANCH  17  18
ENDBRANCH   1  17
TORSDOF 5
ENDMDL
MODEL 3
REMARK VINA RESULT:      -7.6      3.646      5.905
REMARK  Name = 
REMARK  5 active torsions:
REMARK  status: ('A' for Active; 'I' for Inactive)
REMARK    1  A    between atoms: C_2  and  C_3
REMARK    2  A    between atoms: C_8  and  N_9
REMARK    3  A    between atoms: N_9  and  C_10
REMARK    4  A    between atoms: N_9  and  C_20
REMARK    5  A    between atoms: C_10  and  C_11
REMARK                            x       y       z     vdW  Elec       q    Type
REMARK                         _______ _______ _______ _____ _____    ______ ____
ROOT
ATOM      1  N   UNL     1       3.369   6.172  18.669  0.00  0.00    +0.000 N 
ENDROOT
BRANCH   1   7
ATOM      2  C   UNL     1       3.667   2.737  19.631  0.00  0.00    +0.000 A 
ATOM      3  N   UNL     1       2.722   2.051  18.970  0.00  0.00    +0.000 NA
ATOM      4  C   UNL     1       1.907   2.812  18.217  0.00  0.00    +0.000 A 
ATOM      5  C   UNL     1       2.007   4.187  18.104  0.00  0.00    +0.000 A 
ATOM      6  F   UNL     1       1.141   4.825  17.308  0.00  0.00    +0.000 F 
ATOM      7  C   UNL     1       3.051   4.819  18.768  0.00  0.00    +0.000 A 
ATOM      8  N   UNL     1       3.864   4.067  19.556  0.00  0.00    +0.000 NA
BRANCH   2  10
ATOM      9  N   UNL     1       5.273   1.400  21.185  0.00  0.00    +0.000 NA
ATOM     10  C   UNL     1       4.560   1.983  20.486  0.00  0.00    +0.000 C 
ENDBRANCH   2  10
ENDBRANCH   1   7
BRANCH   1  11
ATOM     11  C   UNL     1       2.244   7.120  18.823  0.00  0.00    +0.000 C 
ATOM     12  C   UNL     1       2.406   8.337  17.906  0.00  0.00    +0.000 C 
ATOM     13  C   UNL     1       1.198   9.259  17.966  0.00  0.00    +0.000 C 
ATOM     14  S   UNL     1       0.941   9.918  19.639  0.00  0.00    +0.000 S 
ATOM     15  C   UNL     1       0.838   8.347  20.542  0.00  0.00    +0.000 C 
ATOM     16  C   UNL     1       2.067   7.487  20.304  0.00  0.00    +0.000 C 
ENDBRANCH   1  11
BRANCH   1  17
ATOM     17  C   UNL     1       4.735   6.714  18.690  0.00  0.00    +0.000 C 
BRANCH  17  18
ATOM     18  C   UNL     1       5.609   6.266  17.535  0.00  0.00    +0.000 A 
ATOM     19  C   UNL     1       6.761   5.493  17.844  0.00  0.00    +0.000 A 
ATOM     20  C   UNL     1       7.334   4.655  16.887  0.00  0.00    +0.000 A 
ATOM     21  C   UNL     1       6.732   4.632  15.652  0.00  0.00    +0.000 A 
ATOM     22  C   UNL     1       5.745   5.529  15.303  0.00  0.00    +0.000 A 
ATOM     23  C   UNL     1       5.199   6.400  16.205  0.00  0.00    +0.000 A 
ATOM     24  O   UNL     1       5.232   5.274  14.065  0.00  0.00    +0.000 OA
ATOM     25  C   UNL     1       5.674   3.909  13.945  0.00  0.00    +0.000 C 
ATOM     26  O   UNL     1       6.880   3.667  14.699  0.00  0.00    +0.000 OA
ENDBRANCH  17  18
ENDBRANCH   1  17
TORSDOF 5
ENDMDL
MODEL 4
REMARK VINA RESULT:      -7.5      3.920      6.178
REMARK  Name = 
REMARK  5 active torsions:
REMARK  status: ('A' for Active; 'I' for Inactive)
REMARK    1  A    between atoms: C_2  and  C_3
REMARK    2  A    between atoms: C_8  and  N_9
REMARK    3  A    between atoms: N_9  and  C_10
REMARK    4  A    between atoms: N_9  and  C_20
REMARK    5  A    between atoms: C_10  and  C_11
REMARK                            x       y       z     vdW  Elec       q    Type
REMARK                         _______ _______ _______ _____ _____    ______ ____
ROOT
ATOM      1  N   UNL     1       3.375   5.869  18.146  0.00  0.00    +0.000 N 
ENDROOT
BRANCH   1   7
ATOM      2  C   UNL     1       3.646   2.629  19.645  0.00  0.00    +0.000 A 
ATOM      3  N   UNL     1       2.613   1.896  19.203  0.00  0.00    +0.000 NA
ATOM      4  C   UNL     1       1.753   2.563  18.413  0.00  0.00    +0.000 A 
ATOM      5  C   UNL     1       1.891   3.893  18.059  0.00  0.00    +0.000 A 
ATOM      6  F   UNL     1       0.971   4.435  17.252  0.00  0.00    +0.000 F 
ATOM      7  C   UNL     1       3.020   4.570  18.503  0.00  0.00    +0.000 A 
ATOM      8  N   UNL     1       3.882   3.917  19.327  0.00  0.00    +0.000 NA
BRANCH   2  10
ATOM      9  N   UNL     1       5.336   1.471  21.252  0.00  0.00    +0.000 NA
ATOM     10  C   UNL     1       4.593   1.982  20.528  0.00  0.00    +0.000 C 
ENDBRANCH   2  10
ENDBRANCH   1   7
BRANCH   1  11
ATOM     11  C   UNL     1       2.379   6.922  18.438  0.00  0.00    +0.000 C 
ATOM     12  C   UNL     1       2.649   8.193  17.625  0.00  0.00    +0.000 C 
ATOM     13  C   UNL     1       1.564   9.239  17.825  0.00  0.00    +0.000 C 
ATOM     14  S   UNL     1       1.452   9.764  19.560  0.00  0.00    +0.000 S 
ATOM     15  C   UNL     1       1.197   8.137  20.325  0.00  0.00    +0.000 C 
ATOM     16  C   UNL     1       2.303   7.167  19.952  0.00  0.00    +0.000 C 
ENDBRANCH   1  11
BRANCH   1  17
ATOM     17  C   UNL     1       4.730   6.290  17.759  0.00  0.00    +0.000 C 
BRANCH  17  18
ATOM     18  C   UNL     1       5.424   5.359  16.785  0.00  0.00    +0.000 A 
ATOM     19  C   UNL     1       4.643   4.334  16.184  0.00  0.00    +0.000 A 
ATOM     20  C   UNL     1       5.030   3.763  14.971  0.00  0.00    +0.000 A 
ATOM     21  C   UNL     1       6.193   4.237  14.413  0.00  0.00    +0.000 A 
ATOM     22  C   UNL     1       7.042   5.080  15.097  0.00  0.00    +0.000 A 
ATOM     23  C   UNL     1       6.715   5.616  16.313  0.00  0.00    +0.000 A 
ATOM     24  O   UNL     1       8.091   5.490  14.328  0.00  0.00    +0.000 OA
ATOM     25  C   UNL     1       7.520   5.190  13.040  0.00  0.00    +0.000 C 
ATOM     26  O   UNL     1       6.579   4.099  13.111  0.00  0.00    +0.000 OA
ENDBRANCH  17  18
ENDBRANCH   1  17
TORSDOF 5
ENDMDL
MODEL 5
REMARK VINA RESULT:      -7.5      3.367      5.679
REMARK  Name = 
REMARK  5 active torsions:
REMARK  status: ('A' for Active; 'I' for Inactive)
REMARK    1  A    between atoms: C_2  and  C_3
REMARK    2  A    between atoms: C_8  and  N_9
REMARK    3  A    between atoms: N_9  and  C_10
REMARK    4  A    between atoms: N_9  and  C_20
REMARK    5  A    between atoms: C_10  and  C_11
REMARK                            x       y       z     vdW  Elec       q    Type
REMARK                         _______ _______ _______ _____ _____    ______ ____
ROOT
ATOM      1  N   UNL     1       3.276   6.035  18.906  0.00  0.00    +0.000 N 
ENDROOT
BRANCH   1   7
ATOM      2  C   UNL     1       1.968   2.968  20.211  0.00  0.00    +0.000 A 
ATOM      3  N   UNL     1       2.014   2.060  19.225  0.00  0.00    +0.000 NA
ATOM      4  C   UNL     1       2.447   2.540  18.046  0.00  0.00    +0.000 A 
ATOM      5  C   UNL     1       2.828   3.853  17.831  0.00  0.00    +0.000 A 
ATOM      6  F   UNL     1       3.256   4.200  16.611  0.00  0.00    +0.000 F 
ATOM      7  C   UNL     1       2.814   4.720  18.917  0.00  0.00    +0.000 A 
ATOM      8  N   UNL     1       2.351   4.255  20.107  0.00  0.00    +0.000 NA
BRANCH   2  10
ATOM      9  N   UNL     1       1.086   2.150  22.521  0.00  0.00    +0.000 NA
ATOM     10  C   UNL     1       1.480   2.526  21.501  0.00  0.00    +0.000 C 
ENDBRANCH   2  10
ENDBRANCH   1   7
BRANCH   1  11
ATOM     11  C   UNL     1       2.240   7.090  18.898  0.00  0.00    +0.000 C 
ATOM     12  C   UNL     1       2.550   8.174  17.859  0.00  0.00    +0.000 C 
ATOM     13  C   UNL     1       1.433   9.200  17.757  0.00  0.00    +0.000 C 
ATOM     14  S   UNL     1       1.175  10.069  19.331  0.00  0.00    +0.000 S 
ATOM     15  C   UNL     1       0.891   8.627  20.398  0.00  0.00    +0.000 C 
ATOM     16  C   UNL     1       2.041   7.640  20.318  0.00  0.00    +0.000 C 
ENDBRANCH   1  11
BRANCH   1  17
ATOM     17  C   UNL     1       4.667   6.435  19.164  0.00  0.00    +0.000 C 
BRANCH  17  18
ATOM     18  C   UNL     1       5.636   6.100  18.048  0.00  0.00    +0.000 A 
ATOM     19  C   UNL     1       6.686   5.188  18.341  0.00  0.00    +0.000 A 
ATOM     20  C   UNL     1       7.307   4.466  17.320  0.00  0.00    +0.000 A 
ATOM     21  C   UNL     1       6.855   4.695  16.044  0.00  0.00    +0.000 A 
ATOM     22  C   UNL     1       5.982   5.721  15.750  0.00  0.00    +0.000 A 
ATOM     23  C   UNL     1       5.397   6.482  16.724  0.00  0.00    +0.000 A 
ATOM     24  O   UNL     1       5.602   5.715  14.440  0.00  0.00    +0.000 OA
ATOM     25  C   UNL     1       5.957   4.352  14.138  0.00  0.00    +0.000 C 
ATOM     26  O   UNL     1       7.046   3.886  14.961  0.00  0.00    +0.000 OA
ENDBRANCH  17  18
ENDBRANCH   1  17
TORSDOF 5
ENDMDL
MODEL 6
REMARK VINA RESULT:      -7.4      2.036      2.492
REMARK  Name = 
REMARK  5 active torsions:
REMARK  status: ('A' for Active; 'I' for Inactive)
REMARK    1  A    between atoms: C_2  and  C_3
REMARK    2  A    between atoms: C_8  and  N_9
REMARK    3  A    between atoms: N_9  and  C_10
REMARK    4  A    between atoms: N_9  and  C_20
REMARK    5  A    between atoms: C_10  and  C_11
REMARK                            x       y       z     vdW  Elec       q    Type
REMARK                         _______ _______ _______ _____ _____    ______ ____
ROOT
ATOM      1  N   UNL     1       3.375   4.650  18.748  0.00  0.00    +0.000 N 
ENDROOT
BRANCH   1   7
ATOM      2  C   UNL     1       3.933   2.120  21.219  0.00  0.00    +0.000 A 
ATOM      3  N   UNL     1       2.780   1.948  21.884  0.00  0.00    +0.000 NA
ATOM      4  C   UNL     1       1.794   2.783  21.514  0.00  0.00    +0.000 A 
ATOM      5  C   UNL     1       1.917   3.748  20.529  0.00  0.00    +0.000 A 
ATOM      6  F   UNL     1       0.852   4.507  20.245  0.00  0.00    +0.000 F 
ATOM      7  C   UNL     1       3.121   3.824  19.840  0.00  0.00    +0.000 A 
ATOM      8  N   UNL     1       4.136   3.006  20.224  0.00  0.00    +0.000 NA
BRANCH   2  10
ATOM      9  N   UNL     1       5.953   0.620  21.888  0.00  0.00    +0.000 NA
ATOM     10  C   UNL     1       5.048   1.274  21.590  0.00  0.00    +0.000 C 
ENDBRANCH   2  10
ENDBRANCH   1   7
BRANCH   1  11
ATOM     11  C   UNL     1       4.665   4.440  18.056  0.00  0.00    +0.000 C 
ATOM     12  C   UNL     1       5.646   5.584  18.335  0.00  0.00    +0.000 C 
ATOM     13  C   UNL     1       7.015   5.321  17.729  0.00  0.00    +0.000 C 
ATOM     14  S   UNL     1       6.928   5.161  15.922  0.00  0.00    +0.000 S 
ATOM     15  C   UNL     1       5.699   3.828  15.822  0.00  0.00    +0.000 C 
ATOM     16  C   UNL     1       4.423   4.191  16.560  0.00  0.00    +0.000 C 
ENDBRANCH   1  11
BRANCH   1  17
ATOM     17  C   UNL     1       2.372   5.503  18.093  0.00  0.00    +0.000 C 
BRANCH  17  18
ATOM     18  C   UNL     1       2.365   6.944  18.566  0.00  0.00    +0.000 A 
ATOM     19  C   UNL     1       2.415   7.961  17.574  0.00  0.00    +0.000 A 
ATOM     20  C   UNL     1       1.942   9.245  17.848  0.00  0.00    +0.000 A 
ATOM     21  C   UNL     1       1.445   9.460  19.110  0.00  0.00    +0.000 A 
ATOM     22  C   UNL     1       1.585   8.532  20.120  0.00  0.00    +0.000 A 
ATOM     23  C   UNL     1       2.094   7.282  19.895  0.00  0.00    +0.000 A 
ATOM     24  O   UNL     1       0.948   8.914  21.264  0.00  0.00    +0.000 OA
ATOM     25  C   UNL     1       0.065   9.890  20.681  0.00  0.00    +0.000 C 
ATOM     26  O   UNL     1       0.630  10.486  19.494  0.00  0.00    +0.000 OA
ENDBRANCH  17  18
ENDBRANCH   1  17
TORSDOF 5
ENDMDL
MODEL 7
REMARK VINA RESULT:      -7.4      3.475      6.332
REMARK  Name = 
REMARK  5 active torsions:
REMARK  status: ('A' for Active; 'I' for Inactive)
REMARK    1  A    between atoms: C_2  and  C_3
REMARK    2  A    between atoms: C_8  and  N_9
REMARK    3  A    between atoms: N_9  and  C_10
REMARK    4  A    between atoms: N_9  and  C_20
REMARK    5  A    between atoms: C_10  and  C_11
REMARK                            x       y       z     vdW  Elec       q    Type
REMARK                         _______ _______ _______ _____ _____    ______ ____
ROOT
ATOM      1  N   UNL     1       3.098   6.427  18.251  0.00  0.00    +0.000 N 
ENDROOT
BRANCH   1   7
ATOM      2  C   UNL     1       6.629   5.973  18.636  0.00  0.00    +0.000 A 
ATOM      3  N   UNL     1       7.207   6.329  17.480  0.00  0.00    +0.000 NA
ATOM      4  C   UNL     1       6.344   6.673  16.508  0.00  0.00    +0.000 A 
ATOM      5  C   UNL     1       4.968   6.678  16.652  0.00  0.00    +0.000 A 
ATOM      6  F   UNL     1       4.220   7.056  15.609  0.00  0.00    +0.000 F 
ATOM      7  C   UNL     1       4.445   6.358  17.899  0.00  0.00    +0.000 A 
ATOM      8  N   UNL     1       5.304   5.980  18.882  0.00  0.00    +0.000 NA
BRANCH   2  10
ATOM      9  N   UNL     1       8.213   5.241  20.569  0.00  0.00    +0.000 NA
ATOM     10  C   UNL     1       7.499   5.559  19.717  0.00  0.00    +0.000 C 
ENDBRANCH   2  10
ENDBRANCH   1   7
BRANCH   1  11
ATOM     11  C   UNL     1       2.641   7.705  18.838  0.00  0.00    +0.000 C 
ATOM     12  C   UNL     1       1.804   7.476  20.101  0.00  0.00    +0.000 C 
ATOM     13  C   UNL     1       1.430   8.784  20.780  0.00  0.00    +0.000 C 
ATOM     14  S   UNL     1       0.428   9.841  19.695  0.00  0.00    +0.000 S 
ATOM     15  C   UNL     1       1.558   9.929  18.276  0.00  0.00    +0.000 C 
ATOM     16  C   UNL     1       1.925   8.546  17.770  0.00  0.00    +0.000 C 
ENDBRANCH   1  11
BRANCH   1  17
ATOM     17  C   UNL     1       2.077   5.450  17.847  0.00  0.00    +0.000 C 
BRANCH  17  18
ATOM     18  C   UNL     1       2.329   4.037  18.335  0.00  0.00    +0.000 A 
ATOM     19  C   UNL     1       2.674   3.057  17.364  0.00  0.00    +0.000 A 
ATOM     20  C   UNL     1       3.372   1.906  17.731  0.00  0.00    +0.000 A 
ATOM     21  C   UNL     1       3.689   1.778  19.062  0.00  0.00    +0.000 A 
ATOM     22  C   UNL     1       3.178   2.628  20.020  0.00  0.00    +0.000 A 
ATOM     23  C   UNL     1       2.446   3.737  19.696  0.00  0.00    +0.000 A 
ATOM     24  O   UNL     1       3.687   2.371  21.260  0.00  0.00    +0.000 OA
ATOM     25  C   UNL     1       4.852   1.632  20.846  0.00  0.00    +0.000 C 
ATOM     26  O   UNL     1       4.638   0.952  19.590  0.00  0.00    +0.000 OA
ENDBRANCH  17  18
ENDBRANCH   1  17
TORSDOF 5
ENDMDL
MODEL 8
REMARK VINA RESULT:      -7.4      2.353      4.345
REMARK  Name = 
REMARK  5 active torsions:
REMARK  status: ('A' for Active; 'I' for Inactive)
REMARK    1  A    between atoms: C_2  and  C_3
REMARK    2  A    between atoms: C_8  and  N_9
REMARK    3  A    between atoms: N_9  and  C_10
REMARK    4  A    between atoms: N_9  and  C_20
REMARK    5  A    between atoms: C_10  and  C_11
REMARK                            x       y       z     vdW  Elec       q    Type
REMARK                         _______ _______ _______ _____ _____    ______ ____
ROOT
ATOM      1  N   UNL     1       3.570   5.339  18.133  0.00  0.00    +0.000 N 
ENDROOT
BRANCH   1   7
ATOM      2  C   UNL     1       6.735   6.733  17.206  0.00  0.00    +0.000 A 
ATOM      3  N   UNL     1       7.146   6.095  16.100  0.00  0.00    +0.000 NA
ATOM      4  C   UNL     1       6.336   5.100  15.698  0.00  0.00    +0.000 A 
ATOM      5  C   UNL     1       5.165   4.739  16.341  0.00  0.00    +0.000 A 
ATOM      6  F   UNL     1       4.440   3.738  15.828  0.00  0.00    +0.000 F 
ATOM      7  C   UNL     1       4.772   5.488  17.443  0.00  0.00    +0.000 A 
ATOM      8  N   UNL     1       5.596   6.477  17.878  0.00  0.00    +0.000 NA
BRANCH   2  10
ATOM      9  N   UNL     1       8.260   8.647  18.096  0.00  0.00    +0.000 NA
ATOM     10  C   UNL     1       7.578   7.795  17.714  0.00  0.00    +0.000 C 
ENDBRANCH   2  10
ENDBRANCH   1   7
BRANCH   1  11
ATOM     11  C   UNL     1       3.633   4.571  19.395  0.00  0.00    +0.000 C 
ATOM     12  C   UNL     1       4.178   3.157  19.166  0.00  0.00    +0.000 C 
ATOM     13  C   UNL     1       4.361   2.399  20.471  0.00  0.00    +0.000 C 
ATOM     14  S   UNL     1       2.786   2.195  21.353  0.00  0.00    +0.000 S 
ATOM     15  C   UNL     1       2.303   3.942  21.462  0.00  0.00    +0.000 C 
ATOM     16  C   UNL     1       2.264   4.595  20.092  0.00  0.00    +0.000 C 
ENDBRANCH   1  11
BRANCH   1  17
ATOM     17  C   UNL     1       2.341   6.092  17.844  0.00  0.00    +0.000 C 
BRANCH  17  18
ATOM     18  C   UNL     1       2.293   7.478  18.457  0.00  0.00    +0.000 A 
ATOM     19  C   UNL     1       2.408   8.590  17.578  0.00  0.00    +0.000 A 
ATOM     20  C   UNL     1       1.910   9.841  17.945  0.00  0.00    +0.000 A 
ATOM     21  C   UNL     1       1.323   9.929  19.183  0.00  0.00    +0.000 A 
ATOM     22  C   UNL     1       1.396   8.904  20.102  0.00  0.00    +0.000 A 
ATOM     23  C   UNL     1       1.926   7.682  19.791  0.00  0.00    +0.000 A 
ATOM     24  O   UNL     1       0.676   9.171  21.230  0.00  0.00    +0.000 OA
ATOM     25  C   UNL     1      -0.169  10.202  20.686  0.00  0.00    +0.000 C 
ATOM     26  O   UNL     1       0.477  10.913  19.608  0.00  0.00    +0.000 OA
ENDBRANCH  17  18
ENDBRANCH   1  17
TORSDOF 5
ENDMDL
MODEL 9
REMARK VINA RESULT:      -7.3      2.704      4.554
REMARK  Name = 
REMARK  5 active torsions:
REMARK  status: ('A' for Active; 'I' for Inactive)
REMARK    1  A    between atoms: C_2  and  C_3
REMARK    2  A    between atoms: C_8  and  N_9
REMARK    3  A    between atoms: N_9  and  C_10
REMARK    4  A    between atoms: N_9  and  C_20
REMARK    5  A    between atoms: C_10  and  C_11
REMARK                            x       y       z     vdW  Elec       q    Type
REMARK                         _______ _______ _______ _____ _____    ______ ____
ROOT
ATOM      1  N   UNL     1       3.685   4.928  18.292  0.00  0.00    +0.000 N 
ENDROOT
BRANCH   1   7
ATOM      2  C   UNL     1       6.242   4.556  15.813  0.00  0.00    +0.000 A 
ATOM      3  N   UNL     1       7.412   4.860  16.395  0.00  0.00    +0.000 NA
ATOM      4  C   UNL     1       7.309   5.275  17.670  0.00  0.00    +0.000 A 
ATOM      5  C   UNL     1       6.114   5.386  18.360  0.00  0.00    +0.000 A 
ATOM      6  F   UNL     1       6.151   5.798  19.633  0.00  0.00    +0.000 F 
ATOM      7  C   UNL     1       4.950   4.993  17.711  0.00  0.00    +0.000 A 
ATOM      8  N   UNL     1       5.037   4.600  16.413  0.00  0.00    +0.000 NA
BRANCH   2  10
ATOM      9  N   UNL     1       6.288   3.778  13.329  0.00  0.00    +0.000 NA
ATOM     10  C   UNL     1       6.277   4.133  14.429  0.00  0.00    +0.000 C 
ENDBRANCH   2  10
ENDBRANCH   1   7
BRANCH   1  11
ATOM     11  C   UNL     1       3.597   4.218  19.586  0.00  0.00    +0.000 C 
ATOM     12  C   UNL     1       4.159   2.796  19.487  0.00  0.00    +0.000 C 
ATOM     13  C   UNL     1       4.185   2.098  20.837  0.00  0.00    +0.000 C 
ATOM     14  S   UNL     1       2.517   1.933  21.537  0.00  0.00    +0.000 S 
ATOM     15  C   UNL     1       2.031   3.682  21.509  0.00  0.00    +0.000 C 
ATOM     16  C   UNL     1       2.156   4.272  20.116  0.00  0.00    +0.000 C 
ENDBRANCH   1  11
BRANCH   1  17
ATOM     17  C   UNL     1       2.524   5.719  17.858  0.00  0.00    +0.000 C 
BRANCH  17  18
ATOM     18  C   UNL     1       2.461   7.117  18.439  0.00  0.00    +0.000 A 
ATOM     19  C   UNL     1       2.518   8.210  17.531  0.00  0.00    +0.000 A 
ATOM     20  C   UNL     1       2.001   9.457  17.885  0.00  0.00    +0.000 A 
ATOM     21  C   UNL     1       1.454   9.560  19.141  0.00  0.00    +0.000 A 
ATOM     22  C   UNL     1       1.584   8.560  20.080  0.00  0.00    +0.000 A 
ATOM     23  C   UNL     1       2.134   7.344  19.780  0.00  0.00    +0.000 A 
ATOM     24  O   UNL     1       0.896   8.836  21.226  0.00  0.00    +0.000 OA
ATOM     25  C   UNL     1       0.008   9.833  20.686  0.00  0.00    +0.000 C 
ATOM     26  O   UNL     1       0.598  10.533  19.571  0.00  0.00    +0.000 OA
ENDBRANCH  17  18
ENDBRANCH   1  17
TORSDOF 5
ENDMDL
