MODEL 1
REMARK VINA RESULT:      -7.9      0.000      0.000
REMARK  Name = 
REMARK  4 active torsions:
REMARK  status: ('A' for Active; 'I' for Inactive)
REMARK    1  A    between atoms: C_2  and  C_13
REMARK    2  A    between atoms: N_3  and  N_4
REMARK    3  A    between atoms: C_5  and  C_6
REMARK    4  A    between atoms: C_9  and  O_10
REMARK                            x       y       z     vdW  Elec       q    Type
REMARK                         _______ _______ _______ _____ _____    ______ ____
ROOT
ATOM      1  O   UNL     1       8.109   5.646  19.602  0.00  0.00    +0.000 OA
ATOM      2  C   UNL     1       7.433   6.047  18.659  0.00  0.00    +0.000 C 
ATOM      3  N   UNL     1       7.596   7.279  18.034  0.00  0.00    +0.000 N 
ATOM      4  H   UNL     1       7.088   7.508  17.191  0.00  0.00    +0.000 HD
ENDROOT
BRANCH   2   5
ATOM      5  C   UNL     1       6.392   5.215  18.073  0.00  0.00    +0.000 A 
ATOM      6  C   UNL     1       6.525   4.361  16.994  0.00  0.00    +0.000 A 
ATOM      7  O   UNL     1       5.361   3.724  16.724  0.00  0.00    +0.000 OA
ATOM      8  C   UNL     1       4.438   4.179  17.615  0.00  0.00    +0.000 A 
ATOM      9  C   UNL     1       3.102   3.782  17.696  0.00  0.00    +0.000 A 
ATOM     10 CL   UNL     1       2.447   2.600  16.639  0.00  0.00    +0.000 Cl
ATOM     11  C   UNL     1       2.311   4.376  18.680  0.00  0.00    +0.000 A 
ATOM     12  C   UNL     1       2.855   5.334  19.536  0.00  0.00    +0.000 A 
ATOM     13 CL   UNL     1       1.850   6.056  20.734  0.00  0.00    +0.000 Cl
ATOM     14  C   UNL     1       4.200   5.721  19.445  0.00  0.00    +0.000 A 
ATOM     15  C   UNL     1       5.015   5.123  18.461  0.00  0.00    +0.000 A 
ENDBRANCH   2   5
BRANCH   3  16
ATOM     16  N   UNL     1       8.533   8.150  18.498  0.00  0.00    +0.000 NA
ATOM     17  C   UNL     1       8.360   9.398  18.204  0.00  0.00    +0.000 C 
BRANCH  17  18
ATOM     18  C   UNL     1       9.315  10.421  18.676  0.00  0.00    +0.000 A 
ATOM     19  C   UNL     1       9.412  10.707  20.043  0.00  0.00    +0.000 A 
ATOM     20  C   UNL     1      10.299  11.684  20.492  0.00  0.00    +0.000 A 
ATOM     21  C   UNL     1      11.084  12.366  19.568  0.00  0.00    +0.000 A 
ATOM     22  C   UNL     1      10.999  12.083  18.207  0.00  0.00    +0.000 A 
ATOM     23  C   UNL     1      10.111  11.104  17.754  0.00  0.00    +0.000 A 
BRANCH  21  24
ATOM     24  O   UNL     1      11.957  13.335  19.964  0.00  0.00    +0.000 OA
ATOM     25  H   UNL     1      11.499  14.191  19.943  0.00  0.00    +0.000 HD
ENDBRANCH  21  24
ENDBRANCH  17  18
ENDBRANCH   3  16
TORSDOF 4
ENDMDL
MODEL 2
REMARK VINA RESULT:      -7.7      0.207      1.032
REMARK  Name = 
REMARK  4 active torsions:
REMARK  status: ('A' for Active; 'I' for Inactive)
REMARK    1  A    between atoms: C_2  and  C_13
REMARK    2  A    between atoms: N_3  and  N_4
REMARK    3  A    between atoms: C_5  and  C_6
REMARK    4  A    between atoms: C_9  and  O_10
REMARK                            x       y       z     vdW  Elec       q    Type
REMARK                         _______ _______ _______ _____ _____    ______ ____
ROOT
ATOM      1  O   UNL     1       8.124   5.770  19.469  0.00  0.00    +0.000 OA
ATOM      2  C   UNL     1       7.428   6.170  18.540  0.00  0.00    +0.000 C 
ATOM      3  N   UNL     1       7.599   7.388  17.890  0.00  0.00    +0.000 N 
ATOM      4  H   UNL     1       7.070   7.615  17.058  0.00  0.00    +0.000 HD
ENDROOT
BRANCH   2   5
ATOM      5  C   UNL     1       6.351   5.353  18.001  0.00  0.00    +0.000 A 
ATOM      6  C   UNL     1       6.441   4.451  16.956  0.00  0.00    +0.000 A 
ATOM      7  O   UNL     1       5.252   3.846  16.725  0.00  0.00    +0.000 OA
ATOM      8  C   UNL     1       4.356   4.370  17.607  0.00  0.00    +0.000 A 
ATOM      9  C   UNL     1       3.008   4.024  17.719  0.00  0.00    +0.000 A 
ATOM     10 CL   UNL     1       2.299   2.824  16.719  0.00  0.00    +0.000 Cl
ATOM     11  C   UNL     1       2.251   4.687  18.685  0.00  0.00    +0.000 A 
ATOM     12  C   UNL     1       2.838   5.659  19.494  0.00  0.00    +0.000 A 
ATOM     13 CL   UNL     1       1.874   6.465  20.673  0.00  0.00    +0.000 Cl
ATOM     14  C   UNL     1       4.195   5.993  19.374  0.00  0.00    +0.000 A 
ATOM     15  C   UNL     1       4.976   5.327  18.406  0.00  0.00    +0.000 A 
ENDBRANCH   2   5
BRANCH   3  16
ATOM     16  N   UNL     1       8.569   8.245  18.309  0.00  0.00    +0.000 NA
ATOM     17  C   UNL     1       8.300   9.509  18.229  0.00  0.00    +0.000 C 
BRANCH  17  18
ATOM     18  C   UNL     1       9.284  10.516  18.676  0.00  0.00    +0.000 A 
ATOM     19  C   UNL     1      10.099  11.159  17.737  0.00  0.00    +0.000 A 
ATOM     20  C   UNL     1      11.042  12.096  18.156  0.00  0.00    +0.000 A 
ATOM     21  C   UNL     1      11.160  12.384  19.512  0.00  0.00    +0.000 A 
ATOM     22  C   UNL     1      10.348  11.753  20.453  0.00  0.00    +0.000 A 
ATOM     23  C   UNL     1       9.402  10.813  20.036  0.00  0.00    +0.000 A 
BRANCH  21  24
ATOM     24  O   UNL     1      12.075  13.287  19.965  0.00  0.00    +0.000 OA
ATOM     25  H   UNL     1      12.251  13.105  20.903  0.00  0.00    +0.000 HD
ENDBRANCH  21  24
ENDBRANCH  17  18
ENDBRANCH   3  16
TORSDOF 4
ENDMDL
MODEL 3
REMARK VINA RESULT:      -7.6      5.174      7.505
REMARK  Name = 
REMARK  4 active torsions:
REMARK  status: ('A' for Active; 'I' for Inactive)
REMARK    1  A    between atoms: C_2  and  C_13
REMARK    2  A    between atoms: N_3  and  N_4
REMARK    3  A    between atoms: C_5  and  C_6
REMARK    4  A    between atoms: C_9  and  O_10
REMARK                            x       y       z     vdW  Elec       q    Type
REMARK                         _______ _______ _______ _____ _____    ______ ____
ROOT
ATOM      1  O   UNL     1       2.413   5.169  20.511  0.00  0.00    +0.000 OA
ATOM      2  C   UNL     1       2.663   5.806  19.492  0.00  0.00    +0.000 C 
ATOM      3  N   UNL     1       2.350   7.148  19.300  0.00  0.00    +0.000 N 
ATOM      4  H   UNL     1       2.682   7.651  18.488  0.00  0.00    +0.000 HD
ENDROOT
BRANCH   2   5
ATOM      5  C   UNL     1       3.367   5.193  18.375  0.00  0.00    +0.000 A 
ATOM      6  C   UNL     1       2.964   4.085  17.651  0.00  0.00    +0.000 A 
ATOM      7  O   UNL     1       3.846   3.794  16.666  0.00  0.00    +0.000 OA
ATOM      8  C   UNL     1       4.859   4.699  16.753  0.00  0.00    +0.000 A 
ATOM      9  C   UNL     1       5.980   4.767  15.923  0.00  0.00    +0.000 A 
ATOM     10 CL   UNL     1       6.207   3.670  14.623  0.00  0.00    +0.000 Cl
ATOM     11  C   UNL     1       6.915   5.769  16.182  0.00  0.00    +0.000 A 
ATOM     12  C   UNL     1       6.719   6.656  17.240  0.00  0.00    +0.000 A 
ATOM     13 CL   UNL     1       7.896   7.878  17.540  0.00  0.00    +0.000 Cl
ATOM     14  C   UNL     1       5.586   6.580  18.063  0.00  0.00    +0.000 A 
ATOM     15  C   UNL     1       4.627   5.576  17.809  0.00  0.00    +0.000 A 
ENDBRANCH   2   5
BRANCH   3  16
ATOM     16  N   UNL     1       1.683   7.829  20.271  0.00  0.00    +0.000 NA
ATOM     17  C   UNL     1       1.106   8.931  19.913  0.00  0.00    +0.000 C 
BRANCH  17  18
ATOM     18  C   UNL     1       0.344   9.732  20.892  0.00  0.00    +0.000 A 
ATOM     19  C   UNL     1       0.160   9.251  22.194  0.00  0.00    +0.000 A 
ATOM     20  C   UNL     1      -0.574   9.995  23.117  0.00  0.00    +0.000 A 
ATOM     21  C   UNL     1      -1.117  11.215  22.729  0.00  0.00    +0.000 A 
ATOM     22  C   UNL     1      -0.934  11.704  21.438  0.00  0.00    +0.000 A 
ATOM     23  C   UNL     1      -0.198  10.961  20.510  0.00  0.00    +0.000 A 
BRANCH  21  24
ATOM     24  O   UNL     1      -1.849  11.969  23.597  0.00  0.00    +0.000 OA
ATOM     25  H   UNL     1      -2.302  11.374  24.217  0.00  0.00    +0.000 HD
ENDBRANCH  21  24
ENDBRANCH  17  18
ENDBRANCH   3  16
TORSDOF 4
ENDMDL
MODEL 4
REMARK VINA RESULT:      -7.6      5.160      7.473
REMARK  Name = 
REMARK  4 active torsions:
REMARK  status: ('A' for Active; 'I' for Inactive)
REMARK    1  A    between atoms: C_2  and  C_13
REMARK    2  A    between atoms: N_3  and  N_4
REMARK    3  A    between atoms: C_5  and  C_6
REMARK    4  A    between atoms: C_9  and  O_10
REMARK                            x       y       z     vdW  Elec       q    Type
REMARK                         _______ _______ _______ _____ _____    ______ ____
ROOT
ATOM      1  O   UNL     1       2.490   5.176  20.547  0.00  0.00    +0.000 OA
ATOM      2  C   UNL     1       2.707   5.800  19.512  0.00  0.00    +0.000 C 
ATOM      3  N   UNL     1       2.358   7.130  19.302  0.00  0.00    +0.000 N 
ATOM      4  H   UNL     1       2.662   7.625  18.475  0.00  0.00    +0.000 HD
ENDROOT
BRANCH   2   5
ATOM      5  C   UNL     1       3.405   5.183  18.394  0.00  0.00    +0.000 A 
ATOM      6  C   UNL     1       3.005   4.066  17.684  0.00  0.00    +0.000 A 
ATOM      7  O   UNL     1       3.880   3.773  16.693  0.00  0.00    +0.000 OA
ATOM      8  C   UNL     1       4.886   4.688  16.762  0.00  0.00    +0.000 A 
ATOM      9  C   UNL     1       5.998   4.759  15.921  0.00  0.00    +0.000 A 
ATOM     10 CL   UNL     1       6.223   3.653  14.629  0.00  0.00    +0.000 Cl
ATOM     11  C   UNL     1       6.927   5.772  16.163  0.00  0.00    +0.000 A 
ATOM     12  C   UNL     1       6.733   6.667  17.215  0.00  0.00    +0.000 A 
ATOM     13 CL   UNL     1       7.902   7.901  17.493  0.00  0.00    +0.000 Cl
ATOM     14  C   UNL     1       5.608   6.587  18.049  0.00  0.00    +0.000 A 
ATOM     15  C   UNL     1       4.657   5.573  17.813  0.00  0.00    +0.000 A 
ENDBRANCH   2   5
BRANCH   3  16
ATOM     16  N   UNL     1       1.691   7.813  20.272  0.00  0.00    +0.000 NA
ATOM     17  C   UNL     1       1.217   8.971  19.943  0.00  0.00    +0.000 C 
BRANCH  17  18
ATOM     18  C   UNL     1       0.464   9.780  20.923  0.00  0.00    +0.000 A 
ATOM     19  C   UNL     1       0.065  11.081  20.595  0.00  0.00    +0.000 A 
ATOM     20  C   UNL     1      -0.629  11.855  21.523  0.00  0.00    +0.000 A 
ATOM     21  C   UNL     1      -0.921  11.319  22.773  0.00  0.00    +0.000 A 
ATOM     22  C   UNL     1      -0.533  10.023  23.106  0.00  0.00    +0.000 A 
ATOM     23  C   UNL     1       0.163   9.245  22.178  0.00  0.00    +0.000 A 
BRANCH  21  24
ATOM     24  O   UNL     1      -1.590  12.044  23.713  0.00  0.00    +0.000 OA
ATOM     25  H   UNL     1      -2.162  11.443  24.218  0.00  0.00    +0.000 HD
ENDBRANCH  21  24
ENDBRANCH  17  18
ENDBRANCH   3  16
TORSDOF 4
ENDMDL
MODEL 5
REMARK VINA RESULT:      -7.6      1.855      2.082
REMARK  Name = 
REMARK  4 active torsions:
REMARK  status: ('A' for Active; 'I' for Inactive)
REMARK    1  A    between atoms: C_2  and  C_13
REMARK    2  A    between atoms: N_3  and  N_4
REMARK    3  A    between atoms: C_5  and  C_6
REMARK    4  A    between atoms: C_9  and  O_10
REMARK                            x       y       z     vdW  Elec       q    Type
REMARK                         _______ _______ _______ _____ _____    ______ ____
ROOT
ATOM      1  O   UNL     1       7.944   6.881  16.200  0.00  0.00    +0.000 OA
ATOM      2  C   UNL     1       7.459   6.996  17.322  0.00  0.00    +0.000 C 
ATOM      3  N   UNL     1       7.695   8.064  18.182  0.00  0.00    +0.000 N 
ATOM      4  H   UNL     1       7.180   8.162  19.046  0.00  0.00    +0.000 HD
ENDROOT
BRANCH   2   5
ATOM      5  C   UNL     1       6.534   6.002  17.847  0.00  0.00    +0.000 A 
ATOM      6  C   UNL     1       6.847   4.724  18.274  0.00  0.00    +0.000 A 
ATOM      7  O   UNL     1       5.748   4.072  18.721  0.00  0.00    +0.000 OA
ATOM      8  C   UNL     1       4.689   4.913  18.564  0.00  0.00    +0.000 A 
ATOM      9  C   UNL     1       3.362   4.643  18.903  0.00  0.00    +0.000 A 
ATOM     10 CL   UNL     1       2.897   3.149  19.607  0.00  0.00    +0.000 Cl
ATOM     11  C   UNL     1       2.417   5.639  18.655  0.00  0.00    +0.000 A 
ATOM     12  C   UNL     1       2.807   6.851  18.084  0.00  0.00    +0.000 A 
ATOM     13 CL   UNL     1       1.615   8.058  17.782  0.00  0.00    +0.000 Cl
ATOM     14  C   UNL     1       4.145   7.111  17.753  0.00  0.00    +0.000 A 
ATOM     15  C   UNL     1       5.113   6.116  18.005  0.00  0.00    +0.000 A 
ENDBRANCH   2   5
BRANCH   3  16
ATOM     16  N   UNL     1       8.550   9.053  17.807  0.00  0.00    +0.000 NA
ATOM     17  C   UNL     1       8.517  10.143  18.505  0.00  0.00    +0.000 C 
BRANCH  17  18
ATOM     18  C   UNL     1       9.419  11.267  18.184  0.00  0.00    +0.000 A 
ATOM     19  C   UNL     1       8.886  12.526  17.884  0.00  0.00    +0.000 A 
ATOM     20  C   UNL     1       9.734  13.586  17.564  0.00  0.00    +0.000 A 
ATOM     21  C   UNL     1      11.109  13.377  17.548  0.00  0.00    +0.000 A 
ATOM     22  C   UNL     1      11.648  12.129  17.851  0.00  0.00    +0.000 A 
ATOM     23  C   UNL     1      10.802  11.065  18.174  0.00  0.00    +0.000 A 
BRANCH  21  24
ATOM     24  O   UNL     1      11.972  14.383  17.231  0.00  0.00    +0.000 OA
ATOM     25  H   UNL     1      11.942  14.524  16.270  0.00  0.00    +0.000 HD
ENDBRANCH  21  24
ENDBRANCH  17  18
ENDBRANCH   3  16
TORSDOF 4
ENDMDL
MODEL 6
REMARK VINA RESULT:      -7.6      1.822      2.008
REMARK  Name = 
REMARK  4 active torsions:
REMARK  status: ('A' for Active; 'I' for Inactive)
REMARK    1  A    between atoms: C_2  and  C_13
REMARK    2  A    between atoms: N_3  and  N_4
REMARK    3  A    between atoms: C_5  and  C_6
REMARK    4  A    between atoms: C_9  and  O_10
REMARK                            x       y       z     vdW  Elec       q    Type
REMARK                         _______ _______ _______ _____ _____    ______ ____
ROOT
ATOM      1  O   UNL     1       7.893   6.772  16.184  0.00  0.00    +0.000 OA
ATOM      2  C   UNL     1       7.343   6.920  17.272  0.00  0.00    +0.000 C 
ATOM      3  N   UNL     1       7.570   7.986  18.135  0.00  0.00    +0.000 N 
ATOM      4  H   UNL     1       7.006   8.117  18.964  0.00  0.00    +0.000 HD
ENDROOT
BRANCH   2   5
ATOM      5  C   UNL     1       6.343   5.973  17.744  0.00  0.00    +0.000 A 
ATOM      6  C   UNL     1       6.559   4.657  18.111  0.00  0.00    +0.000 A 
ATOM      7  O   UNL     1       5.411   4.067  18.521  0.00  0.00    +0.000 OA
ATOM      8  C   UNL     1       4.418   4.990  18.400  0.00  0.00    +0.000 A 
ATOM      9  C   UNL     1       3.072   4.803  18.720  0.00  0.00    +0.000 A 
ATOM     10 CL   UNL     1       2.494   3.316  19.350  0.00  0.00    +0.000 Cl
ATOM     11  C   UNL     1       2.205   5.877  18.515  0.00  0.00    +0.000 A 
ATOM     12  C   UNL     1       2.687   7.082  18.004  0.00  0.00    +0.000 A 
ATOM     13 CL   UNL     1       1.589   8.386  17.755  0.00  0.00    +0.000 Cl
ATOM     14  C   UNL     1       4.043   7.258  17.692  0.00  0.00    +0.000 A 
ATOM     15  C   UNL     1       4.934   6.184  17.901  0.00  0.00    +0.000 A 
ENDBRANCH   2   5
BRANCH   3  16
ATOM     16  N   UNL     1       8.491   8.933  17.808  0.00  0.00    +0.000 NA
ATOM     17  C   UNL     1       8.449  10.038  18.480  0.00  0.00    +0.000 C 
BRANCH  17  18
ATOM     18  C   UNL     1       9.418  11.120  18.208  0.00  0.00    +0.000 A 
ATOM     19  C   UNL     1      10.778  10.921  18.476  0.00  0.00    +0.000 A 
ATOM     20  C   UNL     1      11.693  11.945  18.238  0.00  0.00    +0.000 A 
ATOM     21  C   UNL     1      11.241  13.159  17.732  0.00  0.00    +0.000 A 
ATOM     22  C   UNL     1       9.890  13.363  17.457  0.00  0.00    +0.000 A 
ATOM     23  C   UNL     1       8.970  12.339  17.694  0.00  0.00    +0.000 A 
BRANCH  21  24
ATOM     24  O   UNL     1      12.101  14.189  17.494  0.00  0.00    +0.000 OA
ATOM     25  H   UNL     1      12.962  13.819  17.239  0.00  0.00    +0.000 HD
ENDBRANCH  21  24
ENDBRANCH  17  18
ENDBRANCH   3  16
TORSDOF 4
ENDMDL
MODEL 7
REMARK VINA RESULT:      -7.5      1.324      1.353
REMARK  Name = 
REMARK  4 active torsions:
REMARK  status: ('A' for Active; 'I' for Inactive)
REMARK    1  A    between atoms: C_2  and  C_13
REMARK    2  A    between atoms: N_3  and  N_4
REMARK    3  A    between atoms: C_5  and  C_6
REMARK    4  A    between atoms: C_9  and  O_10
REMARK                            x       y       z     vdW  Elec       q    Type
REMARK                         _______ _______ _______ _____ _____    ______ ____
ROOT
ATOM      1  O   UNL     1       8.293   6.581  18.931  0.00  0.00    +0.000 OA
ATOM      2  C   UNL     1       7.443   6.765  18.064  0.00  0.00    +0.000 C 
ATOM      3  N   UNL     1       7.415   7.857  17.202  0.00  0.00    +0.000 N 
ATOM      4  H   UNL     1       6.758   7.899  16.435  0.00  0.00    +0.000 HD
ENDROOT
BRANCH   2   5
ATOM      5  C   UNL     1       6.377   5.800  17.839  0.00  0.00    +0.000 A 
ATOM      6  C   UNL     1       6.526   4.469  17.495  0.00  0.00    +0.000 A 
ATOM      7  O   UNL     1       5.326   3.852  17.382  0.00  0.00    +0.000 OA
ATOM      8  C   UNL     1       4.368   4.789  17.626  0.00  0.00    +0.000 A 
ATOM      9  C   UNL     1       2.988   4.581  17.618  0.00  0.00    +0.000 A 
ATOM     10 CL   UNL     1       2.310   3.037  17.302  0.00  0.00    +0.000 Cl
ATOM     11  C   UNL     1       2.169   5.678  17.885  0.00  0.00    +0.000 A 
ATOM     12  C   UNL     1       2.730   6.929  18.143  0.00  0.00    +0.000 A 
ATOM     13 CL   UNL     1       1.692   8.266  18.462  0.00  0.00    +0.000 Cl
ATOM     14  C   UNL     1       4.120   7.122  18.153  0.00  0.00    +0.000 A 
ATOM     15  C   UNL     1       4.961   6.021  17.891  0.00  0.00    +0.000 A 
ENDBRANCH   2   5
BRANCH   3  16
ATOM     16  N   UNL     1       8.355   8.833  17.321  0.00  0.00    +0.000 NA
ATOM     17  C   UNL     1       8.065   9.824  18.102  0.00  0.00    +0.000 C 
BRANCH  17  18
ATOM     18  C   UNL     1       9.029  10.924  18.308  0.00  0.00    +0.000 A 
ATOM     19  C   UNL     1      10.135  10.735  19.146  0.00  0.00    +0.000 A 
ATOM     20  C   UNL     1      11.037  11.776  19.358  0.00  0.00    +0.000 A 
ATOM     21  C   UNL     1      10.827  12.998  18.728  0.00  0.00    +0.000 A 
ATOM     22  C   UNL     1       9.733  13.193  17.887  0.00  0.00    +0.000 A 
ATOM     23  C   UNL     1       8.826  12.151  17.672  0.00  0.00    +0.000 A 
BRANCH  21  24
ATOM     24  O   UNL     1      11.680  14.044  18.915  0.00  0.00    +0.000 OA
ATOM     25  H   UNL     1      12.520  13.700  19.259  0.00  0.00    +0.000 HD
ENDBRANCH  21  24
ENDBRANCH  17  18
ENDBRANCH   3  16
TORSDOF 4
ENDMDL
MODEL 8
REMARK VINA RESULT:      -7.5      4.476      9.439
REMARK  Name = 
REMARK  4 active torsions:
REMARK  status: ('A' for Active; 'I' for Inactive)
REMARK    1  A    between atoms: C_2  and  C_13
REMARK    2  A    between atoms: N_3  and  N_4
REMARK    3  A    between atoms: C_5  and  C_6
REMARK    4  A    between atoms: C_9  and  O_10
REMARK                            x       y       z     vdW  Elec       q    Type
REMARK                         _______ _______ _______ _____ _____    ______ ____
ROOT
ATOM      1  O   UNL     1      10.045  10.738  20.231  0.00  0.00    +0.000 OA
ATOM      2  C   UNL     1       9.808  11.133  19.093  0.00  0.00    +0.000 C 
ATOM      3  N   UNL     1       9.052  10.438  18.154  0.00  0.00    +0.000 N 
ATOM      4  H   UNL     1       8.795  10.863  17.274  0.00  0.00    +0.000 HD
ENDROOT
BRANCH   2   5
ATOM      5  C   UNL     1      10.289  12.427  18.631  0.00  0.00    +0.000 A 
ATOM      6  C   UNL     1      11.593  12.756  18.305  0.00  0.00    +0.000 A 
ATOM      7  O   UNL     1      11.686  14.043  17.893  0.00  0.00    +0.000 OA
ATOM      8  C   UNL     1      10.438  14.582  17.971  0.00  0.00    +0.000 A 
ATOM      9  C   UNL     1      10.081  15.889  17.635  0.00  0.00    +0.000 A 
ATOM     10 CL   UNL     1      11.230  17.013  17.038  0.00  0.00    +0.000 Cl
ATOM     11  C   UNL     1       8.743  16.253  17.795  0.00  0.00    +0.000 A 
ATOM     12  C   UNL     1       7.817  15.330  18.280  0.00  0.00    +0.000 A 
ATOM     13 CL   UNL     1       6.174  15.812  18.474  0.00  0.00    +0.000 Cl
ATOM     14  C   UNL     1       8.189  14.018  18.609  0.00  0.00    +0.000 A 
ATOM     15  C   UNL     1       9.537  13.633  18.445  0.00  0.00    +0.000 A 
ENDBRANCH   2   5
BRANCH   3  16
ATOM     16  N   UNL     1       8.554   9.211  18.466  0.00  0.00    +0.000 NA
ATOM     17  C   UNL     1       7.873   8.611  17.544  0.00  0.00    +0.000 C 
BRANCH  17  18
ATOM     18  C   UNL     1       7.306   7.268  17.782  0.00  0.00    +0.000 A 
ATOM     19  C   UNL     1       6.170   6.855  17.077  0.00  0.00    +0.000 A 
ATOM     20  C   UNL     1       5.621   5.595  17.312  0.00  0.00    +0.000 A 
ATOM     21  C   UNL     1       6.215   4.758  18.250  0.00  0.00    +0.000 A 
ATOM     22  C   UNL     1       7.350   5.159  18.952  0.00  0.00    +0.000 A 
ATOM     23  C   UNL     1       7.903   6.421  18.719  0.00  0.00    +0.000 A 
BRANCH  21  24
ATOM     24  O   UNL     1       5.706   3.523  18.517  0.00  0.00    +0.000 OA
ATOM     25  H   UNL     1       4.754   3.532  18.319  0.00  0.00    +0.000 HD
ENDBRANCH  21  24
ENDBRANCH  17  18
ENDBRANCH   3  16
TORSDOF 4
ENDMDL
MODEL 9
REMARK VINA RESULT:      -7.5      5.999      7.816
REMARK  Name = 
REMARK  4 active torsions:
REMARK  status: ('A' for Active; 'I' for Inactive)
REMARK    1  A    between atoms: C_2  and  C_13
REMARK    2  A    between atoms: N_3  and  N_4
REMARK    3  A    between atoms: C_5  and  C_6
REMARK    4  A    between atoms: C_9  and  O_10
REMARK                            x       y       z     vdW  Elec       q    Type
REMARK                         _______ _______ _______ _____ _____    ______ ____
ROOT
ATOM      1  O   UNL     1       2.142   8.231  18.979  0.00  0.00    +0.000 OA
ATOM      2  C   UNL     1       2.051   7.437  19.911  0.00  0.00    +0.000 C 
ATOM      3  N   UNL     1       1.647   7.770  21.199  0.00  0.00    +0.000 N 
ATOM      4  H   UNL     1       1.481   7.056  21.896  0.00  0.00    +0.000 HD
ENDROOT
BRANCH   2   5
ATOM      5  C   UNL     1       2.336   6.022  19.723  0.00  0.00    +0.000 A 
ATOM      6  C   UNL     1       1.902   4.978  20.520  0.00  0.00    +0.000 A 
ATOM      7  O   UNL     1       2.335   3.785  20.046  0.00  0.00    +0.000 OA
ATOM      8  C   UNL     1       3.086   4.040  18.939  0.00  0.00    +0.000 A 
ATOM      9  C   UNL     1       3.721   3.092  18.136  0.00  0.00    +0.000 A 
ATOM     10 CL   UNL     1       3.605   1.411  18.461  0.00  0.00    +0.000 Cl
ATOM     11  C   UNL     1       4.455   3.559  17.045  0.00  0.00    +0.000 A 
ATOM     12  C   UNL     1       4.541   4.927  16.789  0.00  0.00    +0.000 A 
ATOM     13 CL   UNL     1       5.461   5.472  15.439  0.00  0.00    +0.000 Cl
ATOM     14  C   UNL     1       3.893   5.869  17.602  0.00  0.00    +0.000 A 
ATOM     15  C   UNL     1       3.141   5.412  18.705  0.00  0.00    +0.000 A 
ENDBRANCH   2   5
BRANCH   3  16
ATOM     16  N   UNL     1       1.361   9.066  21.501  0.00  0.00    +0.000 NA
ATOM     17  C   UNL     1       0.113   9.358  21.677  0.00  0.00    +0.000 C 
BRANCH  17  18
ATOM     18  C   UNL     1      -0.295  10.735  22.024  0.00  0.00    +0.000 A 
ATOM     19  C   UNL     1       0.306  11.823  21.381  0.00  0.00    +0.000 A 
ATOM     20  C   UNL     1      -0.062  13.124  21.718  0.00  0.00    +0.000 A 
ATOM     21  C   UNL     1      -1.030  13.326  22.696  0.00  0.00    +0.000 A 
ATOM     22  C   UNL     1      -1.638  12.249  23.337  0.00  0.00    +0.000 A 
ATOM     23  C   UNL     1      -1.272  10.943  23.001  0.00  0.00    +0.000 A 
BRANCH  21  24
ATOM     24  O   UNL     1      -1.413  14.582  23.062  0.00  0.00    +0.000 OA
ATOM     25  H   UNL     1      -0.755  15.215  22.728  0.00  0.00    +0.000 HD
ENDBRANCH  21  24
ENDBRANCH  17  18
ENDBRANCH   3  16
TORSDOF 4
ENDMDL
