MODEL 1
REMARK VINA RESULT:      -7.8      0.000      0.000
REMARK  Name = 
REMARK  4 active torsions:
REMARK  status: ('A' for Active; 'I' for Inactive)
REMARK    1  A    between atoms: C_4  and  N_5
REMARK    2  A    between atoms: N_5  and  C_6
REMARK    3  A    between atoms: C_6  and  C_7
REMARK    4  A    between atoms: C_7  and  C_8
REMARK                            x       y       z     vdW  Elec       q    Type
REMARK                         _______ _______ _______ _____ _____    ______ ____
ROOT
ATOM      1  N   UNL     1       3.953   2.382  17.353  0.00  0.00    +0.000 N 
ATOM      2  H   UNL     1       4.512   1.552  17.559  0.00  0.00    +0.000 HD
ENDROOT
BRANCH   1   6
ATOM      3  O   UNL     1       5.811   6.055  14.910  0.00  0.00    +0.000 OA
ATOM      4  C   UNL     1       5.743   5.430  15.959  0.00  0.00    +0.000 C 
ATOM      5  C   UNL     1       4.854   4.264  16.076  0.00  0.00    +0.000 C 
ATOM      6  C   UNL     1       4.734   3.512  17.177  0.00  0.00    +0.000 C 
ATOM      7  C   UNL     1       5.526   3.920  18.394  0.00  0.00    +0.000 C 
ATOM      8  O   UNL     1       5.410   3.265  19.429  0.00  0.00    +0.000 OA
ATOM      9  C   UNL     1       6.418   5.110  18.313  0.00  0.00    +0.000 A 
ATOM     10  N   UNL     1       7.107   5.426  19.432  0.00  0.00    +0.000 NA
ATOM     11  C   UNL     1       7.946   6.485  19.368  0.00  0.00    +0.000 A 
ATOM     12  C   UNL     1       8.131   7.241  18.225  0.00  0.00    +0.000 A 
ATOM     13  C   UNL     1       7.405   6.902  17.087  0.00  0.00    +0.000 A 
ATOM     14  C   UNL     1       6.502   5.827  17.140  0.00  0.00    +0.000 A 
ENDBRANCH   1   6
BRANCH   1  15
ATOM     15  C   UNL     1       2.537   2.240  17.599  0.00  0.00    +0.000 C 
BRANCH  15  16
ATOM     16  C   UNL     1       2.156   2.510  19.049  0.00  0.00    +0.000 C 
BRANCH  16  17
ATOM     17  C   UNL     1       2.048   3.898  19.630  0.00  0.00    +0.000 A 
ATOM     18  C   UNL     1       2.319   4.083  20.981  0.00  0.00    +0.000 A 
ATOM     19  N   UNL     1       1.680   5.234  21.316  0.00  0.00    +0.000 N 
ATOM     20  C   UNL     1       1.889   6.092  20.275  0.00  0.00    +0.000 A 
ATOM     21  C   UNL     1       1.970   7.485  20.281  0.00  0.00    +0.000 A 
ATOM     22  C   UNL     1       2.244   8.098  19.066  0.00  0.00    +0.000 A 
ATOM     23  C   UNL     1       2.320   7.338  17.898  0.00  0.00    +0.000 A 
ATOM     24  C   UNL     1       2.168   5.931  17.914  0.00  0.00    +0.000 A 
ATOM     25  C   UNL     1       2.017   5.265  19.145  0.00  0.00    +0.000 A 
ATOM     26  H   UNL     1       0.915   5.317  21.973  0.00  0.00    +0.000 HD
ENDBRANCH  16  17
ENDBRANCH  15  16
ENDBRANCH   1  15
TORSDOF 4
ENDMDL
MODEL 2
REMARK VINA RESULT:      -7.7      4.287      7.817
REMARK  Name = 
REMARK  4 active torsions:
REMARK  status: ('A' for Active; 'I' for Inactive)
REMARK    1  A    between atoms: C_4  and  N_5
REMARK    2  A    between atoms: N_5  and  C_6
REMARK    3  A    between atoms: C_6  and  C_7
REMARK    4  A    between atoms: C_7  and  C_8
REMARK                            x       y       z     vdW  Elec       q    Type
REMARK                         _______ _______ _______ _____ _____    ______ ____
ROOT
ATOM      1  N   UNL     1       8.168   7.439  18.452  0.00  0.00    +0.000 N 
ATOM      2  H   UNL     1       8.894   6.947  18.976  0.00  0.00    +0.000 HD
ENDROOT
BRANCH   1   6
ATOM      3  O   UNL     1       5.108   5.735  15.188  0.00  0.00    +0.000 OA
ATOM      4  C   UNL     1       5.582   5.655  16.314  0.00  0.00    +0.000 C 
ATOM      5  C   UNL     1       6.641   6.582  16.744  0.00  0.00    +0.000 C 
ATOM      6  C   UNL     1       7.199   6.580  17.960  0.00  0.00    +0.000 C 
ATOM      7  C   UNL     1       6.747   5.524  18.938  0.00  0.00    +0.000 C 
ATOM      8  O   UNL     1       7.266   5.480  20.051  0.00  0.00    +0.000 OA
ATOM      9  C   UNL     1       5.692   4.557  18.523  0.00  0.00    +0.000 A 
ATOM     10  N   UNL     1       5.322   3.637  19.441  0.00  0.00    +0.000 NA
ATOM     11  C   UNL     1       4.343   2.770  19.093  0.00  0.00    +0.000 A 
ATOM     12  C   UNL     1       3.711   2.790  17.864  0.00  0.00    +0.000 A 
ATOM     13  C   UNL     1       4.113   3.742  16.932  0.00  0.00    +0.000 A 
ATOM     14  C   UNL     1       5.151   4.631  17.258  0.00  0.00    +0.000 A 
ENDBRANCH   1   6
BRANCH   1  15
ATOM     15  C   UNL     1       8.487   8.804  18.102  0.00  0.00    +0.000 C 
BRANCH  15  16
ATOM     16  C   UNL     1       8.970   9.625  19.290  0.00  0.00    +0.000 C 
BRANCH  16  17
ATOM     17  C   UNL     1       9.809  10.870  19.147  0.00  0.00    +0.000 A 
ATOM     18  C   UNL     1      10.223  11.259  17.878  0.00  0.00    +0.000 A 
ATOM     19  N   UNL     1      11.313  12.041  18.084  0.00  0.00    +0.000 N 
ATOM     20  C   UNL     1      11.011  12.822  19.164  0.00  0.00    +0.000 A 
ATOM     21  C   UNL     1      11.454  14.108  19.476  0.00  0.00    +0.000 A 
ATOM     22  C   UNL     1      10.935  14.682  20.628  0.00  0.00    +0.000 A 
ATOM     23  C   UNL     1      10.102  13.942  21.467  0.00  0.00    +0.000 A 
ATOM     24  C   UNL     1       9.723  12.614  21.158  0.00  0.00    +0.000 A 
ATOM     25  C   UNL     1      10.127  12.047  19.934  0.00  0.00    +0.000 A 
ATOM     26  H   UNL     1      12.257  11.837  17.781  0.00  0.00    +0.000 HD
ENDBRANCH  16  17
ENDBRANCH  15  16
ENDBRANCH   1  15
TORSDOF 4
ENDMDL
MODEL 3
REMARK VINA RESULT:      -7.7      2.744      6.440
REMARK  Name = 
REMARK  4 active torsions:
REMARK  status: ('A' for Active; 'I' for Inactive)
REMARK    1  A    between atoms: C_4  and  N_5
REMARK    2  A    between atoms: N_5  and  C_6
REMARK    3  A    between atoms: C_6  and  C_7
REMARK    4  A    between atoms: C_7  and  C_8
REMARK                            x       y       z     vdW  Elec       q    Type
REMARK                         _______ _______ _______ _____ _____    ______ ____
ROOT
ATOM      1  N   UNL     1       3.094   4.829  18.704  0.00  0.00    +0.000 N 
ATOM      2  H   UNL     1       2.342   4.137  18.719  0.00  0.00    +0.000 HD
ENDROOT
BRANCH   1   6
ATOM      3  O   UNL     1       2.167   9.283  17.213  0.00  0.00    +0.000 OA
ATOM      4  C   UNL     1       2.123   8.455  18.113  0.00  0.00    +0.000 C 
ATOM      5  C   UNL     1       2.610   7.085  17.891  0.00  0.00    +0.000 C 
ATOM      6  C   UNL     1       2.619   6.125  18.823  0.00  0.00    +0.000 C 
ATOM      7  C   UNL     1       2.042   6.456  20.177  0.00  0.00    +0.000 C 
ATOM      8  O   UNL     1       2.009   5.583  21.041  0.00  0.00    +0.000 OA
ATOM      9  C   UNL     1       1.520   7.829  20.425  0.00  0.00    +0.000 A 
ATOM     10  N   UNL     1       1.020   8.071  21.657  0.00  0.00    +0.000 NA
ATOM     11  C   UNL     1       0.570   9.322  21.911  0.00  0.00    +0.000 A 
ATOM     12  C   UNL     1       0.605  10.346  20.983  0.00  0.00    +0.000 A 
ATOM     13  C   UNL     1       1.118  10.071  19.718  0.00  0.00    +0.000 A 
ATOM     14  C   UNL     1       1.559   8.771  19.421  0.00  0.00    +0.000 A 
ENDBRANCH   1   6
BRANCH   1  15
ATOM     15  C   UNL     1       4.375   4.329  18.263  0.00  0.00    +0.000 C 
BRANCH  15  16
ATOM     16  C   UNL     1       4.393   3.958  16.786  0.00  0.00    +0.000 C 
BRANCH  16  17
ATOM     17  C   UNL     1       5.482   4.395  15.838  0.00  0.00    +0.000 A 
ATOM     18  C   UNL     1       6.706   4.796  16.360  0.00  0.00    +0.000 A 
ATOM     19  N   UNL     1       7.264   5.575  15.399  0.00  0.00    +0.000 N 
ATOM     20  C   UNL     1       7.002   4.948  14.214  0.00  0.00    +0.000 A 
ATOM     21  C   UNL     1       7.742   4.951  13.030  0.00  0.00    +0.000 A 
ATOM     22  C   UNL     1       7.253   4.173  11.990  0.00  0.00    +0.000 A 
ATOM     23  C   UNL     1       6.025   3.522  12.117  0.00  0.00    +0.000 A 
ATOM     24  C   UNL     1       5.265   3.592  13.308  0.00  0.00    +0.000 A 
ATOM     25  C   UNL     1       5.792   4.266  14.426  0.00  0.00    +0.000 A 
ATOM     26  H   UNL     1       7.474   6.561  15.482  0.00  0.00    +0.000 HD
ENDBRANCH  16  17
ENDBRANCH  15  16
ENDBRANCH   1  15
TORSDOF 4
ENDMDL
MODEL 4
REMARK VINA RESULT:      -7.7      4.158      7.804
REMARK  Name = 
REMARK  4 active torsions:
REMARK  status: ('A' for Active; 'I' for Inactive)
REMARK    1  A    between atoms: C_4  and  N_5
REMARK    2  A    between atoms: N_5  and  C_6
REMARK    3  A    between atoms: C_6  and  C_7
REMARK    4  A    between atoms: C_7  and  C_8
REMARK                            x       y       z     vdW  Elec       q    Type
REMARK                         _______ _______ _______ _____ _____    ______ ____
ROOT
ATOM      1  N   UNL     1       8.011   7.374  18.366  0.00  0.00    +0.000 N 
ATOM      2  H   UNL     1       8.563   6.994  19.137  0.00  0.00    +0.000 HD
ENDROOT
BRANCH   1   6
ATOM      3  O   UNL     1       4.968   5.497  15.182  0.00  0.00    +0.000 OA
ATOM      4  C   UNL     1       5.450   5.466  16.306  0.00  0.00    +0.000 C 
ATOM      5  C   UNL     1       6.492   6.428  16.698  0.00  0.00    +0.000 C 
ATOM      6  C   UNL     1       7.057   6.479  17.910  0.00  0.00    +0.000 C 
ATOM      7  C   UNL     1       6.633   5.447  18.925  0.00  0.00    +0.000 C 
ATOM      8  O   UNL     1       7.160   5.452  20.036  0.00  0.00    +0.000 OA
ATOM      9  C   UNL     1       5.596   4.445  18.550  0.00  0.00    +0.000 A 
ATOM     10  N   UNL     1       5.251   3.549  19.501  0.00  0.00    +0.000 NA
ATOM     11  C   UNL     1       4.288   2.651  19.189  0.00  0.00    +0.000 A 
ATOM     12  C   UNL     1       3.649   2.616  17.964  0.00  0.00    +0.000 A 
ATOM     13  C   UNL     1       4.026   3.545  16.998  0.00  0.00    +0.000 A 
ATOM     14  C   UNL     1       5.047   4.465  17.287  0.00  0.00    +0.000 A 
ENDBRANCH   1   6
BRANCH   1  15
ATOM     15  C   UNL     1       8.548   8.572  17.763  0.00  0.00    +0.000 C 
BRANCH  15  16
ATOM     16  C   UNL     1       8.582   9.755  18.721  0.00  0.00    +0.000 C 
BRANCH  16  17
ATOM     17  C   UNL     1       9.176  11.093  18.360  0.00  0.00    +0.000 A 
ATOM     18  C   UNL     1       8.350  12.071  17.817  0.00  0.00    +0.000 A 
ATOM     19  N   UNL     1       9.183  12.911  17.151  0.00  0.00    +0.000 N 
ATOM     20  C   UNL     1      10.277  13.063  17.954  0.00  0.00    +0.000 A 
ATOM     21  C   UNL     1      11.138  14.154  18.076  0.00  0.00    +0.000 A 
ATOM     22  C   UNL     1      12.149  14.046  19.022  0.00  0.00    +0.000 A 
ATOM     23  C   UNL     1      12.333  12.852  19.719  0.00  0.00    +0.000 A 
ATOM     24  C   UNL     1      11.482  11.738  19.526  0.00  0.00    +0.000 A 
ATOM     25  C   UNL     1      10.370  11.857  18.670  0.00  0.00    +0.000 A 
ATOM     26  H   UNL     1       9.188  13.072  16.152  0.00  0.00    +0.000 HD
ENDBRANCH  16  17
ENDBRANCH  15  16
ENDBRANCH   1  15
TORSDOF 4
ENDMDL
MODEL 5
REMARK VINA RESULT:      -7.5      3.797      7.168
REMARK  Name = 
REMARK  4 active torsions:
REMARK  status: ('A' for Active; 'I' for Inactive)
REMARK    1  A    between atoms: C_4  and  N_5
REMARK    2  A    between atoms: N_5  and  C_6
REMARK    3  A    between atoms: C_6  and  C_7
REMARK    4  A    between atoms: C_7  and  C_8
REMARK                            x       y       z     vdW  Elec       q    Type
REMARK                         _______ _______ _______ _____ _____    ______ ____
ROOT
ATOM      1  N   UNL     1       2.143   7.212  20.598  0.00  0.00    +0.000 N 
ATOM      2  H   UNL     1       3.151   7.381  20.621  0.00  0.00    +0.000 HD
ENDROOT
BRANCH   1   6
ATOM      3  O   UNL     1      -0.219  10.346  23.340  0.00  0.00    +0.000 OA
ATOM      4  C   UNL     1       0.160  10.016  22.224  0.00  0.00    +0.000 C 
ATOM      5  C   UNL     1       0.973   8.803  22.040  0.00  0.00    +0.000 C 
ATOM      6  C   UNL     1       1.411   8.359  20.857  0.00  0.00    +0.000 C 
ATOM      7  C   UNL     1       1.093   9.185  19.636  0.00  0.00    +0.000 C 
ATOM      8  O   UNL     1       1.511   8.816  18.540  0.00  0.00    +0.000 OA
ATOM      9  C   UNL     1       0.291  10.431  19.793  0.00  0.00    +0.000 A 
ATOM     10  N   UNL     1       0.032  11.128  18.664  0.00  0.00    +0.000 NA
ATOM     11  C   UNL     1      -0.721  12.246  18.784  0.00  0.00    +0.000 A 
ATOM     12  C   UNL     1      -1.234  12.693  19.987  0.00  0.00    +0.000 A 
ATOM     13  C   UNL     1      -0.948  11.962  21.137  0.00  0.00    +0.000 A 
ATOM     14  C   UNL     1      -0.140  10.817  21.043  0.00  0.00    +0.000 A 
ENDBRANCH   1   6
BRANCH   1  15
ATOM     15  C   UNL     1       1.758   5.820  20.615  0.00  0.00    +0.000 C 
BRANCH  15  16
ATOM     16  C   UNL     1       2.175   5.071  19.356  0.00  0.00    +0.000 C 
BRANCH  16  17
ATOM     17  C   UNL     1       3.613   4.781  19.006  0.00  0.00    +0.000 A 
ATOM     18  C   UNL     1       4.068   3.469  19.072  0.00  0.00    +0.000 A 
ATOM     19  N   UNL     1       5.415   3.567  19.211  0.00  0.00    +0.000 N 
ATOM     20  C   UNL     1       5.804   4.568  18.366  0.00  0.00    +0.000 A 
ATOM     21  C   UNL     1       7.014   4.734  17.692  0.00  0.00    +0.000 A 
ATOM     22  C   UNL     1       7.111   5.834  16.851  0.00  0.00    +0.000 A 
ATOM     23  C   UNL     1       6.074   6.765  16.791  0.00  0.00    +0.000 A 
ATOM     24  C   UNL     1       4.883   6.604  17.537  0.00  0.00    +0.000 A 
ATOM     25  C   UNL     1       4.699   5.435  18.301  0.00  0.00    +0.000 A 
ATOM     26  H   UNL     1       5.952   3.263  20.012  0.00  0.00    +0.000 HD
ENDBRANCH  16  17
ENDBRANCH  15  16
ENDBRANCH   1  15
TORSDOF 4
ENDMDL
MODEL 6
REMARK VINA RESULT:      -7.5      3.702      7.142
REMARK  Name = 
REMARK  4 active torsions:
REMARK  status: ('A' for Active; 'I' for Inactive)
REMARK    1  A    between atoms: C_4  and  N_5
REMARK    2  A    between atoms: N_5  and  C_6
REMARK    3  A    between atoms: C_6  and  C_7
REMARK    4  A    between atoms: C_7  and  C_8
REMARK                            x       y       z     vdW  Elec       q    Type
REMARK                         _______ _______ _______ _____ _____    ______ ____
ROOT
ATOM      1  N   UNL     1       2.168   7.177  20.050  0.00  0.00    +0.000 N 
ATOM      2  H   UNL     1       2.911   7.439  19.399  0.00  0.00    +0.000 HD
ENDROOT
BRANCH   1   6
ATOM      3  O   UNL     1       0.262   9.864  23.523  0.00  0.00    +0.000 OA
ATOM      4  C   UNL     1       0.496   9.715  22.331  0.00  0.00    +0.000 C 
ATOM      5  C   UNL     1       1.235   8.533  21.859  0.00  0.00    +0.000 C 
ATOM      6  C   UNL     1       1.516   8.280  20.576  0.00  0.00    +0.000 C 
ATOM      7  C   UNL     1       1.092   9.302  19.550  0.00  0.00    +0.000 C 
ATOM      8  O   UNL     1       1.366   9.109  18.367  0.00  0.00    +0.000 OA
ATOM      9  C   UNL     1       0.363  10.520  20.001  0.00  0.00    +0.000 A 
ATOM     10  N   UNL     1       0.003  11.399  19.038  0.00  0.00    +0.000 NA
ATOM     11  C   UNL     1      -0.687  12.496  19.425  0.00  0.00    +0.000 A 
ATOM     12  C   UNL     1      -1.041  12.750  20.737  0.00  0.00    +0.000 A 
ATOM     13  C   UNL     1      -0.653  11.835  21.711  0.00  0.00    +0.000 A 
ATOM     14  C   UNL     1       0.094  10.705  21.339  0.00  0.00    +0.000 A 
ENDBRANCH   1   6
BRANCH   1  15
ATOM     15  C   UNL     1       2.193   5.799  20.482  0.00  0.00    +0.000 C 
BRANCH  15  16
ATOM     16  C   UNL     1       1.926   4.816  19.349  0.00  0.00    +0.000 C 
BRANCH  16  17
ATOM     17  C   UNL     1       2.986   4.373  18.373  0.00  0.00    +0.000 A 
ATOM     18  C   UNL     1       2.944   3.074  17.880  0.00  0.00    +0.000 A 
ATOM     19  N   UNL     1       4.212   2.808  17.473  0.00  0.00    +0.000 N 
ATOM     20  C   UNL     1       4.650   3.945  16.855  0.00  0.00    +0.000 A 
ATOM     21  C   UNL     1       5.572   4.087  15.817  0.00  0.00    +0.000 A 
ATOM     22  C   UNL     1       5.788   5.376  15.350  0.00  0.00    +0.000 A 
ATOM     23  C   UNL     1       5.182   6.462  15.982  0.00  0.00    +0.000 A 
ATOM     24  C   UNL     1       4.302   6.292  17.076  0.00  0.00    +0.000 A 
ATOM     25  C   UNL     1       3.961   4.990  17.493  0.00  0.00    +0.000 A 
ATOM     26  H   UNL     1       4.826   2.105  17.864  0.00  0.00    +0.000 HD
ENDBRANCH  16  17
ENDBRANCH  15  16
ENDBRANCH   1  15
TORSDOF 4
ENDMDL
MODEL 7
REMARK VINA RESULT:      -7.5      3.429      6.606
REMARK  Name = 
REMARK  4 active torsions:
REMARK  status: ('A' for Active; 'I' for Inactive)
REMARK    1  A    between atoms: C_4  and  N_5
REMARK    2  A    between atoms: N_5  and  C_6
REMARK    3  A    between atoms: C_6  and  C_7
REMARK    4  A    between atoms: C_7  and  C_8
REMARK                            x       y       z     vdW  Elec       q    Type
REMARK                         _______ _______ _______ _____ _____    ______ ____
ROOT
ATOM      1  N   UNL     1       2.355   7.588  18.373  0.00  0.00    +0.000 N 
ATOM      2  H   UNL     1       1.739   6.795  18.182  0.00  0.00    +0.000 HD
ENDROOT
BRANCH   1   6
ATOM      3  O   UNL     1       0.510  11.999  18.600  0.00  0.00    +0.000 OA
ATOM      4  C   UNL     1       0.717  10.927  19.152  0.00  0.00    +0.000 C 
ATOM      5  C   UNL     1       1.400   9.839  18.434  0.00  0.00    +0.000 C 
ATOM      6  C   UNL     1       1.684   8.644  18.966  0.00  0.00    +0.000 C 
ATOM      7  C   UNL     1       1.227   8.379  20.379  0.00  0.00    +0.000 C 
ATOM      8  O   UNL     1       1.447   7.279  20.881  0.00  0.00    +0.000 OA
ATOM      9  C   UNL     1       0.513   9.454  21.123  0.00  0.00    +0.000 A 
ATOM     10  N   UNL     1       0.132   9.163  22.387  0.00  0.00    +0.000 NA
ATOM     11  C   UNL     1      -0.491  10.138  23.089  0.00  0.00    +0.000 A 
ATOM     12  C   UNL     1      -0.743  11.399  22.581  0.00  0.00    +0.000 A 
ATOM     13  C   UNL     1      -0.348  11.673  21.275  0.00  0.00    +0.000 A 
ATOM     14  C   UNL     1       0.269  10.666  20.515  0.00  0.00    +0.000 A 
ENDBRANCH   1   6
BRANCH   1  15
ATOM     15  C   UNL     1       3.641   7.533  17.718  0.00  0.00    +0.000 C 
BRANCH  15  16
ATOM     16  C   UNL     1       4.066   6.115  17.361  0.00  0.00    +0.000 C 
BRANCH  16  17
ATOM     17  C   UNL     1       4.042   4.972  18.344  0.00  0.00    +0.000 A 
ATOM     18  C   UNL     1       5.220   4.620  18.993  0.00  0.00    +0.000 A 
ATOM     19  N   UNL     1       5.039   3.332  19.383  0.00  0.00    +0.000 N 
ATOM     20  C   UNL     1       3.754   3.259  19.840  0.00  0.00    +0.000 A 
ATOM     21  C   UNL     1       3.210   2.426  20.819  0.00  0.00    +0.000 A 
ATOM     22  C   UNL     1       1.867   2.612  21.117  0.00  0.00    +0.000 A 
ATOM     23  C   UNL     1       1.103   3.516  20.380  0.00  0.00    +0.000 A 
ATOM     24  C   UNL     1       1.668   4.301  19.348  0.00  0.00    +0.000 A 
ATOM     25  C   UNL     1       3.054   4.232  19.106  0.00  0.00    +0.000 A 
ATOM     26  H   UNL     1       5.569   2.533  19.059  0.00  0.00    +0.000 HD
ENDBRANCH  16  17
ENDBRANCH  15  16
ENDBRANCH   1  15
TORSDOF 4
ENDMDL
MODEL 8
REMARK VINA RESULT:      -7.4      3.023      6.088
REMARK  Name = 
REMARK  4 active torsions:
REMARK  status: ('A' for Active; 'I' for Inactive)
REMARK    1  A    between atoms: C_4  and  N_5
REMARK    2  A    between atoms: N_5  and  C_6
REMARK    3  A    between atoms: C_6  and  C_7
REMARK    4  A    between atoms: C_7  and  C_8
REMARK                            x       y       z     vdW  Elec       q    Type
REMARK                         _______ _______ _______ _____ _____    ______ ____
ROOT
ATOM      1  N   UNL     1       2.166   6.381  20.724  0.00  0.00    +0.000 N 
ATOM      2  H   UNL     1       2.678   6.499  21.600  0.00  0.00    +0.000 HD
ENDROOT
BRANCH   1   6
ATOM      3  O   UNL     1       2.103   9.564  17.149  0.00  0.00    +0.000 OA
ATOM      4  C   UNL     1       1.818   9.293  18.308  0.00  0.00    +0.000 C 
ATOM      5  C   UNL     1       2.128   7.966  18.860  0.00  0.00    +0.000 C 
ATOM      6  C   UNL     1       1.871   7.592  20.119  0.00  0.00    +0.000 C 
ATOM      7  C   UNL     1       1.170   8.582  21.015  0.00  0.00    +0.000 C 
ATOM      8  O   UNL     1       0.893   8.253  22.167  0.00  0.00    +0.000 OA
ATOM      9  C   UNL     1       0.822   9.927  20.476  0.00  0.00    +0.000 A 
ATOM     10  N   UNL     1       0.199  10.775  21.325  0.00  0.00    +0.000 NA
ATOM     11  C   UNL     1      -0.096  12.012  20.863  0.00  0.00    +0.000 A 
ATOM     12  C   UNL     1       0.212  12.440  19.585  0.00  0.00    +0.000 A 
ATOM     13  C   UNL     1       0.847  11.547  18.727  0.00  0.00    +0.000 A 
ATOM     14  C   UNL     1       1.133  10.246  19.173  0.00  0.00    +0.000 A 
ENDBRANCH   1   6
BRANCH   1  15
ATOM     15  C   UNL     1       1.627   5.059  20.505  0.00  0.00    +0.000 C 
BRANCH  15  16
ATOM     16  C   UNL     1       2.138   4.413  19.224  0.00  0.00    +0.000 C 
BRANCH  16  17
ATOM     17  C   UNL     1       3.599   4.344  18.860  0.00  0.00    +0.000 A 
ATOM     18  C   UNL     1       4.322   3.205  19.195  0.00  0.00    +0.000 A 
ATOM     19  N   UNL     1       5.620   3.603  19.222  0.00  0.00    +0.000 N 
ATOM     20  C   UNL     1       5.776   4.432  18.147  0.00  0.00    +0.000 A 
ATOM     21  C   UNL     1       6.915   4.674  17.377  0.00  0.00    +0.000 A 
ATOM     22  C   UNL     1       6.765   5.539  16.301  0.00  0.00    +0.000 A 
ATOM     23  C   UNL     1       5.554   6.199  16.095  0.00  0.00    +0.000 A 
ATOM     24  C   UNL     1       4.435   5.983  16.934  0.00  0.00    +0.000 A 
ATOM     25  C   UNL     1       4.513   5.017  17.955  0.00  0.00    +0.000 A 
ATOM     26  H   UNL     1       6.220   3.614  20.036  0.00  0.00    +0.000 HD
ENDBRANCH  16  17
ENDBRANCH  15  16
ENDBRANCH   1  15
TORSDOF 4
ENDMDL
MODEL 9
REMARK VINA RESULT:      -7.4      3.996      7.505
REMARK  Name = 
REMARK  4 active torsions:
REMARK  status: ('A' for Active; 'I' for Inactive)
REMARK    1  A    between atoms: C_4  and  N_5
REMARK    2  A    between atoms: N_5  and  C_6
REMARK    3  A    between atoms: C_6  and  C_7
REMARK    4  A    between atoms: C_7  and  C_8
REMARK                            x       y       z     vdW  Elec       q    Type
REMARK                         _______ _______ _______ _____ _____    ______ ____
ROOT
ATOM      1  N   UNL     1       7.558   7.408  17.449  0.00  0.00    +0.000 N 
ATOM      2  H   UNL     1       8.160   6.855  16.835  0.00  0.00    +0.000 HD
ENDROOT
BRANCH   1   6
ATOM      3  O   UNL     1       2.795   6.943  17.558  0.00  0.00    +0.000 OA
ATOM      4  C   UNL     1       3.894   6.475  17.824  0.00  0.00    +0.000 C 
ATOM      5  C   UNL     1       5.121   7.198  17.456  0.00  0.00    +0.000 C 
ATOM      6  C   UNL     1       6.360   6.771  17.726  0.00  0.00    +0.000 C 
ATOM      7  C   UNL     1       6.508   5.433  18.408  0.00  0.00    +0.000 C 
ATOM      8  O   UNL     1       7.636   5.003  18.639  0.00  0.00    +0.000 OA
ATOM      9  C   UNL     1       5.284   4.667  18.773  0.00  0.00    +0.000 A 
ATOM     10  N   UNL     1       5.476   3.478  19.387  0.00  0.00    +0.000 NA
ATOM     11  C   UNL     1       4.375   2.783  19.753  0.00  0.00    +0.000 A 
ATOM     12  C   UNL     1       3.085   3.231  19.538  0.00  0.00    +0.000 A 
ATOM     13  C   UNL     1       2.911   4.455  18.897  0.00  0.00    +0.000 A 
ATOM     14  C   UNL     1       4.039   5.179  18.477  0.00  0.00    +0.000 A 
ENDBRANCH   1   6
BRANCH   1  15
ATOM     15  C   UNL     1       7.954   8.788  17.610  0.00  0.00    +0.000 C 
BRANCH  15  16
ATOM     16  C   UNL     1       8.816   9.019  18.844  0.00  0.00    +0.000 C 
BRANCH  16  17
ATOM     17  C   UNL     1       9.303  10.382  19.268  0.00  0.00    +0.000 A 
ATOM     18  C   UNL     1       9.238  10.730  20.612  0.00  0.00    +0.000 A 
ATOM     19  N   UNL     1       9.243  12.088  20.628  0.00  0.00    +0.000 N 
ATOM     20  C   UNL     1      10.159  12.467  19.688  0.00  0.00    +0.000 A 
ATOM     21  C   UNL     1      10.961  13.608  19.646  0.00  0.00    +0.000 A 
ATOM     22  C   UNL     1      11.847  13.706  18.582  0.00  0.00    +0.000 A 
ATOM     23  C   UNL     1      11.833  12.750  17.566  0.00  0.00    +0.000 A 
ATOM     24  C   UNL     1      10.961  11.636  17.603  0.00  0.00    +0.000 A 
ATOM     25  C   UNL     1      10.140  11.438  18.731  0.00  0.00    +0.000 A 
ATOM     26  H   UNL     1       8.491  12.681  20.956  0.00  0.00    +0.000 HD
ENDBRANCH  16  17
ENDBRANCH  15  16
ENDBRANCH   1  15
TORSDOF 4
ENDMDL
