MODEL 1
REMARK VINA RESULT:      -8.5      0.000      0.000
REMARK  Name = 
REMARK  7 active torsions:
REMARK  status: ('A' for Active; 'I' for Inactive)
REMARK    1  A    between atoms: C_2  and  C_12
REMARK    2  A    between atoms: N_3  and  C_4
REMARK    3  A    between atoms: C_4  and  C_5
REMARK    4  A    between atoms: C_5  and  C_6
REMARK    5  A    between atoms: N_14  and  C_15
REMARK    6  A    between atoms: C_23  and  C_24
REMARK    7  A    between atoms: C_24  and  O_25
REMARK                            x       y       z     vdW  Elec       q    Type
REMARK                         _______ _______ _______ _____ _____    ______ ____
ROOT
ATOM      1  C   UNL     1       6.369   5.189  18.086  0.00  0.00    +0.000 A 
ATOM      2  N   UNL     1       5.288   4.857  18.818  0.00  0.00    +0.000 NA
ATOM      3  N   UNL     1       4.552   4.098  17.952  0.00  0.00    +0.000 N 
ATOM      4  N   UNL     1       5.114   3.897  16.726  0.00  0.00    +0.000 NA
ATOM      5  C   UNL     1       6.245   4.614  16.798  0.00  0.00    +0.000 A 
ENDROOT
BRANCH   3   6
ATOM      6  C   UNL     1       3.295   3.521  18.269  0.00  0.00    +0.000 A 
ATOM      7  C   UNL     1       2.108   4.132  17.813  0.00  0.00    +0.000 A 
ATOM      8  C   UNL     1       0.861   3.572  18.110  0.00  0.00    +0.000 A 
ATOM      9  C   UNL     1       0.781   2.406  18.868  0.00  0.00    +0.000 A 
ATOM     10  C   UNL     1       1.951   1.802  19.327  0.00  0.00    +0.000 A 
ATOM     11  C   UNL     1       3.198   2.355  19.028  0.00  0.00    +0.000 A 
ATOM     12  F   UNL     1       4.282   1.727  19.504  0.00  0.00    +0.000 F 
ENDBRANCH   3   6
BRANCH   1  14
ATOM     13  O   UNL     1       8.292   5.569  19.397  0.00  0.00    +0.000 OA
ATOM     14  C   UNL     1       7.489   6.006  18.576  0.00  0.00    +0.000 C 
ATOM     15  N   UNL     1       7.572   7.291  18.075  0.00  0.00    +0.000 N 
ATOM     16  H   UNL     1       6.820   7.601  17.467  0.00  0.00    +0.000 HD
BRANCH  15  17
ATOM     17  C   UNL     1       8.606   8.201  18.553  0.00  0.00    +0.000 C 
BRANCH  17  18
ATOM     18  C   UNL     1       8.407   9.656  18.122  0.00  0.00    +0.000 C 
BRANCH  18  19
ATOM     19  C   UNL     1       9.431  10.594  18.729  0.00  0.00    +0.000 A 
ATOM     20  C   UNL     1       9.446  10.849  20.106  0.00  0.00    +0.000 A 
ATOM     21  C   UNL     1      10.391  11.719  20.662  0.00  0.00    +0.000 A 
ATOM     22  C   UNL     1      11.329  12.348  19.845  0.00  0.00    +0.000 A 
ATOM     23  C   UNL     1      11.324  12.104  18.475  0.00  0.00    +0.000 A 
ATOM     24  C   UNL     1      10.380  11.235  17.918  0.00  0.00    +0.000 A 
ENDBRANCH  18  19
ENDBRANCH  17  18
ENDBRANCH  15  17
ENDBRANCH   1  14
BRANCH   5  25
ATOM     25  C   UNL     1       7.182   4.688  15.637  0.00  0.00    +0.000 C 
BRANCH  25  26
ATOM     26  O   UNL     1       6.634   5.427  14.540  0.00  0.00    +0.000 OA
ATOM     27  H   UNL     1       6.098   6.130  14.951  0.00  0.00    +0.000 HD
ENDBRANCH  25  26
ENDBRANCH   5  25
TORSDOF 7
ENDMDL
MODEL 2
REMARK VINA RESULT:      -8.5      1.362      1.692
REMARK  Name = 
REMARK  7 active torsions:
REMARK  status: ('A' for Active; 'I' for Inactive)
REMARK    1  A    between atoms: C_2  and  C_12
REMARK    2  A    between atoms: N_3  and  C_4
REMARK    3  A    between atoms: C_4  and  C_5
REMARK    4  A    between atoms: C_5  and  C_6
REMARK    5  A    between atoms: N_14  and  C_15
REMARK    6  A    between atoms: C_23  and  C_24
REMARK    7  A    between atoms: C_24  and  O_25
REMARK                            x       y       z     vdW  Elec       q    Type
REMARK                         _______ _______ _______ _____ _____    ______ ____
ROOT
ATOM      1  C   UNL     1       5.891   5.331  17.381  0.00  0.00    +0.000 A 
ATOM      2  N   UNL     1       5.157   5.389  18.509  0.00  0.00    +0.000 NA
ATOM      3  N   UNL     1       4.322   4.313  18.388  0.00  0.00    +0.000 N 
ATOM      4  N   UNL     1       4.504   3.555  17.269  0.00  0.00    +0.000 NA
ATOM      5  C   UNL     1       5.470   4.216  16.617  0.00  0.00    +0.000 A 
ENDROOT
BRANCH   3   6
ATOM      6  C   UNL     1       3.335   3.959  19.343  0.00  0.00    +0.000 A 
ATOM      7  C   UNL     1       2.098   4.637  19.358  0.00  0.00    +0.000 A 
ATOM      8  C   UNL     1       1.111   4.296  20.288  0.00  0.00    +0.000 A 
ATOM      9  C   UNL     1       1.345   3.283  21.216  0.00  0.00    +0.000 A 
ATOM     10  C   UNL     1       2.568   2.614  21.210  0.00  0.00    +0.000 A 
ATOM     11  C   UNL     1       3.555   2.950  20.280  0.00  0.00    +0.000 A 
ATOM     12  F   UNL     1       4.708   2.271  20.332  0.00  0.00    +0.000 F 
ENDBRANCH   3   6
BRANCH   1  14
ATOM     13  O   UNL     1       7.574   6.196  15.974  0.00  0.00    +0.000 OA
ATOM     14  C   UNL     1       6.960   6.279  17.034  0.00  0.00    +0.000 C 
ATOM     15  N   UNL     1       7.242   7.252  17.975  0.00  0.00    +0.000 N 
ATOM     16  H   UNL     1       6.747   7.199  18.860  0.00  0.00    +0.000 HD
BRANCH  15  17
ATOM     17  C   UNL     1       8.332   8.195  17.753  0.00  0.00    +0.000 C 
BRANCH  17  18
ATOM     18  C   UNL     1       7.963   9.653  18.035  0.00  0.00    +0.000 C 
BRANCH  18  19
ATOM     19  C   UNL     1       9.117  10.449  18.612  0.00  0.00    +0.000 A 
ATOM     20  C   UNL     1      10.096  11.005  17.778  0.00  0.00    +0.000 A 
ATOM     21  C   UNL     1      11.162  11.736  18.315  0.00  0.00    +0.000 A 
ATOM     22  C   UNL     1      11.263  11.916  19.693  0.00  0.00    +0.000 A 
ATOM     23  C   UNL     1      10.299  11.368  20.532  0.00  0.00    +0.000 A 
ATOM     24  C   UNL     1       9.233  10.637  19.998  0.00  0.00    +0.000 A 
ENDBRANCH  18  19
ENDBRANCH  17  18
ENDBRANCH  15  17
ENDBRANCH   1  14
BRANCH   5  25
ATOM     25  C   UNL     1       5.979   3.730  15.300  0.00  0.00    +0.000 C 
BRANCH  25  26
ATOM     26  O   UNL     1       5.606   4.591  14.219  0.00  0.00    +0.000 OA
ATOM     27  H   UNL     1       5.640   4.028  13.423  0.00  0.00    +0.000 HD
ENDBRANCH  25  26
ENDBRANCH   5  25
TORSDOF 7
ENDMDL
MODEL 3
REMARK VINA RESULT:      -8.4      0.940      1.346
REMARK  Name = 
REMARK  7 active torsions:
REMARK  status: ('A' for Active; 'I' for Inactive)
REMARK    1  A    between atoms: C_2  and  C_12
REMARK    2  A    between atoms: N_3  and  C_4
REMARK    3  A    between atoms: C_4  and  C_5
REMARK    4  A    between atoms: C_5  and  C_6
REMARK    5  A    between atoms: N_14  and  C_15
REMARK    6  A    between atoms: C_23  and  C_24
REMARK    7  A    between atoms: C_24  and  O_25
REMARK                            x       y       z     vdW  Elec       q    Type
REMARK                         _______ _______ _______ _____ _____    ______ ____
ROOT
ATOM      1  C   UNL     1       6.031   5.535  18.120  0.00  0.00    +0.000 A 
ATOM      2  N   UNL     1       5.126   5.137  19.035  0.00  0.00    +0.000 NA
ATOM      3  N   UNL     1       4.176   4.513  18.276  0.00  0.00    +0.000 N 
ATOM      4  N   UNL     1       4.437   4.459  16.938  0.00  0.00    +0.000 NA
ATOM      5  C   UNL     1       5.591   5.133  16.835  0.00  0.00    +0.000 A 
ENDROOT
BRANCH   3   6
ATOM      6  C   UNL     1       2.993   3.929  18.801  0.00  0.00    +0.000 A 
ATOM      7  C   UNL     1       2.177   4.670  19.681  0.00  0.00    +0.000 A 
ATOM      8  C   UNL     1       1.005   4.112  20.202  0.00  0.00    +0.000 A 
ATOM      9  C   UNL     1       0.636   2.813  19.859  0.00  0.00    +0.000 A 
ATOM     10  C   UNL     1       1.443   2.074  18.994  0.00  0.00    +0.000 A 
ATOM     11  C   UNL     1       2.612   2.630  18.469  0.00  0.00    +0.000 A 
ATOM     12  F   UNL     1       3.344   1.864  17.649  0.00  0.00    +0.000 F 
ENDBRANCH   3   6
BRANCH   1  14
ATOM     13  O   UNL     1       8.167   5.736  19.099  0.00  0.00    +0.000 OA
ATOM     14  C   UNL     1       7.273   6.255  18.436  0.00  0.00    +0.000 C 
ATOM     15  N   UNL     1       7.366   7.549  17.958  0.00  0.00    +0.000 N 
ATOM     16  H   UNL     1       6.548   7.932  17.492  0.00  0.00    +0.000 HD
BRANCH  15  17
ATOM     17  C   UNL     1       8.529   8.369  18.278  0.00  0.00    +0.000 C 
BRANCH  17  18
ATOM     18  C   UNL     1       8.331   9.863  18.015  0.00  0.00    +0.000 C 
BRANCH  18  19
ATOM     19  C   UNL     1       9.416  10.718  18.639  0.00  0.00    +0.000 A 
ATOM     20  C   UNL     1      10.389  11.339  17.845  0.00  0.00    +0.000 A 
ATOM     21  C   UNL     1      11.392  12.124  18.426  0.00  0.00    +0.000 A 
ATOM     22  C   UNL     1      11.435  12.293  19.808  0.00  0.00    +0.000 A 
ATOM     23  C   UNL     1      10.476  11.681  20.609  0.00  0.00    +0.000 A 
ATOM     24  C   UNL     1       9.473  10.896  20.030  0.00  0.00    +0.000 A 
ENDBRANCH  18  19
ENDBRANCH  17  18
ENDBRANCH  15  17
ENDBRANCH   1  14
BRANCH   5  25
ATOM     25  C   UNL     1       6.246   5.335  15.508  0.00  0.00    +0.000 C 
BRANCH  25  26
ATOM     26  O   UNL     1       7.543   4.733  15.443  0.00  0.00    +0.000 OA
ATOM     27  H   UNL     1       7.824   4.637  16.372  0.00  0.00    +0.000 HD
ENDBRANCH  25  26
ENDBRANCH   5  25
TORSDOF 7
ENDMDL
MODEL 4
REMARK VINA RESULT:      -8.4      1.430      1.976
REMARK  Name = 
REMARK  7 active torsions:
REMARK  status: ('A' for Active; 'I' for Inactive)
REMARK    1  A    between atoms: C_2  and  C_12
REMARK    2  A    between atoms: N_3  and  C_4
REMARK    3  A    between atoms: C_4  and  C_5
REMARK    4  A    between atoms: C_5  and  C_6
REMARK    5  A    between atoms: N_14  and  C_15
REMARK    6  A    between atoms: C_23  and  C_24
REMARK    7  A    between atoms: C_24  and  O_25
REMARK                            x       y       z     vdW  Elec       q    Type
REMARK                         _______ _______ _______ _____ _____    ______ ____
ROOT
ATOM      1  C   UNL     1       5.887   5.574  18.242  0.00  0.00    +0.000 A 
ATOM      2  N   UNL     1       5.185   5.161  19.315  0.00  0.00    +0.000 NA
ATOM      3  N   UNL     1       4.098   4.551  18.754  0.00  0.00    +0.000 N 
ATOM      4  N   UNL     1       4.082   4.518  17.391  0.00  0.00    +0.000 NA
ATOM      5  C   UNL     1       5.194   5.194  17.067  0.00  0.00    +0.000 A 
ENDROOT
BRANCH   3   6
ATOM      6  C   UNL     1       3.044   3.960  19.499  0.00  0.00    +0.000 A 
ATOM      7  C   UNL     1       3.332   3.266  20.692  0.00  0.00    +0.000 A 
ATOM      8  C   UNL     1       2.305   2.683  21.442  0.00  0.00    +0.000 A 
ATOM      9  C   UNL     1       0.984   2.779  21.010  0.00  0.00    +0.000 A 
ATOM     10  C   UNL     1       0.694   3.459  19.827  0.00  0.00    +0.000 A 
ATOM     11  C   UNL     1       1.717   4.045  19.078  0.00  0.00    +0.000 A 
ATOM     12  F   UNL     1       1.370   4.678  17.949  0.00  0.00    +0.000 F 
ENDBRANCH   3   6
BRANCH   1  14
ATOM     13  O   UNL     1       8.168   5.772  18.808  0.00  0.00    +0.000 OA
ATOM     14  C   UNL     1       7.170   6.287  18.310  0.00  0.00    +0.000 C 
ATOM     15  N   UNL     1       7.182   7.572  17.799  0.00  0.00    +0.000 N 
ATOM     16  H   UNL     1       6.296   7.954  17.484  0.00  0.00    +0.000 HD
BRANCH  15  17
ATOM     17  C   UNL     1       8.389   8.386  17.885  0.00  0.00    +0.000 C 
BRANCH  17  18
ATOM     18  C   UNL     1       8.123   9.890  17.972  0.00  0.00    +0.000 C 
BRANCH  18  19
ATOM     19  C   UNL     1       9.275  10.655  18.594  0.00  0.00    +0.000 A 
ATOM     20  C   UNL     1      10.288  11.203  17.796  0.00  0.00    +0.000 A 
ATOM     21  C   UNL     1      11.351  11.906  18.374  0.00  0.00    +0.000 A 
ATOM     22  C   UNL     1      11.416  12.064  19.757  0.00  0.00    +0.000 A 
ATOM     23  C   UNL     1      10.417  11.523  20.560  0.00  0.00    +0.000 A 
ATOM     24  C   UNL     1       9.354  10.821  19.985  0.00  0.00    +0.000 A 
ENDBRANCH  18  19
ENDBRANCH  17  18
ENDBRANCH  15  17
ENDBRANCH   1  14
BRANCH   5  25
ATOM     25  C   UNL     1       5.568   5.416  15.638  0.00  0.00    +0.000 C 
BRANCH  25  26
ATOM     26  O   UNL     1       5.427   6.786  15.244  0.00  0.00    +0.000 OA
ATOM     27  H   UNL     1       5.908   7.295  15.922  0.00  0.00    +0.000 HD
ENDBRANCH  25  26
ENDBRANCH   5  25
TORSDOF 7
ENDMDL
MODEL 5
REMARK VINA RESULT:      -8.4      1.160      1.592
REMARK  Name = 
REMARK  7 active torsions:
REMARK  status: ('A' for Active; 'I' for Inactive)
REMARK    1  A    between atoms: C_2  and  C_12
REMARK    2  A    between atoms: N_3  and  C_4
REMARK    3  A    between atoms: C_4  and  C_5
REMARK    4  A    between atoms: C_5  and  C_6
REMARK    5  A    between atoms: N_14  and  C_15
REMARK    6  A    between atoms: C_23  and  C_24
REMARK    7  A    between atoms: C_24  and  O_25
REMARK                            x       y       z     vdW  Elec       q    Type
REMARK                         _______ _______ _______ _____ _____    ______ ____
ROOT
ATOM      1  C   UNL     1       6.206   5.222  18.268  0.00  0.00    +0.000 A 
ATOM      2  N   UNL     1       5.164   5.014  19.097  0.00  0.00    +0.000 NA
ATOM      3  N   UNL     1       4.323   4.242  18.346  0.00  0.00    +0.000 N 
ATOM      4  N   UNL     1       4.780   3.916  17.103  0.00  0.00    +0.000 NA
ATOM      5  C   UNL     1       5.953   4.563  17.040  0.00  0.00    +0.000 A 
ENDROOT
BRANCH   3   6
ATOM      6  C   UNL     1       3.061   3.771  18.793  0.00  0.00    +0.000 A 
ATOM      7  C   UNL     1       2.489   2.626  18.200  0.00  0.00    +0.000 A 
ATOM      8  C   UNL     1       1.250   2.144  18.633  0.00  0.00    +0.000 A 
ATOM      9  C   UNL     1       0.565   2.798  19.655  0.00  0.00    +0.000 A 
ATOM     10  C   UNL     1       1.123   3.933  20.241  0.00  0.00    +0.000 A 
ATOM     11  C   UNL     1       2.362   4.415  19.813  0.00  0.00    +0.000 A 
ATOM     12  F   UNL     1       2.838   5.513  20.415  0.00  0.00    +0.000 F 
ENDBRANCH   3   6
BRANCH   1  14
ATOM     13  O   UNL     1       8.308   5.519  19.294  0.00  0.00    +0.000 OA
ATOM     14  C   UNL     1       7.404   5.999  18.615  0.00  0.00    +0.000 C 
ATOM     15  N   UNL     1       7.444   7.300  18.147  0.00  0.00    +0.000 N 
ATOM     16  H   UNL     1       6.619   7.645  17.666  0.00  0.00    +0.000 HD
BRANCH  15  17
ATOM     17  C   UNL     1       8.559   8.172  18.497  0.00  0.00    +0.000 C 
BRANCH  17  18
ATOM     18  C   UNL     1       8.424   9.601  17.965  0.00  0.00    +0.000 C 
BRANCH  18  19
ATOM     19  C   UNL     1       9.380  10.569  18.634  0.00  0.00    +0.000 A 
ATOM     20  C   UNL     1      10.282  11.328  17.877  0.00  0.00    +0.000 A 
ATOM     21  C   UNL     1      11.165  12.218  18.498  0.00  0.00    +0.000 A 
ATOM     22  C   UNL     1      11.159  12.355  19.885  0.00  0.00    +0.000 A 
ATOM     23  C   UNL     1      10.270  11.606  20.648  0.00  0.00    +0.000 A 
ATOM     24  C   UNL     1       9.387  10.716  20.029  0.00  0.00    +0.000 A 
ENDBRANCH  18  19
ENDBRANCH  17  18
ENDBRANCH  15  17
ENDBRANCH   1  14
BRANCH   5  25
ATOM     25  C   UNL     1       6.804   4.492  15.815  0.00  0.00    +0.000 C 
BRANCH  25  26
ATOM     26  O   UNL     1       6.344   3.503  14.887  0.00  0.00    +0.000 OA
ATOM     27  H   UNL     1       7.153   3.068  14.560  0.00  0.00    +0.000 HD
ENDBRANCH  25  26
ENDBRANCH   5  25
TORSDOF 7
ENDMDL
MODEL 6
REMARK VINA RESULT:      -8.3      1.599      2.602
REMARK  Name = 
REMARK  7 active torsions:
REMARK  status: ('A' for Active; 'I' for Inactive)
REMARK    1  A    between atoms: C_2  and  C_12
REMARK    2  A    between atoms: N_3  and  C_4
REMARK    3  A    between atoms: C_4  and  C_5
REMARK    4  A    between atoms: C_5  and  C_6
REMARK    5  A    between atoms: N_14  and  C_15
REMARK    6  A    between atoms: C_23  and  C_24
REMARK    7  A    between atoms: C_24  and  O_25
REMARK                            x       y       z     vdW  Elec       q    Type
REMARK                         _______ _______ _______ _____ _____    ______ ____
ROOT
ATOM      1  C   UNL     1       6.456   6.259  18.176  0.00  0.00    +0.000 A 
ATOM      2  N   UNL     1       5.133   6.093  17.984  0.00  0.00    +0.000 NA
ATOM      3  N   UNL     1       4.807   5.137  18.904  0.00  0.00    +0.000 N 
ATOM      4  N   UNL     1       5.834   4.709  19.694  0.00  0.00    +0.000 NA
ATOM      5  C   UNL     1       6.881   5.392  19.211  0.00  0.00    +0.000 A 
ENDROOT
BRANCH   3   6
ATOM      6  C   UNL     1       3.500   4.610  19.077  0.00  0.00    +0.000 A 
ATOM      7  C   UNL     1       2.813   4.824  20.290  0.00  0.00    +0.000 A 
ATOM      8  C   UNL     1       1.522   4.318  20.475  0.00  0.00    +0.000 A 
ATOM      9  C   UNL     1       0.906   3.589  19.460  0.00  0.00    +0.000 A 
ATOM     10  C   UNL     1       1.584   3.368  18.262  0.00  0.00    +0.000 A 
ATOM     11  C   UNL     1       2.871   3.876  18.072  0.00  0.00    +0.000 A 
ATOM     12  F   UNL     1       3.467   3.623  16.900  0.00  0.00    +0.000 F 
ENDBRANCH   3   6
BRANCH   1  14
ATOM     13  O   UNL     1       7.730   6.935  16.310  0.00  0.00    +0.000 OA
ATOM     14  C   UNL     1       7.293   7.206  17.426  0.00  0.00    +0.000 C 
ATOM     15  N   UNL     1       7.572   8.405  18.055  0.00  0.00    +0.000 N 
ATOM     16  H   UNL     1       7.243   8.515  19.010  0.00  0.00    +0.000 HD
BRANCH  15  17
ATOM     17  C   UNL     1       8.451   9.381  17.422  0.00  0.00    +0.000 C 
BRANCH  17  18
ATOM     18  C   UNL     1       8.356  10.787  18.018  0.00  0.00    +0.000 C 
BRANCH  18  19
ATOM     19  C   UNL     1       9.667  11.263  18.612  0.00  0.00    +0.000 A 
ATOM     20  C   UNL     1      10.756  11.583  17.790  0.00  0.00    +0.000 A 
ATOM     21  C   UNL     1      11.965  12.018  18.343  0.00  0.00    +0.000 A 
ATOM     22  C   UNL     1      12.101  12.134  19.725  0.00  0.00    +0.000 A 
ATOM     23  C   UNL     1      11.028  11.818  20.552  0.00  0.00    +0.000 A 
ATOM     24  C   UNL     1       9.819  11.383  20.002  0.00  0.00    +0.000 A 
ENDBRANCH  18  19
ENDBRANCH  17  18
ENDBRANCH  15  17
ENDBRANCH   1  14
BRANCH   5  25
ATOM     25  C   UNL     1       8.247   5.212  19.789  0.00  0.00    +0.000 C 
BRANCH  25  26
ATOM     26  O   UNL     1       8.242   5.246  21.220  0.00  0.00    +0.000 OA
ATOM     27  H   UNL     1       8.555   4.364  21.495  0.00  0.00    +0.000 HD
ENDBRANCH  25  26
ENDBRANCH   5  25
TORSDOF 7
ENDMDL
MODEL 7
REMARK VINA RESULT:      -8.3      1.446      1.636
REMARK  Name = 
REMARK  7 active torsions:
REMARK  status: ('A' for Active; 'I' for Inactive)
REMARK    1  A    between atoms: C_2  and  C_12
REMARK    2  A    between atoms: N_3  and  C_4
REMARK    3  A    between atoms: C_4  and  C_5
REMARK    4  A    between atoms: C_5  and  C_6
REMARK    5  A    between atoms: N_14  and  C_15
REMARK    6  A    between atoms: C_23  and  C_24
REMARK    7  A    between atoms: C_24  and  O_25
REMARK                            x       y       z     vdW  Elec       q    Type
REMARK                         _______ _______ _______ _____ _____    ______ ____
ROOT
ATOM      1  C   UNL     1       5.962   5.928  17.954  0.00  0.00    +0.000 A 
ATOM      2  N   UNL     1       5.168   5.542  18.971  0.00  0.00    +0.000 NA
ATOM      3  N   UNL     1       4.194   4.817  18.344  0.00  0.00    +0.000 N 
ATOM      4  N   UNL     1       4.339   4.688  16.994  0.00  0.00    +0.000 NA
ATOM      5  C   UNL     1       5.435   5.417  16.742  0.00  0.00    +0.000 A 
ENDROOT
BRANCH   3   6
ATOM      6  C   UNL     1       3.101   4.205  19.011  0.00  0.00    +0.000 A 
ATOM      7  C   UNL     1       2.917   2.809  18.921  0.00  0.00    +0.000 A 
ATOM      8  C   UNL     1       1.850   2.189  19.578  0.00  0.00    +0.000 A 
ATOM      9  C   UNL     1       0.952   2.949  20.324  0.00  0.00    +0.000 A 
ATOM     10  C   UNL     1       1.125   4.330  20.411  0.00  0.00    +0.000 A 
ATOM     11  C   UNL     1       2.193   4.952  19.759  0.00  0.00    +0.000 A 
ATOM     12  F   UNL     1       2.298   6.283  19.879  0.00  0.00    +0.000 F 
ENDBRANCH   3   6
BRANCH   1  14
ATOM     13  O   UNL     1       8.075   6.409  18.884  0.00  0.00    +0.000 OA
ATOM     14  C   UNL     1       7.180   6.735  18.108  0.00  0.00    +0.000 C 
ATOM     15  N   UNL     1       7.251   7.886  17.345  0.00  0.00    +0.000 N 
ATOM     16  H   UNL     1       6.433   8.127  16.793  0.00  0.00    +0.000 HD
BRANCH  15  17
ATOM     17  C   UNL     1       8.388   8.788  17.479  0.00  0.00    +0.000 C 
BRANCH  17  18
ATOM     18  C   UNL     1       8.086  10.058  18.279  0.00  0.00    +0.000 C 
BRANCH  18  19
ATOM     19  C   UNL     1       9.340  10.751  18.775  0.00  0.00    +0.000 A 
ATOM     20  C   UNL     1       9.499  11.068  20.130  0.00  0.00    +0.000 A 
ATOM     21  C   UNL     1      10.656  11.712  20.583  0.00  0.00    +0.000 A 
ATOM     22  C   UNL     1      11.665  12.051  19.684  0.00  0.00    +0.000 A 
ATOM     23  C   UNL     1      11.519  11.743  18.335  0.00  0.00    +0.000 A 
ATOM     24  C   UNL     1      10.364  11.100  17.881  0.00  0.00    +0.000 A 
ENDBRANCH  18  19
ENDBRANCH  17  18
ENDBRANCH  15  17
ENDBRANCH   1  14
BRANCH   5  25
ATOM     25  C   UNL     1       5.956   5.566  15.351  0.00  0.00    +0.000 C 
BRANCH  25  26
ATOM     26  O   UNL     1       7.378   5.410  15.281  0.00  0.00    +0.000 OA
ATOM     27  H   UNL     1       7.590   5.446  14.330  0.00  0.00    +0.000 HD
ENDBRANCH  25  26
ENDBRANCH   5  25
TORSDOF 7
ENDMDL
MODEL 8
REMARK VINA RESULT:      -8.3      1.129      1.423
REMARK  Name = 
REMARK  7 active torsions:
REMARK  status: ('A' for Active; 'I' for Inactive)
REMARK    1  A    between atoms: C_2  and  C_12
REMARK    2  A    between atoms: N_3  and  C_4
REMARK    3  A    between atoms: C_4  and  C_5
REMARK    4  A    between atoms: C_5  and  C_6
REMARK    5  A    between atoms: N_14  and  C_15
REMARK    6  A    between atoms: C_23  and  C_24
REMARK    7  A    between atoms: C_24  and  O_25
REMARK                            x       y       z     vdW  Elec       q    Type
REMARK                         _______ _______ _______ _____ _____    ______ ____
ROOT
ATOM      1  C   UNL     1       6.210   5.158  18.506  0.00  0.00    +0.000 A 
ATOM      2  N   UNL     1       5.206   4.938  19.376  0.00  0.00    +0.000 NA
ATOM      3  N   UNL     1       4.356   4.136  18.668  0.00  0.00    +0.000 N 
ATOM      4  N   UNL     1       4.773   3.803  17.413  0.00  0.00    +0.000 NA
ATOM      5  C   UNL     1       5.927   4.476  17.297  0.00  0.00    +0.000 A 
ENDROOT
BRANCH   3   6
ATOM      6  C   UNL     1       3.123   3.642  19.169  0.00  0.00    +0.000 A 
ATOM      7  C   UNL     1       3.050   3.149  20.488  0.00  0.00    +0.000 A 
ATOM      8  C   UNL     1       1.841   2.665  21.000  0.00  0.00    +0.000 A 
ATOM      9  C   UNL     1       0.698   2.660  20.205  0.00  0.00    +0.000 A 
ATOM     10  C   UNL     1       0.766   3.140  18.898  0.00  0.00    +0.000 A 
ATOM     11  C   UNL     1       1.970   3.627  18.384  0.00  0.00    +0.000 A 
ATOM     12  F   UNL     1       1.968   4.068  17.119  0.00  0.00    +0.000 F 
ENDBRANCH   3   6
BRANCH   1  14
ATOM     13  O   UNL     1       8.293   5.559  19.536  0.00  0.00    +0.000 OA
ATOM     14  C   UNL     1       7.401   5.968  18.796  0.00  0.00    +0.000 C 
ATOM     15  N   UNL     1       7.450   7.217  18.204  0.00  0.00    +0.000 N 
ATOM     16  H   UNL     1       6.634   7.512  17.676  0.00  0.00    +0.000 HD
BRANCH  15  17
ATOM     17  C   UNL     1       8.558   8.122  18.487  0.00  0.00    +0.000 C 
BRANCH  17  18
ATOM     18  C   UNL     1       8.397   9.515  17.876  0.00  0.00    +0.000 C 
BRANCH  18  19
ATOM     19  C   UNL     1       9.240  10.564  18.575  0.00  0.00    +0.000 A 
ATOM     20  C   UNL     1       9.414  10.538  19.965  0.00  0.00    +0.000 A 
ATOM     21  C   UNL     1      10.190  11.511  20.606  0.00  0.00    +0.000 A 
ATOM     22  C   UNL     1      10.798  12.522  19.865  0.00  0.00    +0.000 A 
ATOM     23  C   UNL     1      10.632  12.559  18.484  0.00  0.00    +0.000 A 
ATOM     24  C   UNL     1       9.857  11.589  17.841  0.00  0.00    +0.000 A 
ENDBRANCH  18  19
ENDBRANCH  17  18
ENDBRANCH  15  17
ENDBRANCH   1  14
BRANCH   5  25
ATOM     25  C   UNL     1       6.733   4.407  16.042  0.00  0.00    +0.000 C 
BRANCH  25  26
ATOM     26  O   UNL     1       6.905   5.692  15.433  0.00  0.00    +0.000 OA
ATOM     27  H   UNL     1       7.685   5.596  14.857  0.00  0.00    +0.000 HD
ENDBRANCH  25  26
ENDBRANCH   5  25
TORSDOF 7
ENDMDL
MODEL 9
REMARK VINA RESULT:      -8.3      1.615      1.822
REMARK  Name = 
REMARK  7 active torsions:
REMARK  status: ('A' for Active; 'I' for Inactive)
REMARK    1  A    between atoms: C_2  and  C_12
REMARK    2  A    between atoms: N_3  and  C_4
REMARK    3  A    between atoms: C_4  and  C_5
REMARK    4  A    between atoms: C_5  and  C_6
REMARK    5  A    between atoms: N_14  and  C_15
REMARK    6  A    between atoms: C_23  and  C_24
REMARK    7  A    between atoms: C_24  and  O_25
REMARK                            x       y       z     vdW  Elec       q    Type
REMARK                         _______ _______ _______ _____ _____    ______ ____
ROOT
ATOM      1  C   UNL     1       5.728   5.563  17.230  0.00  0.00    +0.000 A 
ATOM      2  N   UNL     1       5.165   5.479  18.451  0.00  0.00    +0.000 NA
ATOM      3  N   UNL     1       4.190   4.537  18.276  0.00  0.00    +0.000 N 
ATOM      4  N   UNL     1       4.120   3.992  17.028  0.00  0.00    +0.000 NA
ATOM      5  C   UNL     1       5.068   4.663  16.358  0.00  0.00    +0.000 A 
ENDROOT
BRANCH   3   6
ATOM      6  C   UNL     1       3.301   4.110  19.297  0.00  0.00    +0.000 A 
ATOM      7  C   UNL     1       2.101   4.815  19.522  0.00  0.00    +0.000 A 
ATOM      8  C   UNL     1       1.211   4.404  20.519  0.00  0.00    +0.000 A 
ATOM      9  C   UNL     1       1.508   3.293  21.305  0.00  0.00    +0.000 A 
ATOM     10  C   UNL     1       2.697   2.596  21.092  0.00  0.00    +0.000 A 
ATOM     11  C   UNL     1       3.586   3.002  20.094  0.00  0.00    +0.000 A 
ATOM     12  F   UNL     1       4.712   2.292  19.945  0.00  0.00    +0.000 F 
ENDBRANCH   3   6
BRANCH   1  14
ATOM     13  O   UNL     1       7.656   6.153  16.008  0.00  0.00    +0.000 OA
ATOM     14  C   UNL     1       6.854   6.445  16.892  0.00  0.00    +0.000 C 
ATOM     15  N   UNL     1       6.964   7.606  17.633  0.00  0.00    +0.000 N 
ATOM     16  H   UNL     1       6.310   7.731  18.400  0.00  0.00    +0.000 HD
BRANCH  15  17
ATOM     17  C   UNL     1       8.087   8.511  17.419  0.00  0.00    +0.000 C 
BRANCH  17  18
ATOM     18  C   UNL     1       8.538   9.255  18.678  0.00  0.00    +0.000 C 
BRANCH  18  19
ATOM     19  C   UNL     1       9.162  10.603  18.372  0.00  0.00    +0.000 A 
ATOM     20  C   UNL     1       8.396  11.645  17.835  0.00  0.00    +0.000 A 
ATOM     21  C   UNL     1       8.977  12.886  17.551  0.00  0.00    +0.000 A 
ATOM     22  C   UNL     1      10.332  13.097  17.795  0.00  0.00    +0.000 A 
ATOM     23  C   UNL     1      11.105  12.069  18.326  0.00  0.00    +0.000 A 
ATOM     24  C   UNL     1      10.526  10.828  18.611  0.00  0.00    +0.000 A 
ENDBRANCH  18  19
ENDBRANCH  17  18
ENDBRANCH  15  17
ENDBRANCH   1  14
BRANCH   5  25
ATOM     25  C   UNL     1       5.328   4.388  14.914  0.00  0.00    +0.000 C 
BRANCH  25  26
ATOM     26  O   UNL     1       6.480   3.561  14.715  0.00  0.00    +0.000 OA
ATOM     27  H   UNL     1       6.239   2.696  15.094  0.00  0.00    +0.000 HD
ENDBRANCH  25  26
ENDBRANCH   5  25
TORSDOF 7
ENDMDL
