MODEL 1
REMARK VINA RESULT:      -8.4      0.000      0.000
REMARK  Name = 
REMARK  9 active torsions:
REMARK  status: ('A' for Active; 'I' for Inactive)
REMARK    1  A    between atoms: C_1  and  O_2
REMARK    2  A    between atoms: O_2  and  C_3
REMARK    3  A    between atoms: C_6  and  C_7
REMARK    4  A    between atoms: C_7  and  N_8
REMARK    5  A    between atoms: C_9  and  C_11
REMARK    6  A    between atoms: C_14  and  N_15
REMARK    7  A    between atoms: C_18  and  C_19
REMARK    8  A    between atoms: C_28  and  O_29
REMARK    9  A    between atoms: O_29  and  C_30
REMARK                            x       y       z     vdW  Elec       q    Type
REMARK                         _______ _______ _______ _____ _____    ______ ____
ROOT
ATOM      1  C   UNL     1       1.190   9.438  19.253  0.00  0.00    +0.000 A 
ATOM      2  C   UNL     1       1.482   9.120  17.916  0.00  0.00    +0.000 A 
ATOM      3  C   UNL     1       2.146   7.933  17.587  0.00  0.00    +0.000 A 
ATOM      4  C   UNL     1       2.527   7.047  18.594  0.00  0.00    +0.000 A 
ATOM      5  C   UNL     1       2.186   7.322  19.916  0.00  0.00    +0.000 A 
ATOM      6  C   UNL     1       1.524   8.511  20.251  0.00  0.00    +0.000 A 
ATOM      7 CL   UNL     1       1.139   8.719  21.925  0.00  0.00    +0.000 Cl
ENDROOT
BRANCH   4   8
ATOM      8  N   UNL     1       3.212   5.832  18.304  0.00  0.00    +0.000 N 
ATOM      9  C   UNL     1       4.353   5.878  17.475  0.00  0.00    +0.000 C 
ATOM     10  O   UNL     1       5.089   6.846  17.362  0.00  0.00    +0.000 OA
ATOM     11  C   UNL     1       4.504   4.587  16.683  0.00  0.00    +0.000 C 
ATOM     12  C   UNL     1       5.952   4.133  16.585  0.00  0.00    +0.000 C 
ATOM     13  C   UNL     1       3.620   3.528  17.343  0.00  0.00    +0.000 C 
ATOM     14  S   UNL     1       2.350   4.394  18.237  0.00  0.00    +0.000 S 
ATOM     15  O   UNL     1       2.252   3.848  19.571  0.00  0.00    +0.000 OA
ATOM     16  O   UNL     1       1.207   4.554  17.369  0.00  0.00    +0.000 OA
ENDBRANCH   4   8
BRANCH   1  18
ATOM     17  N   UNL     1      -0.800  10.788  19.722  0.00  0.00    +0.000 N 
ATOM     18  C   UNL     1       0.553  10.770  19.495  0.00  0.00    +0.000 C 
ATOM     19  O   UNL     1       1.254  11.778  19.552  0.00  0.00    +0.000 OA
ATOM     20  H   UNL     1      -1.347   9.956  19.535  0.00  0.00    +0.000 HD
BRANCH  17  21
ATOM     21  C   UNL     1      -1.529  12.010  19.961  0.00  0.00    +0.000 C 
BRANCH  21  25
ATOM     22  C   UNL     1      -5.369  12.077  17.946  0.00  0.00    +0.000 A 
ATOM     23  C   UNL     1      -5.226  12.595  19.243  0.00  0.00    +0.000 A 
ATOM     24  C   UNL     1      -3.992  12.565  19.898  0.00  0.00    +0.000 A 
ATOM     25  C   UNL     1      -2.882  11.973  19.292  0.00  0.00    +0.000 A 
ATOM     26  C   UNL     1      -3.050  11.382  18.033  0.00  0.00    +0.000 A 
ATOM     27  C   UNL     1      -4.280  11.421  17.351  0.00  0.00    +0.000 A 
BRANCH  22  29
ATOM     28  C   UNL     1      -6.945  13.501  16.891  0.00  0.00    +0.000 C 
ATOM     29  O   UNL     1      -6.555  12.180  17.269  0.00  0.00    +0.000 OA
ENDBRANCH  22  29
BRANCH  27  30
ATOM     30  O   UNL     1      -4.207  10.800  16.133  0.00  0.00    +0.000 OA
ATOM     31  C   UNL     1      -3.016  10.899  15.369  0.00  0.00    +0.000 C 
ENDBRANCH  27  30
ENDBRANCH  21  25
ENDBRANCH  17  21
ENDBRANCH   1  18
TORSDOF 6
ENDMDL
MODEL 2
REMARK VINA RESULT:      -8.1      0.950      1.042
REMARK  Name = 
REMARK  9 active torsions:
REMARK  status: ('A' for Active; 'I' for Inactive)
REMARK    1  A    between atoms: C_1  and  O_2
REMARK    2  A    between atoms: O_2  and  C_3
REMARK    3  A    between atoms: C_6  and  C_7
REMARK    4  A    between atoms: C_7  and  N_8
REMARK    5  A    between atoms: C_9  and  C_11
REMARK    6  A    between atoms: C_14  and  N_15
REMARK    7  A    between atoms: C_18  and  C_19
REMARK    8  A    between atoms: C_28  and  O_29
REMARK    9  A    between atoms: O_29  and  C_30
REMARK                            x       y       z     vdW  Elec       q    Type
REMARK                         _______ _______ _______ _____ _____    ______ ____
ROOT
ATOM      1  C   UNL     1       1.341   9.070  19.182  0.00  0.00    +0.000 A 
ATOM      2  C   UNL     1       1.751   8.889  17.851  0.00  0.00    +0.000 A 
ATOM      3  C   UNL     1       2.526   7.785  17.479  0.00  0.00    +0.000 A 
ATOM      4  C   UNL     1       2.901   6.846  18.438  0.00  0.00    +0.000 A 
ATOM      5  C   UNL     1       2.447   6.981  19.748  0.00  0.00    +0.000 A 
ATOM      6  C   UNL     1       1.673   8.087  20.126  0.00  0.00    +0.000 A 
ATOM      7 CL   UNL     1       1.154   8.123  21.776  0.00  0.00    +0.000 Cl
ENDROOT
BRANCH   4   8
ATOM      8  N   UNL     1       3.697   5.712  18.106  0.00  0.00    +0.000 N 
ATOM      9  C   UNL     1       4.774   5.879  17.210  0.00  0.00    +0.000 C 
ATOM     10  O   UNL     1       5.391   6.920  17.053  0.00  0.00    +0.000 OA
ATOM     11  C   UNL     1       5.018   4.608  16.408  0.00  0.00    +0.000 C 
ATOM     12  C   UNL     1       6.499   4.315  16.222  0.00  0.00    +0.000 C 
ATOM     13  C   UNL     1       4.297   3.461  17.119  0.00  0.00    +0.000 C 
ATOM     14  S   UNL     1       2.996   4.187  18.089  0.00  0.00    +0.000 S 
ATOM     15  O   UNL     1       3.039   3.640  19.426  0.00  0.00    +0.000 OA
ATOM     16  O   UNL     1       1.792   4.216  17.293  0.00  0.00    +0.000 OA
ENDBRANCH   4   8
BRANCH   1  18
ATOM     17  N   UNL     1       0.167  11.078  18.411  0.00  0.00    +0.000 N 
ATOM     18  C   UNL     1       0.587  10.328  19.480  0.00  0.00    +0.000 C 
ATOM     19  O   UNL     1       0.310  10.609  20.644  0.00  0.00    +0.000 OA
ATOM     20  H   UNL     1       0.531  10.875  17.487  0.00  0.00    +0.000 HD
BRANCH  17  21
ATOM     21  C   UNL     1      -0.562  12.313  18.569  0.00  0.00    +0.000 C 
BRANCH  21  25
ATOM     22  C   UNL     1      -4.859  11.821  18.246  0.00  0.00    +0.000 A 
ATOM     23  C   UNL     1      -4.271  12.261  19.442  0.00  0.00    +0.000 A 
ATOM     24  C   UNL     1      -2.887  12.411  19.552  0.00  0.00    +0.000 A 
ATOM     25  C   UNL     1      -2.051  12.077  18.484  0.00  0.00    +0.000 A 
ATOM     26  C   UNL     1      -2.635  11.557  17.322  0.00  0.00    +0.000 A 
ATOM     27  C   UNL     1      -4.028  11.419  17.187  0.00  0.00    +0.000 A 
BRANCH  22  29
ATOM     28  C   UNL     1      -6.850  10.608  18.682  0.00  0.00    +0.000 C 
ATOM     29  O   UNL     1      -6.220  11.753  18.107  0.00  0.00    +0.000 OA
ENDBRANCH  22  29
BRANCH  27  30
ATOM     30  O   UNL     1      -4.375  10.911  15.964  0.00  0.00    +0.000 OA
ATOM     31  C   UNL     1      -3.359  10.458  15.083  0.00  0.00    +0.000 C 
ENDBRANCH  27  30
ENDBRANCH  21  25
ENDBRANCH  17  21
ENDBRANCH   1  18
TORSDOF 6
ENDMDL
MODEL 3
REMARK VINA RESULT:      -8.1      7.162      9.587
REMARK  Name = 
REMARK  9 active torsions:
REMARK  status: ('A' for Active; 'I' for Inactive)
REMARK    1  A    between atoms: C_1  and  O_2
REMARK    2  A    between atoms: O_2  and  C_3
REMARK    3  A    between atoms: C_6  and  C_7
REMARK    4  A    between atoms: C_7  and  N_8
REMARK    5  A    between atoms: C_9  and  C_11
REMARK    6  A    between atoms: C_14  and  N_15
REMARK    7  A    between atoms: C_18  and  C_19
REMARK    8  A    between atoms: C_28  and  O_29
REMARK    9  A    between atoms: O_29  and  C_30
REMARK                            x       y       z     vdW  Elec       q    Type
REMARK                         _______ _______ _______ _____ _____    ______ ____
ROOT
ATOM      1  C   UNL     1       6.328   6.655  17.761  0.00  0.00    +0.000 A 
ATOM      2  C   UNL     1       5.075   6.800  17.143  0.00  0.00    +0.000 A 
ATOM      3  C   UNL     1       3.995   5.988  17.507  0.00  0.00    +0.000 A 
ATOM      4  C   UNL     1       4.156   5.020  18.498  0.00  0.00    +0.000 A 
ATOM      5  C   UNL     1       5.375   4.911  19.161  0.00  0.00    +0.000 A 
ATOM      6  C   UNL     1       6.461   5.720  18.798  0.00  0.00    +0.000 A 
ATOM      7 CL   UNL     1       7.911   5.501  19.716  0.00  0.00    +0.000 Cl
ENDROOT
BRANCH   4   8
ATOM      8  N   UNL     1       3.085   4.166  18.893  0.00  0.00    +0.000 N 
ATOM      9  C   UNL     1       2.768   4.067  20.264  0.00  0.00    +0.000 C 
ATOM     10  O   UNL     1       2.966   4.947  21.087  0.00  0.00    +0.000 OA
ATOM     11  C   UNL     1       2.213   2.690  20.597  0.00  0.00    +0.000 C 
ATOM     12  C   UNL     1       1.056   2.753  21.583  0.00  0.00    +0.000 C 
ATOM     13  C   UNL     1       1.805   2.020  19.284  0.00  0.00    +0.000 C 
ATOM     14  S   UNL     1       2.751   2.791  17.991  0.00  0.00    +0.000 S 
ATOM     15  O   UNL     1       1.867   3.150  16.906  0.00  0.00    +0.000 OA
ATOM     16  O   UNL     1       3.963   2.032  17.796  0.00  0.00    +0.000 OA
ENDBRANCH   4   8
BRANCH   1  18
ATOM     17  N   UNL     1       7.626   8.732  17.845  0.00  0.00    +0.000 N 
ATOM     18  C   UNL     1       7.431   7.518  17.235  0.00  0.00    +0.000 C 
ATOM     19  O   UNL     1       8.160   7.095  16.340  0.00  0.00    +0.000 OA
ATOM     20  H   UNL     1       6.923   9.087  18.483  0.00  0.00    +0.000 HD
BRANCH  17  21
ATOM     21  C   UNL     1       8.652   9.655  17.424  0.00  0.00    +0.000 C 
BRANCH  21  25
ATOM     22  C   UNL     1       9.663  12.584  20.459  0.00  0.00    +0.000 A 
ATOM     23  C   UNL     1       9.609  11.215  20.766  0.00  0.00    +0.000 A 
ATOM     24  C   UNL     1       9.273  10.271  19.793  0.00  0.00    +0.000 A 
ATOM     25  C   UNL     1       8.936  10.676  18.500  0.00  0.00    +0.000 A 
ATOM     26  C   UNL     1       8.909  12.048  18.220  0.00  0.00    +0.000 A 
ATOM     27  C   UNL     1       9.264  13.011  19.182  0.00  0.00    +0.000 A 
BRANCH  22  29
ATOM     28  C   UNL     1       9.045  14.071  22.200  0.00  0.00    +0.000 C 
ATOM     29  O   UNL     1      10.073  13.504  21.388  0.00  0.00    +0.000 OA
ENDBRANCH  22  29
BRANCH  27  30
ATOM     30  O   UNL     1       9.184  14.284  18.684  0.00  0.00    +0.000 OA
ATOM     31  C   UNL     1      10.318  14.859  18.055  0.00  0.00    +0.000 C 
ENDBRANCH  27  30
ENDBRANCH  21  25
ENDBRANCH  17  21
ENDBRANCH   1  18
TORSDOF 6
ENDMDL
MODEL 4
REMARK VINA RESULT:      -8.0      2.397      3.234
REMARK  Name = 
REMARK  9 active torsions:
REMARK  status: ('A' for Active; 'I' for Inactive)
REMARK    1  A    between atoms: C_1  and  O_2
REMARK    2  A    between atoms: O_2  and  C_3
REMARK    3  A    between atoms: C_6  and  C_7
REMARK    4  A    between atoms: C_7  and  N_8
REMARK    5  A    between atoms: C_9  and  C_11
REMARK    6  A    between atoms: C_14  and  N_15
REMARK    7  A    between atoms: C_18  and  C_19
REMARK    8  A    between atoms: C_28  and  O_29
REMARK    9  A    between atoms: O_29  and  C_30
REMARK                            x       y       z     vdW  Elec       q    Type
REMARK                         _______ _______ _______ _____ _____    ______ ____
ROOT
ATOM      1  C   UNL     1       1.264   9.394  19.199  0.00  0.00    +0.000 A 
ATOM      2  C   UNL     1       1.676   9.144  17.879  0.00  0.00    +0.000 A 
ATOM      3  C   UNL     1       2.362   7.970  17.549  0.00  0.00    +0.000 A 
ATOM      4  C   UNL     1       2.644   7.029  18.538  0.00  0.00    +0.000 A 
ATOM      5  C   UNL     1       2.185   7.237  19.837  0.00  0.00    +0.000 A 
ATOM      6  C   UNL     1       1.501   8.413  20.173  0.00  0.00    +0.000 A 
ATOM      7 CL   UNL     1       0.964   8.537  21.813  0.00  0.00    +0.000 Cl
ENDROOT
BRANCH   4   8
ATOM      8  N   UNL     1       3.348   5.824  18.248  0.00  0.00    +0.000 N 
ATOM      9  C   UNL     1       4.463   5.881  17.385  0.00  0.00    +0.000 C 
ATOM     10  O   UNL     1       5.174   6.863  17.234  0.00  0.00    +0.000 OA
ATOM     11  C   UNL     1       4.619   4.581  16.611  0.00  0.00    +0.000 C 
ATOM     12  C   UNL     1       6.074   4.157  16.477  0.00  0.00    +0.000 C 
ATOM     13  C   UNL     1       3.778   3.514  17.314  0.00  0.00    +0.000 C 
ATOM     14  S   UNL     1       2.517   4.367  18.230  0.00  0.00    +0.000 S 
ATOM     15  O   UNL     1       2.470   3.841  19.576  0.00  0.00    +0.000 OA
ATOM     16  O   UNL     1       1.345   4.487  17.395  0.00  0.00    +0.000 OA
ENDBRANCH   4   8
BRANCH   1  18
ATOM     17  N   UNL     1       1.036  11.427  20.548  0.00  0.00    +0.000 N 
ATOM     18  C   UNL     1       0.614  10.718  19.452  0.00  0.00    +0.000 C 
ATOM     19  O   UNL     1      -0.210  11.153  18.651  0.00  0.00    +0.000 OA
ATOM     20  H   UNL     1       1.616  10.971  21.243  0.00  0.00    +0.000 HD
BRANCH  17  21
ATOM     21  C   UNL     1       0.481  12.712  20.901  0.00  0.00    +0.000 C 
BRANCH  21  25
ATOM     22  C   UNL     1      -3.438  12.452  22.740  0.00  0.00    +0.000 A 
ATOM     23  C   UNL     1      -2.320  11.848  23.336  0.00  0.00    +0.000 A 
ATOM     24  C   UNL     1      -1.059  11.922  22.740  0.00  0.00    +0.000 A 
ATOM     25  C   UNL     1      -0.893  12.559  21.509  0.00  0.00    +0.000 A 
ATOM     26  C   UNL     1      -2.026  13.087  20.877  0.00  0.00    +0.000 A 
ATOM     27  C   UNL     1      -3.299  13.040  21.472  0.00  0.00    +0.000 A 
BRANCH  22  29
ATOM     28  C   UNL     1      -4.634  12.336  24.784  0.00  0.00    +0.000 C 
ATOM     29  O   UNL     1      -4.658  12.455  23.362  0.00  0.00    +0.000 OA
ENDBRANCH  22  29
BRANCH  27  30
ATOM     30  O   UNL     1      -4.252  13.632  20.686  0.00  0.00    +0.000 OA
ATOM     31  C   UNL     1      -4.609  14.984  20.922  0.00  0.00    +0.000 C 
ENDBRANCH  27  30
ENDBRANCH  21  25
ENDBRANCH  17  21
ENDBRANCH   1  18
TORSDOF 6
ENDMDL
MODEL 5
REMARK VINA RESULT:      -8.0      1.038      1.910
REMARK  Name = 
REMARK  9 active torsions:
REMARK  status: ('A' for Active; 'I' for Inactive)
REMARK    1  A    between atoms: C_1  and  O_2
REMARK    2  A    between atoms: O_2  and  C_3
REMARK    3  A    between atoms: C_6  and  C_7
REMARK    4  A    between atoms: C_7  and  N_8
REMARK    5  A    between atoms: C_9  and  C_11
REMARK    6  A    between atoms: C_14  and  N_15
REMARK    7  A    between atoms: C_18  and  C_19
REMARK    8  A    between atoms: C_28  and  O_29
REMARK    9  A    between atoms: O_29  and  C_30
REMARK                            x       y       z     vdW  Elec       q    Type
REMARK                         _______ _______ _______ _____ _____    ______ ____
ROOT
ATOM      1  C   UNL     1       1.396   9.206  19.171  0.00  0.00    +0.000 A 
ATOM      2  C   UNL     1       1.785   8.978  17.840  0.00  0.00    +0.000 A 
ATOM      3  C   UNL     1       2.423   7.789  17.471  0.00  0.00    +0.000 A 
ATOM      4  C   UNL     1       2.680   6.810  18.430  0.00  0.00    +0.000 A 
ATOM      5  C   UNL     1       2.241   6.998  19.738  0.00  0.00    +0.000 A 
ATOM      6  C   UNL     1       1.604   8.189  20.114  0.00  0.00    +0.000 A 
ATOM      7 CL   UNL     1       1.088   8.286  21.763  0.00  0.00    +0.000 Cl
ENDROOT
BRANCH   4   8
ATOM      8  N   UNL     1       3.335   5.589  18.099  0.00  0.00    +0.000 N 
ATOM      9  C   UNL     1       2.622   4.379  18.232  0.00  0.00    +0.000 C 
ATOM     10  O   UNL     1       1.409   4.275  18.139  0.00  0.00    +0.000 OA
ATOM     11  C   UNL     1       3.557   3.230  18.579  0.00  0.00    +0.000 C 
ATOM     12  C   UNL     1       3.197   1.947  17.846  0.00  0.00    +0.000 C 
ATOM     13  C   UNL     1       4.986   3.680  18.268  0.00  0.00    +0.000 C 
ATOM     14  S   UNL     1       4.994   5.457  18.318  0.00  0.00    +0.000 S 
ATOM     15  O   UNL     1       5.660   5.962  17.140  0.00  0.00    +0.000 OA
ATOM     16  O   UNL     1       5.341   5.876  19.655  0.00  0.00    +0.000 OA
ENDBRANCH   4   8
BRANCH   1  18
ATOM     17  N   UNL     1      -0.531  10.720  19.172  0.00  0.00    +0.000 N 
ATOM     18  C   UNL     1       0.798  10.545  19.467  0.00  0.00    +0.000 C 
ATOM     19  O   UNL     1       1.479  11.406  20.020  0.00  0.00    +0.000 OA
ATOM     20  H   UNL     1      -1.009  10.032  18.603  0.00  0.00    +0.000 HD
BRANCH  17  21
ATOM     21  C   UNL     1      -1.219  11.967  19.406  0.00  0.00    +0.000 C 
BRANCH  21  25
ATOM     22  C   UNL     1      -5.277  11.971  17.874  0.00  0.00    +0.000 A 
ATOM     23  C   UNL     1      -5.002  12.370  19.191  0.00  0.00    +0.000 A 
ATOM     24  C   UNL     1      -3.698  12.360  19.690  0.00  0.00    +0.000 A 
ATOM     25  C   UNL     1      -2.640  11.903  18.900  0.00  0.00    +0.000 A 
ATOM     26  C   UNL     1      -2.930  11.426  17.615  0.00  0.00    +0.000 A 
ATOM     27  C   UNL     1      -4.235  11.448  17.090  0.00  0.00    +0.000 A 
BRANCH  22  29
ATOM     28  C   UNL     1      -7.451  12.898  18.066  0.00  0.00    +0.000 C 
ATOM     29  O   UNL     1      -6.541  12.059  17.354  0.00  0.00    +0.000 OA
ENDBRANCH  22  29
BRANCH  27  30
ATOM     30  O   UNL     1      -4.279  10.952  15.814  0.00  0.00    +0.000 OA
ATOM     31  C   UNL     1      -3.145  10.286  15.285  0.00  0.00    +0.000 C 
ENDBRANCH  27  30
ENDBRANCH  21  25
ENDBRANCH  17  21
ENDBRANCH   1  18
TORSDOF 6
ENDMDL
MODEL 6
REMARK VINA RESULT:      -8.0      1.161      2.061
REMARK  Name = 
REMARK  9 active torsions:
REMARK  status: ('A' for Active; 'I' for Inactive)
REMARK    1  A    between atoms: C_1  and  O_2
REMARK    2  A    between atoms: O_2  and  C_3
REMARK    3  A    between atoms: C_6  and  C_7
REMARK    4  A    between atoms: C_7  and  N_8
REMARK    5  A    between atoms: C_9  and  C_11
REMARK    6  A    between atoms: C_14  and  N_15
REMARK    7  A    between atoms: C_18  and  C_19
REMARK    8  A    between atoms: C_28  and  O_29
REMARK    9  A    between atoms: O_29  and  C_30
REMARK                            x       y       z     vdW  Elec       q    Type
REMARK                         _______ _______ _______ _____ _____    ______ ____
ROOT
ATOM      1  C   UNL     1       1.196   9.291  19.148  0.00  0.00    +0.000 A 
ATOM      2  C   UNL     1       1.555   9.003  17.821  0.00  0.00    +0.000 A 
ATOM      3  C   UNL     1       2.291   7.855  17.506  0.00  0.00    +0.000 A 
ATOM      4  C   UNL     1       2.676   6.978  18.519  0.00  0.00    +0.000 A 
ATOM      5  C   UNL     1       2.272   7.219  19.829  0.00  0.00    +0.000 A 
ATOM      6  C   UNL     1       1.537   8.370  20.150  0.00  0.00    +0.000 A 
ATOM      7 CL   UNL     1       1.077   8.539  21.809  0.00  0.00    +0.000 Cl
ENDROOT
BRANCH   4   8
ATOM      8  N   UNL     1       3.434   5.802  18.244  0.00  0.00    +0.000 N 
ATOM      9  C   UNL     1       4.545   5.898  17.380  0.00  0.00    +0.000 C 
ATOM     10  O   UNL     1       5.211   6.908  17.215  0.00  0.00    +0.000 OA
ATOM     11  C   UNL     1       4.759   4.596  16.622  0.00  0.00    +0.000 C 
ATOM     12  C   UNL     1       6.231   4.236  16.493  0.00  0.00    +0.000 C 
ATOM     13  C   UNL     1       3.967   3.501  17.340  0.00  0.00    +0.000 C 
ATOM     14  S   UNL     1       2.669   4.309  18.246  0.00  0.00    +0.000 S 
ATOM     15  O   UNL     1       2.646   3.800  19.598  0.00  0.00    +0.000 OA
ATOM     16  O   UNL     1       1.493   4.365  17.410  0.00  0.00    +0.000 OA
ENDBRANCH   4   8
BRANCH   1  18
ATOM     17  N   UNL     1      -0.338  11.039  18.376  0.00  0.00    +0.000 N 
ATOM     18  C   UNL     1       0.483  10.586  19.378  0.00  0.00    +0.000 C 
ATOM     19  O   UNL     1       0.595  11.158  20.460  0.00  0.00    +0.000 OA
ATOM     20  H   UNL     1      -0.294  10.604  17.462  0.00  0.00    +0.000 HD
BRANCH  17  21
ATOM     21  C   UNL     1      -1.073  12.276  18.476  0.00  0.00    +0.000 C 
BRANCH  21  25
ATOM     22  C   UNL     1      -5.315  11.370  18.471  0.00  0.00    +0.000 A 
ATOM     23  C   UNL     1      -4.523  11.127  17.338  0.00  0.00    +0.000 A 
ATOM     24  C   UNL     1      -3.159  11.428  17.333  0.00  0.00    +0.000 A 
ATOM     25  C   UNL     1      -2.562  12.025  18.445  0.00  0.00    +0.000 A 
ATOM     26  C   UNL     1      -3.372  12.343  19.543  0.00  0.00    +0.000 A 
ATOM     27  C   UNL     1      -4.743  12.029  19.572  0.00  0.00    +0.000 A 
BRANCH  22  29
ATOM     28  C   UNL     1      -6.920   9.785  19.202  0.00  0.00    +0.000 C 
ATOM     29  O   UNL     1      -6.633  11.000  18.509  0.00  0.00    +0.000 OA
ENDBRANCH  22  29
BRANCH  27  30
ATOM     30  O   UNL     1      -5.329  12.414  20.748  0.00  0.00    +0.000 OA
ATOM     31  C   UNL     1      -4.554  13.083  21.729  0.00  0.00    +0.000 C 
ENDBRANCH  27  30
ENDBRANCH  21  25
ENDBRANCH  17  21
ENDBRANCH   1  18
TORSDOF 6
ENDMDL
MODEL 7
REMARK VINA RESULT:      -7.9      3.276      9.722
REMARK  Name = 
REMARK  9 active torsions:
REMARK  status: ('A' for Active; 'I' for Inactive)
REMARK    1  A    between atoms: C_1  and  O_2
REMARK    2  A    between atoms: O_2  and  C_3
REMARK    3  A    between atoms: C_6  and  C_7
REMARK    4  A    between atoms: C_7  and  N_8
REMARK    5  A    between atoms: C_9  and  C_11
REMARK    6  A    between atoms: C_14  and  N_15
REMARK    7  A    between atoms: C_18  and  C_19
REMARK    8  A    between atoms: C_28  and  O_29
REMARK    9  A    between atoms: O_29  and  C_30
REMARK                            x       y       z     vdW  Elec       q    Type
REMARK                         _______ _______ _______ _____ _____    ______ ____
ROOT
ATOM      1  C   UNL     1       2.089   8.112  18.944  0.00  0.00    +0.000 A 
ATOM      2  C   UNL     1       2.316   9.054  17.927  0.00  0.00    +0.000 A 
ATOM      3  C   UNL     1       1.797  10.350  18.018  0.00  0.00    +0.000 A 
ATOM      4  C   UNL     1       1.042  10.720  19.131  0.00  0.00    +0.000 A 
ATOM      5  C   UNL     1       0.865   9.815  20.174  0.00  0.00    +0.000 A 
ATOM      6  C   UNL     1       1.381   8.514  20.086  0.00  0.00    +0.000 A 
ATOM      7 CL   UNL     1       1.111   7.496  21.459  0.00  0.00    +0.000 Cl
ENDROOT
BRANCH   4   8
ATOM      8  N   UNL     1       0.487  12.027  19.260  0.00  0.00    +0.000 N 
ATOM      9  C   UNL     1       1.073  12.925  20.177  0.00  0.00    +0.000 C 
ATOM     10  O   UNL     1       2.245  12.900  20.519  0.00  0.00    +0.000 OA
ATOM     11  C   UNL     1       0.034  13.883  20.740  0.00  0.00    +0.000 C 
ATOM     12  C   UNL     1       0.568  15.301  20.879  0.00  0.00    +0.000 C 
ATOM     13  C   UNL     1      -1.196  13.825  19.833  0.00  0.00    +0.000 C 
ATOM     14  S   UNL     1      -1.155  12.255  19.002  0.00  0.00    +0.000 S 
ATOM     15  O   UNL     1      -1.380  12.460  17.589  0.00  0.00    +0.000 OA
ATOM     16  O   UNL     1      -1.906  11.302  19.784  0.00  0.00    +0.000 OA
ENDBRANCH   4   8
BRANCH   1  18
ATOM     17  N   UNL     1       3.712   6.343  19.435  0.00  0.00    +0.000 N 
ATOM     18  C   UNL     1       2.620   6.734  18.702  0.00  0.00    +0.000 C 
ATOM     19  O   UNL     1       2.033   5.984  17.925  0.00  0.00    +0.000 OA
ATOM     20  H   UNL     1       4.233   7.036  19.960  0.00  0.00    +0.000 HD
BRANCH  17  21
ATOM     21  C   UNL     1       4.319   5.042  19.288  0.00  0.00    +0.000 C 
BRANCH  21  25
ATOM     22  C   UNL     1       6.817   5.051  15.742  0.00  0.00    +0.000 A 
ATOM     23  C   UNL     1       5.929   3.994  15.997  0.00  0.00    +0.000 A 
ATOM     24  C   UNL     1       5.131   3.984  17.144  0.00  0.00    +0.000 A 
ATOM     25  C   UNL     1       5.237   5.006  18.089  0.00  0.00    +0.000 A 
ATOM     26  C   UNL     1       6.185   6.014  17.873  0.00  0.00    +0.000 A 
ATOM     27  C   UNL     1       6.981   6.051  16.715  0.00  0.00    +0.000 A 
BRANCH  22  29
ATOM     28  C   UNL     1       6.911   4.543  13.428  0.00  0.00    +0.000 C 
ATOM     29  O   UNL     1       7.539   5.106  14.580  0.00  0.00    +0.000 OA
ENDBRANCH  22  29
BRANCH  27  30
ATOM     30  O   UNL     1       7.820   7.133  16.707  0.00  0.00    +0.000 OA
ATOM     31  C   UNL     1       7.808   8.034  17.802  0.00  0.00    +0.000 C 
ENDBRANCH  27  30
ENDBRANCH  21  25
ENDBRANCH  17  21
ENDBRANCH   1  18
TORSDOF 6
ENDMDL
MODEL 8
REMARK VINA RESULT:      -7.9      0.779      1.859
REMARK  Name = 
REMARK  9 active torsions:
REMARK  status: ('A' for Active; 'I' for Inactive)
REMARK    1  A    between atoms: C_1  and  O_2
REMARK    2  A    between atoms: O_2  and  C_3
REMARK    3  A    between atoms: C_6  and  C_7
REMARK    4  A    between atoms: C_7  and  N_8
REMARK    5  A    between atoms: C_9  and  C_11
REMARK    6  A    between atoms: C_14  and  N_15
REMARK    7  A    between atoms: C_18  and  C_19
REMARK    8  A    between atoms: C_28  and  O_29
REMARK    9  A    between atoms: O_29  and  C_30
REMARK                            x       y       z     vdW  Elec       q    Type
REMARK                         _______ _______ _______ _____ _____    ______ ____
ROOT
ATOM      1  C   UNL     1       1.245   9.432  19.309  0.00  0.00    +0.000 A 
ATOM      2  C   UNL     1       1.552   9.153  17.966  0.00  0.00    +0.000 A 
ATOM      3  C   UNL     1       2.200   7.966  17.608  0.00  0.00    +0.000 A 
ATOM      4  C   UNL     1       2.548   7.040  18.590  0.00  0.00    +0.000 A 
ATOM      5  C   UNL     1       2.192   7.277  19.916  0.00  0.00    +0.000 A 
ATOM      6  C   UNL     1       1.546   8.467  20.280  0.00  0.00    +0.000 A 
ATOM      7 CL   UNL     1       1.137   8.626  21.954  0.00  0.00    +0.000 Cl
ENDROOT
BRANCH   4   8
ATOM      8  N   UNL     1       3.217   5.823  18.270  0.00  0.00    +0.000 N 
ATOM      9  C   UNL     1       4.340   5.870  17.419  0.00  0.00    +0.000 C 
ATOM     10  O   UNL     1       5.083   6.832  17.302  0.00  0.00    +0.000 OA
ATOM     11  C   UNL     1       4.463   4.588  16.607  0.00  0.00    +0.000 C 
ATOM     12  C   UNL     1       5.905   4.123  16.473  0.00  0.00    +0.000 C 
ATOM     13  C   UNL     1       3.583   3.528  17.272  0.00  0.00    +0.000 C 
ATOM     14  S   UNL     1       2.340   4.394  18.203  0.00  0.00    +0.000 S 
ATOM     15  O   UNL     1       2.265   3.831  19.532  0.00  0.00    +0.000 OA
ATOM     16  O   UNL     1       1.181   4.575  17.362  0.00  0.00    +0.000 OA
ENDBRANCH   4   8
BRANCH   1  18
ATOM     17  N   UNL     1      -0.685  10.783  19.985  0.00  0.00    +0.000 N 
ATOM     18  C   UNL     1       0.628  10.767  19.585  0.00  0.00    +0.000 C 
ATOM     19  O   UNL     1       1.318  11.782  19.516  0.00  0.00    +0.000 OA
ATOM     20  H   UNL     1      -1.241   9.941  19.899  0.00  0.00    +0.000 HD
BRANCH  17  21
ATOM     21  C   UNL     1      -1.392  12.007  20.275  0.00  0.00    +0.000 C 
BRANCH  21  25
ATOM     22  C   UNL     1      -5.220  11.980  18.236  0.00  0.00    +0.000 A 
ATOM     23  C   UNL     1      -4.064  11.489  17.608  0.00  0.00    +0.000 A 
ATOM     24  C   UNL     1      -2.829  11.506  18.259  0.00  0.00    +0.000 A 
ATOM     25  C   UNL     1      -2.707  12.060  19.535  0.00  0.00    +0.000 A 
ATOM     26  C   UNL     1      -3.846  12.626  20.123  0.00  0.00    +0.000 A 
ATOM     27  C   UNL     1      -5.102  12.599  19.491  0.00  0.00    +0.000 A 
BRANCH  22  29
ATOM     28  C   UNL     1      -6.904  13.064  16.967  0.00  0.00    +0.000 C 
ATOM     29  O   UNL     1      -6.447  11.888  17.635  0.00  0.00    +0.000 OA
ENDBRANCH  22  29
BRANCH  27  30
ATOM     30  O   UNL     1      -6.071  13.190  20.256  0.00  0.00    +0.000 OA
ATOM     31  C   UNL     1      -5.700  13.890  21.434  0.00  0.00    +0.000 C 
ENDBRANCH  27  30
ENDBRANCH  21  25
ENDBRANCH  17  21
ENDBRANCH   1  18
TORSDOF 6
ENDMDL
MODEL 9
REMARK VINA RESULT:      -7.8      3.748      9.791
REMARK  Name = 
REMARK  9 active torsions:
REMARK  status: ('A' for Active; 'I' for Inactive)
REMARK    1  A    between atoms: C_1  and  O_2
REMARK    2  A    between atoms: O_2  and  C_3
REMARK    3  A    between atoms: C_6  and  C_7
REMARK    4  A    between atoms: C_7  and  N_8
REMARK    5  A    between atoms: C_9  and  C_11
REMARK    6  A    between atoms: C_14  and  N_15
REMARK    7  A    between atoms: C_18  and  C_19
REMARK    8  A    between atoms: C_28  and  O_29
REMARK    9  A    between atoms: O_29  and  C_30
REMARK                            x       y       z     vdW  Elec       q    Type
REMARK                         _______ _______ _______ _____ _____    ______ ____
ROOT
ATOM      1  C   UNL     1       1.661   8.058  20.153  0.00  0.00    +0.000 A 
ATOM      2  C   UNL     1       1.222   8.563  21.388  0.00  0.00    +0.000 A 
ATOM      3  C   UNL     1       0.779   9.884  21.509  0.00  0.00    +0.000 A 
ATOM      4  C   UNL     1       0.769  10.719  20.393  0.00  0.00    +0.000 A 
ATOM      5  C   UNL     1       1.142  10.211  19.151  0.00  0.00    +0.000 A 
ATOM      6  C   UNL     1       1.590   8.888  19.025  0.00  0.00    +0.000 A 
ATOM      7 CL   UNL     1       2.000   8.374  17.425  0.00  0.00    +0.000 Cl
ENDROOT
BRANCH   4   8
ATOM      8  N   UNL     1       0.335  12.074  20.473  0.00  0.00    +0.000 N 
ATOM      9  C   UNL     1       1.177  13.021  21.092  0.00  0.00    +0.000 C 
ATOM     10  O   UNL     1       2.394  12.937  21.144  0.00  0.00    +0.000 OA
ATOM     11  C   UNL     1       0.364  14.124  21.753  0.00  0.00    +0.000 C 
ATOM     12  C   UNL     1       0.990  15.498  21.566  0.00  0.00    +0.000 C 
ATOM     13  C   UNL     1      -1.055  14.064  21.184  0.00  0.00    +0.000 C 
ATOM     14  S   UNL     1      -1.306  12.409  20.587  0.00  0.00    +0.000 S 
ATOM     15  O   UNL     1      -1.863  12.464  19.255  0.00  0.00    +0.000 OA
ATOM     16  O   UNL     1      -1.889  11.623  21.648  0.00  0.00    +0.000 OA
ENDBRANCH   4   8
BRANCH   1  18
ATOM     17  N   UNL     1       3.418   6.448  19.580  0.00  0.00    +0.000 N 
ATOM     18  C   UNL     1       2.191   6.658  20.158  0.00  0.00    +0.000 C 
ATOM     19  O   UNL     1       1.560   5.772  20.729  0.00  0.00    +0.000 OA
ATOM     20  H   UNL     1       3.833   7.178  19.013  0.00  0.00    +0.000 HD
BRANCH  17  21
ATOM     21  C   UNL     1       4.031   5.143  19.518  0.00  0.00    +0.000 C 
BRANCH  21  25
ATOM     22  C   UNL     1       6.271   4.835  15.816  0.00  0.00    +0.000 A 
ATOM     23  C   UNL     1       5.311   3.871  16.162  0.00  0.00    +0.000 A 
ATOM     24  C   UNL     1       4.596   3.962  17.358  0.00  0.00    +0.000 A 
ATOM     25  C   UNL     1       4.857   4.993  18.263  0.00  0.00    +0.000 A 
ATOM     26  C   UNL     1       5.875   5.905  17.954  0.00  0.00    +0.000 A 
ATOM     27  C   UNL     1       6.591   5.839  16.745  0.00  0.00    +0.000 A 
BRANCH  22  29
ATOM     28  C   UNL     1       6.314   3.971  13.609  0.00  0.00    +0.000 C 
ATOM     29  O   UNL     1       6.914   4.795  14.608  0.00  0.00    +0.000 OA
ENDBRANCH  22  29
BRANCH  27  30
ATOM     30  O   UNL     1       7.521   6.840  16.648  0.00  0.00    +0.000 OA
ATOM     31  C   UNL     1       7.728   7.709  17.750  0.00  0.00    +0.000 C 
ENDBRANCH  27  30
ENDBRANCH  21  25
ENDBRANCH  17  21
ENDBRANCH   1  18
TORSDOF 6
ENDMDL
