MODEL 1
REMARK VINA RESULT:      -6.9      0.000      0.000
REMARK  Name = 
REMARK  5 active torsions:
REMARK  status: ('A' for Active; 'I' for Inactive)
REMARK    1  A    between atoms: C_1  and  O_2
REMARK    2  A    between atoms: O_2  and  C_3
REMARK    3  A    between atoms: C_3  and  C_5
REMARK    4  A    between atoms: C_5  and  N_6
REMARK    5  A    between atoms: C_7  and  C_8
REMARK                            x       y       z     vdW  Elec       q    Type
REMARK                         _______ _______ _______ _____ _____    ______ ____
ROOT
ATOM      1  N   UNL     1       4.206   4.947  18.283  0.00  0.00    +0.000 N 
ATOM      2  C   UNL     1       4.123   4.276  17.079  0.00  0.00    +0.000 A 
ATOM      3  N   UNL     1       3.050   3.512  17.040  0.00  0.00    +0.000 NA
ATOM      4  C   UNL     1       2.449   3.649  18.265  0.00  0.00    +0.000 A 
ATOM      5  C   UNL     1       1.274   3.053  18.749  0.00  0.00    +0.000 A 
ATOM      6  C   UNL     1       0.862   3.337  20.056  0.00  0.00    +0.000 A 
ATOM      7  C   UNL     1       1.610   4.192  20.868  0.00  0.00    +0.000 A 
ATOM      8  C   UNL     1       2.780   4.803  20.399  0.00  0.00    +0.000 A 
ATOM      9  C   UNL     1       3.166   4.517  19.081  0.00  0.00    +0.000 A 
ENDROOT
BRANCH   2  10
ATOM     10  C   UNL     1       5.053   4.388  15.989  0.00  0.00    +0.000 A 
ATOM     11  C   UNL     1       5.240   5.469  15.142  0.00  0.00    +0.000 A 
ATOM     12  C   UNL     1       6.266   5.120  14.231  0.00  0.00    +0.000 A 
ATOM     13  C   UNL     1       6.649   3.845  14.565  0.00  0.00    +0.000 A 
ATOM     14  O   UNL     1       5.924   3.394  15.617  0.00  0.00    +0.000 OA
ENDBRANCH   2  10
BRANCH   1  15
ATOM     15  C   UNL     1       5.136   6.008  18.623  0.00  0.00    +0.000 C 
BRANCH  15  16
ATOM     16  C   UNL     1       6.507   5.501  18.990  0.00  0.00    +0.000 C 
ATOM     17  O   UNL     1       6.820   4.949  20.034  0.00  0.00    +0.000 OA
BRANCH  16  19
ATOM     18  C   UNL     1       7.421   7.167  17.574  0.00  0.00    +0.000 C 
ATOM     19  O   UNL     1       7.373   5.794  17.972  0.00  0.00    +0.000 OA
ENDBRANCH  16  19
ENDBRANCH  15  16
ENDBRANCH   1  15
TORSDOF 4
ENDMDL
MODEL 2
REMARK VINA RESULT:      -6.9      2.818      5.550
REMARK  Name = 
REMARK  5 active torsions:
REMARK  status: ('A' for Active; 'I' for Inactive)
REMARK    1  A    between atoms: C_1  and  O_2
REMARK    2  A    between atoms: O_2  and  C_3
REMARK    3  A    between atoms: C_3  and  C_5
REMARK    4  A    between atoms: C_5  and  N_6
REMARK    5  A    between atoms: C_7  and  C_8
REMARK                            x       y       z     vdW  Elec       q    Type
REMARK                         _______ _______ _______ _____ _____    ______ ____
ROOT
ATOM      1  N   UNL     1       4.108   5.643  18.429  0.00  0.00    +0.000 N 
ATOM      2  C   UNL     1       4.170   4.652  19.388  0.00  0.00    +0.000 A 
ATOM      3  N   UNL     1       5.399   4.518  19.846  0.00  0.00    +0.000 NA
ATOM      4  C   UNL     1       6.162   5.407  19.134  0.00  0.00    +0.000 A 
ATOM      5  C   UNL     1       7.538   5.670  19.227  0.00  0.00    +0.000 A 
ATOM      6  C   UNL     1       8.102   6.624  18.372  0.00  0.00    +0.000 A 
ATOM      7  C   UNL     1       7.312   7.297  17.437  0.00  0.00    +0.000 A 
ATOM      8  C   UNL     1       5.937   7.054  17.336  0.00  0.00    +0.000 A 
ATOM      9  C   UNL     1       5.390   6.106  18.213  0.00  0.00    +0.000 A 
ENDROOT
BRANCH   2  10
ATOM     10  C   UNL     1       3.062   3.866  19.857  0.00  0.00    +0.000 A 
ATOM     11  C   UNL     1       2.300   4.072  20.997  0.00  0.00    +0.000 A 
ATOM     12  C   UNL     1       1.321   3.050  21.041  0.00  0.00    +0.000 A 
ATOM     13  C   UNL     1       1.538   2.272  19.932  0.00  0.00    +0.000 A 
ATOM     14  O   UNL     1       2.585   2.751  19.216  0.00  0.00    +0.000 OA
ENDBRANCH   2  10
BRANCH   1  15
ATOM     15  C   UNL     1       2.907   6.200  17.834  0.00  0.00    +0.000 C 
BRANCH  15  16
ATOM     16  C   UNL     1       2.436   7.459  18.517  0.00  0.00    +0.000 C 
ATOM     17  O   UNL     1       2.115   7.570  19.690  0.00  0.00    +0.000 OA
BRANCH  16  19
ATOM     18  C   UNL     1       1.653   9.633  17.987  0.00  0.00    +0.000 C 
ATOM     19  O   UNL     1       2.383   8.468  17.594  0.00  0.00    +0.000 OA
ENDBRANCH  16  19
ENDBRANCH  15  16
ENDBRANCH   1  15
TORSDOF 4
ENDMDL
MODEL 3
REMARK VINA RESULT:      -6.9      1.942      3.986
REMARK  Name = 
REMARK  5 active torsions:
REMARK  status: ('A' for Active; 'I' for Inactive)
REMARK    1  A    between atoms: C_1  and  O_2
REMARK    2  A    between atoms: O_2  and  C_3
REMARK    3  A    between atoms: C_3  and  C_5
REMARK    4  A    between atoms: C_5  and  N_6
REMARK    5  A    between atoms: C_7  and  C_8
REMARK                            x       y       z     vdW  Elec       q    Type
REMARK                         _______ _______ _______ _____ _____    ______ ____
ROOT
ATOM      1  N   UNL     1       5.142   4.914  17.057  0.00  0.00    +0.000 N 
ATOM      2  C   UNL     1       5.890   5.374  18.122  0.00  0.00    +0.000 A 
ATOM      3  N   UNL     1       5.669   4.648  19.200  0.00  0.00    +0.000 NA
ATOM      4  C   UNL     1       4.718   3.727  18.841  0.00  0.00    +0.000 A 
ATOM      5  C   UNL     1       4.128   2.713  19.613  0.00  0.00    +0.000 A 
ATOM      6  C   UNL     1       3.156   1.896  19.023  0.00  0.00    +0.000 A 
ATOM      7  C   UNL     1       2.775   2.090  17.694  0.00  0.00    +0.000 A 
ATOM      8  C   UNL     1       3.359   3.089  16.907  0.00  0.00    +0.000 A 
ATOM      9  C   UNL     1       4.342   3.886  17.513  0.00  0.00    +0.000 A 
ENDROOT
BRANCH   2  10
ATOM     10  C   UNL     1       6.807   6.480  18.091  0.00  0.00    +0.000 A 
ATOM     11  C   UNL     1       7.972   6.636  18.826  0.00  0.00    +0.000 A 
ATOM     12  C   UNL     1       8.544   7.877  18.454  0.00  0.00    +0.000 A 
ATOM     13  C   UNL     1       7.699   8.415  17.516  0.00  0.00    +0.000 A 
ATOM     14  O   UNL     1       6.649   7.586  17.294  0.00  0.00    +0.000 OA
ENDBRANCH   2  10
BRANCH   1  15
ATOM     15  C   UNL     1       5.254   5.336  15.673  0.00  0.00    +0.000 C 
BRANCH  15  16
ATOM     16  C   UNL     1       6.502   4.828  14.997  0.00  0.00    +0.000 C 
ATOM     17  O   UNL     1       7.577   5.403  14.935  0.00  0.00    +0.000 OA
BRANCH  16  19
ATOM     18  C   UNL     1       6.138   3.622  12.990  0.00  0.00    +0.000 C 
ATOM     19  O   UNL     1       6.229   3.620  14.417  0.00  0.00    +0.000 OA
ENDBRANCH  16  19
ENDBRANCH  15  16
ENDBRANCH   1  15
TORSDOF 4
ENDMDL
MODEL 4
REMARK VINA RESULT:      -6.5      1.621      2.238
REMARK  Name = 
REMARK  5 active torsions:
REMARK  status: ('A' for Active; 'I' for Inactive)
REMARK    1  A    between atoms: C_1  and  O_2
REMARK    2  A    between atoms: O_2  and  C_3
REMARK    3  A    between atoms: C_3  and  C_5
REMARK    4  A    between atoms: C_5  and  N_6
REMARK    5  A    between atoms: C_7  and  C_8
REMARK                            x       y       z     vdW  Elec       q    Type
REMARK                         _______ _______ _______ _____ _____    ______ ____
ROOT
ATOM      1  N   UNL     1       6.155   4.347  16.937  0.00  0.00    +0.000 N 
ATOM      2  C   UNL     1       5.657   4.356  15.649  0.00  0.00    +0.000 A 
ATOM      3  N   UNL     1       4.344   4.228  15.653  0.00  0.00    +0.000 NA
ATOM      4  C   UNL     1       3.987   4.082  16.968  0.00  0.00    +0.000 A 
ATOM      5  C   UNL     1       2.710   3.912  17.527  0.00  0.00    +0.000 A 
ATOM      6  C   UNL     1       2.595   3.767  18.915  0.00  0.00    +0.000 A 
ATOM      7  C   UNL     1       3.730   3.782  19.728  0.00  0.00    +0.000 A 
ATOM      8  C   UNL     1       5.010   3.960  19.189  0.00  0.00    +0.000 A 
ATOM      9  C   UNL     1       5.101   4.119  17.798  0.00  0.00    +0.000 A 
ENDROOT
BRANCH   2  10
ATOM     10  C   UNL     1       6.432   4.500  14.449  0.00  0.00    +0.000 A 
ATOM     11  C   UNL     1       6.277   3.819  13.251  0.00  0.00    +0.000 A 
ATOM     12  C   UNL     1       7.264   4.301  12.358  0.00  0.00    +0.000 A 
ATOM     13  C   UNL     1       7.972   5.247  13.055  0.00  0.00    +0.000 A 
ATOM     14  O   UNL     1       7.484   5.372  14.314  0.00  0.00    +0.000 OA
ENDBRANCH   2  10
BRANCH   1  15
ATOM     15  C   UNL     1       7.516   4.647  17.342  0.00  0.00    +0.000 C 
BRANCH  15  16
ATOM     16  C   UNL     1       7.645   5.969  18.055  0.00  0.00    +0.000 C 
ATOM     17  O   UNL     1       7.855   6.132  19.247  0.00  0.00    +0.000 OA
BRANCH  16  19
ATOM     18  C   UNL     1       7.801   8.289  17.598  0.00  0.00    +0.000 C 
ATOM     19  O   UNL     1       7.449   6.977  17.151  0.00  0.00    +0.000 OA
ENDBRANCH  16  19
ENDBRANCH  15  16
ENDBRANCH   1  15
TORSDOF 4
ENDMDL
MODEL 5
REMARK VINA RESULT:      -6.5      1.357      3.577
REMARK  Name = 
REMARK  5 active torsions:
REMARK  status: ('A' for Active; 'I' for Inactive)
REMARK    1  A    between atoms: C_1  and  O_2
REMARK    2  A    between atoms: O_2  and  C_3
REMARK    3  A    between atoms: C_3  and  C_5
REMARK    4  A    between atoms: C_5  and  N_6
REMARK    5  A    between atoms: C_7  and  C_8
REMARK                            x       y       z     vdW  Elec       q    Type
REMARK                         _______ _______ _______ _____ _____    ______ ____
ROOT
ATOM      1  N   UNL     1       4.641   4.213  17.676  0.00  0.00    +0.000 N 
ATOM      2  C   UNL     1       4.994   5.288  18.467  0.00  0.00    +0.000 A 
ATOM      3  N   UNL     1       4.094   5.494  19.408  0.00  0.00    +0.000 NA
ATOM      4  C   UNL     1       3.109   4.565  19.193  0.00  0.00    +0.000 A 
ATOM      5  C   UNL     1       1.922   4.347  19.910  0.00  0.00    +0.000 A 
ATOM      6  C   UNL     1       1.053   3.335  19.485  0.00  0.00    +0.000 A 
ATOM      7  C   UNL     1       1.357   2.561  18.364  0.00  0.00    +0.000 A 
ATOM      8  C   UNL     1       2.541   2.757  17.642  0.00  0.00    +0.000 A 
ATOM      9  C   UNL     1       3.404   3.766  18.095  0.00  0.00    +0.000 A 
ENDROOT
BRANCH   2  10
ATOM     10  C   UNL     1       6.181   6.084  18.322  0.00  0.00    +0.000 A 
ATOM     11  C   UNL     1       7.381   5.947  19.004  0.00  0.00    +0.000 A 
ATOM     12  C   UNL     1       8.258   6.949  18.522  0.00  0.00    +0.000 A 
ATOM     13  C   UNL     1       7.549   7.648  17.577  0.00  0.00    +0.000 A 
ATOM     14  O   UNL     1       6.298   7.139  17.452  0.00  0.00    +0.000 OA
ENDBRANCH   2  10
BRANCH   1  15
ATOM     15  C   UNL     1       5.463   3.573  16.665  0.00  0.00    +0.000 C 
BRANCH  15  16
ATOM     16  C   UNL     1       5.570   4.375  15.393  0.00  0.00    +0.000 C 
ATOM     17  O   UNL     1       4.942   5.386  15.118  0.00  0.00    +0.000 OA
BRANCH  16  19
ATOM     18  C   UNL     1       6.103   3.721  13.178  0.00  0.00    +0.000 C 
ATOM     19  O   UNL     1       6.466   3.762  14.560  0.00  0.00    +0.000 OA
ENDBRANCH  16  19
ENDBRANCH  15  16
ENDBRANCH   1  15
TORSDOF 4
ENDMDL
MODEL 6
REMARK VINA RESULT:      -6.5      2.480      5.433
REMARK  Name = 
REMARK  5 active torsions:
REMARK  status: ('A' for Active; 'I' for Inactive)
REMARK    1  A    between atoms: C_1  and  O_2
REMARK    2  A    between atoms: O_2  and  C_3
REMARK    3  A    between atoms: C_3  and  C_5
REMARK    4  A    between atoms: C_5  and  N_6
REMARK    5  A    between atoms: C_7  and  C_8
REMARK                            x       y       z     vdW  Elec       q    Type
REMARK                         _______ _______ _______ _____ _____    ______ ____
ROOT
ATOM      1  N   UNL     1       3.931   5.184  18.336  0.00  0.00    +0.000 N 
ATOM      2  C   UNL     1       3.554   3.877  18.570  0.00  0.00    +0.000 A 
ATOM      3  N   UNL     1       4.014   3.079  17.626  0.00  0.00    +0.000 NA
ATOM      4  C   UNL     1       4.661   3.893  16.732  0.00  0.00    +0.000 A 
ATOM      5  C   UNL     1       5.330   3.553  15.546  0.00  0.00    +0.000 A 
ATOM      6  C   UNL     1       5.908   4.573  14.781  0.00  0.00    +0.000 A 
ATOM      7  C   UNL     1       5.814   5.906  15.186  0.00  0.00    +0.000 A 
ATOM      8  C   UNL     1       5.158   6.262  16.371  0.00  0.00    +0.000 A 
ATOM      9  C   UNL     1       4.600   5.223  17.130  0.00  0.00    +0.000 A 
ENDROOT
BRANCH   2  10
ATOM     10  C   UNL     1       2.781   3.412  19.689  0.00  0.00    +0.000 A 
ATOM     11  C   UNL     1       1.404   3.454  19.844  0.00  0.00    +0.000 A 
ATOM     12  C   UNL     1       1.101   2.876  21.100  0.00  0.00    +0.000 A 
ATOM     13  C   UNL     1       2.307   2.516  21.649  0.00  0.00    +0.000 A 
ATOM     14  O   UNL     1       3.323   2.837  20.811  0.00  0.00    +0.000 OA
ENDBRANCH   2  10
BRANCH   1  15
ATOM     15  C   UNL     1       3.773   6.307  19.241  0.00  0.00    +0.000 C 
BRANCH  15  16
ATOM     16  C   UNL     1       2.477   7.051  19.045  0.00  0.00    +0.000 C 
ATOM     17  O   UNL     1       2.132   7.652  18.039  0.00  0.00    +0.000 OA
BRANCH  16  19
ATOM     18  C   UNL     1       1.439   8.233  20.817  0.00  0.00    +0.000 C 
ATOM     19  O   UNL     1       1.749   6.981  20.201  0.00  0.00    +0.000 OA
ENDBRANCH  16  19
ENDBRANCH  15  16
ENDBRANCH   1  15
TORSDOF 4
ENDMDL
MODEL 7
REMARK VINA RESULT:      -6.4      2.478      5.272
REMARK  Name = 
REMARK  5 active torsions:
REMARK  status: ('A' for Active; 'I' for Inactive)
REMARK    1  A    between atoms: C_1  and  O_2
REMARK    2  A    between atoms: O_2  and  C_3
REMARK    3  A    between atoms: C_3  and  C_5
REMARK    4  A    between atoms: C_5  and  N_6
REMARK    5  A    between atoms: C_7  and  C_8
REMARK                            x       y       z     vdW  Elec       q    Type
REMARK                         _______ _______ _______ _____ _____    ______ ____
ROOT
ATOM      1  N   UNL     1       3.922   5.183  18.370  0.00  0.00    +0.000 N 
ATOM      2  C   UNL     1       3.529   3.876  18.581  0.00  0.00    +0.000 A 
ATOM      3  N   UNL     1       3.944   3.097  17.602  0.00  0.00    +0.000 NA
ATOM      4  C   UNL     1       4.577   3.923  16.710  0.00  0.00    +0.000 A 
ATOM      5  C   UNL     1       5.202   3.604  15.494  0.00  0.00    +0.000 A 
ATOM      6  C   UNL     1       5.773   4.634  14.737  0.00  0.00    +0.000 A 
ATOM      7  C   UNL     1       5.716   5.957  15.180  0.00  0.00    +0.000 A 
ATOM      8  C   UNL     1       5.105   6.293  16.395  0.00  0.00    +0.000 A 
ATOM      9  C   UNL     1       4.553   5.243  17.144  0.00  0.00    +0.000 A 
ENDROOT
BRANCH   2  10
ATOM     10  C   UNL     1       2.784   3.395  19.712  0.00  0.00    +0.000 A 
ATOM     11  C   UNL     1       1.412   3.435  19.902  0.00  0.00    +0.000 A 
ATOM     12  C   UNL     1       1.141   2.838  21.157  0.00  0.00    +0.000 A 
ATOM     13  C   UNL     1       2.359   2.469  21.670  0.00  0.00    +0.000 A 
ATOM     14  O   UNL     1       3.354   2.803  20.811  0.00  0.00    +0.000 OA
ENDBRANCH   2  10
BRANCH   1  15
ATOM     15  C   UNL     1       3.814   6.284  19.309  0.00  0.00    +0.000 C 
BRANCH  15  16
ATOM     16  C   UNL     1       2.432   6.884  19.363  0.00  0.00    +0.000 C 
ATOM     17  O   UNL     1       1.704   6.940  20.342  0.00  0.00    +0.000 OA
BRANCH  16  19
ATOM     18  C   UNL     1       2.428   8.693  17.832  0.00  0.00    +0.000 C 
ATOM     19  O   UNL     1       2.097   7.331  18.114  0.00  0.00    +0.000 OA
ENDBRANCH  16  19
ENDBRANCH  15  16
ENDBRANCH   1  15
TORSDOF 4
ENDMDL
MODEL 8
REMARK VINA RESULT:      -6.4      2.017      2.404
REMARK  Name = 
REMARK  5 active torsions:
REMARK  status: ('A' for Active; 'I' for Inactive)
REMARK    1  A    between atoms: C_1  and  O_2
REMARK    2  A    between atoms: O_2  and  C_3
REMARK    3  A    between atoms: C_3  and  C_5
REMARK    4  A    between atoms: C_5  and  N_6
REMARK    5  A    between atoms: C_7  and  C_8
REMARK                            x       y       z     vdW  Elec       q    Type
REMARK                         _______ _______ _______ _____ _____    ______ ____
ROOT
ATOM      1  N   UNL     1       3.789   4.830  18.359  0.00  0.00    +0.000 N 
ATOM      2  C   UNL     1       4.172   3.996  17.328  0.00  0.00    +0.000 A 
ATOM      3  N   UNL     1       3.379   2.945  17.255  0.00  0.00    +0.000 NA
ATOM      4  C   UNL     1       2.493   3.073  18.294  0.00  0.00    +0.000 A 
ATOM      5  C   UNL     1       1.437   2.227  18.670  0.00  0.00    +0.000 A 
ATOM      6  C   UNL     1       0.670   2.564  19.791  0.00  0.00    +0.000 A 
ATOM      7  C   UNL     1       0.953   3.716  20.528  0.00  0.00    +0.000 A 
ATOM      8  C   UNL     1       1.996   4.576  20.161  0.00  0.00    +0.000 A 
ATOM      9  C   UNL     1       2.742   4.228  19.026  0.00  0.00    +0.000 A 
ENDROOT
BRANCH   2  10
ATOM     10  C   UNL     1       5.268   4.220  16.426  0.00  0.00    +0.000 A 
ATOM     11  C   UNL     1       5.219   4.347  15.046  0.00  0.00    +0.000 A 
ATOM     12  C   UNL     1       6.542   4.565  14.594  0.00  0.00    +0.000 A 
ATOM     13  C   UNL     1       7.331   4.556  15.717  0.00  0.00    +0.000 A 
ATOM     14  O   UNL     1       6.576   4.346  16.823  0.00  0.00    +0.000 OA
ENDBRANCH   2  10
BRANCH   1  15
ATOM     15  C   UNL     1       4.299   6.161  18.631  0.00  0.00    +0.000 C 
BRANCH  15  16
ATOM     16  C   UNL     1       3.673   7.225  17.766  0.00  0.00    +0.000 C 
ATOM     17  O   UNL     1       4.010   7.527  16.632  0.00  0.00    +0.000 OA
BRANCH  16  19
ATOM     18  C   UNL     1       1.994   8.898  17.797  0.00  0.00    +0.000 C 
ATOM     19  O   UNL     1       2.677   7.839  18.474  0.00  0.00    +0.000 OA
ENDBRANCH  16  19
ENDBRANCH  15  16
ENDBRANCH   1  15
TORSDOF 4
ENDMDL
MODEL 9
REMARK VINA RESULT:      -6.4      2.536      3.182
REMARK  Name = 
REMARK  5 active torsions:
REMARK  status: ('A' for Active; 'I' for Inactive)
REMARK    1  A    between atoms: C_1  and  O_2
REMARK    2  A    between atoms: O_2  and  C_3
REMARK    3  A    between atoms: C_3  and  C_5
REMARK    4  A    between atoms: C_5  and  N_6
REMARK    5  A    between atoms: C_7  and  C_8
REMARK                            x       y       z     vdW  Elec       q    Type
REMARK                         _______ _______ _______ _____ _____    ______ ____
ROOT
ATOM      1  N   UNL     1       3.330   4.925  18.792  0.00  0.00    +0.000 N 
ATOM      2  C   UNL     1       4.633   4.483  18.677  0.00  0.00    +0.000 A 
ATOM      3  N   UNL     1       4.845   3.436  19.450  0.00  0.00    +0.000 NA
ATOM      4  C   UNL     1       3.669   3.225  20.122  0.00  0.00    +0.000 A 
ATOM      5  C   UNL     1       3.352   2.237  21.069  0.00  0.00    +0.000 A 
ATOM      6  C   UNL     1       2.072   2.233  21.636  0.00  0.00    +0.000 A 
ATOM      7  C   UNL     1       1.129   3.197  21.274  0.00  0.00    +0.000 A 
ATOM      8  C   UNL     1       1.425   4.183  20.325  0.00  0.00    +0.000 A 
ATOM      9  C   UNL     1       2.707   4.160  19.758  0.00  0.00    +0.000 A 
ENDROOT
BRANCH   2  10
ATOM     10  C   UNL     1       5.641   5.051  17.825  0.00  0.00    +0.000 A 
ATOM     11  C   UNL     1       6.100   4.562  16.611  0.00  0.00    +0.000 A 
ATOM     12  C   UNL     1       7.087   5.460  16.139  0.00  0.00    +0.000 A 
ATOM     13  C   UNL     1       7.184   6.447  17.088  0.00  0.00    +0.000 A 
ATOM     14  O   UNL     1       6.322   6.208  18.108  0.00  0.00    +0.000 OA
ENDBRANCH   2  10
BRANCH   1  15
ATOM     15  C   UNL     1       2.678   5.926  17.969  0.00  0.00    +0.000 C 
BRANCH  15  16
ATOM     16  C   UNL     1       2.572   7.271  18.642  0.00  0.00    +0.000 C 
ATOM     17  O   UNL     1       2.301   7.474  19.815  0.00  0.00    +0.000 OA
BRANCH  16  19
ATOM     18  C   UNL     1       1.921   9.380  17.781  0.00  0.00    +0.000 C 
ATOM     19  O   UNL     1       2.791   8.248  17.710  0.00  0.00    +0.000 OA
ENDBRANCH  16  19
ENDBRANCH  15  16
ENDBRANCH   1  15
TORSDOF 4
ENDMDL
