MODEL 1
REMARK VINA RESULT:      -7.4      0.000      0.000
REMARK  Name = 
REMARK  8 active torsions:
REMARK  status: ('A' for Active; 'I' for Inactive)
REMARK    1  A    between atoms: C_1  and  C_2
REMARK    2  A    between atoms: C_2  and  N_3
REMARK    3  A    between atoms: C_5  and  C_6
REMARK    4  A    between atoms: C_6  and  C_7
REMARK    5  A    between atoms: C_7  and  C_8
REMARK    6  A    between atoms: C_7  and  C_9
REMARK    7  A    between atoms: C_11  and  C_12
REMARK    8  A    between atoms: C_17  and  N_18
REMARK                            x       y       z     vdW  Elec       q    Type
REMARK                         _______ _______ _______ _____ _____    ______ ____
ROOT
ATOM      1  N   UNL     1       6.710   5.529  16.284  0.00  0.00    +0.000 N 
ATOM      2  N   UNL     1       7.411   5.190  15.173  0.00  0.00    +0.000 NA
ATOM      3  C   UNL     1       6.480   4.779  14.309  0.00  0.00    +0.000 A 
ATOM      4  C   UNL     1       5.195   4.867  14.867  0.00  0.00    +0.000 A 
ATOM      5  C   UNL     1       5.355   5.304  16.169  0.00  0.00    +0.000 A 
ENDROOT
BRANCH   5   6
ATOM      6  C   UNL     1       4.347   5.561  17.181  0.00  0.00    +0.000 C 
ATOM      7  O   UNL     1       3.915   6.694  17.389  0.00  0.00    +0.000 OA
ATOM      8  N   UNL     1       3.883   4.468  17.895  0.00  0.00    +0.000 N 
ATOM      9  C   UNL     1       2.726   4.546  18.767  0.00  0.00    +0.000 C 
ATOM     10  C   UNL     1       3.042   3.582  19.898  0.00  0.00    +0.000 C 
ATOM     11  C   UNL     1       3.912   2.499  19.252  0.00  0.00    +0.000 C 
ATOM     12  C   UNL     1       4.518   3.167  18.010  0.00  0.00    +0.000 C 
BRANCH  11  13
ATOM     13  N   UNL     1       4.918   1.985  20.182  0.00  0.00    +0.000 NA
ATOM     14  H   UNL     1       5.041   0.982  20.027  0.00  0.00    +0.000 HD
ATOM     15  H   UNL     1       4.577   2.069  21.140  0.00  0.00    +0.000 HD
ENDBRANCH  11  13
ENDBRANCH   5   6
BRANCH   1  17
ATOM     16  C   UNL     1       7.583   7.497  17.507  0.00  0.00    +0.000 C 
ATOM     17  C   UNL     1       7.444   5.985  17.453  0.00  0.00    +0.000 C 
ENDBRANCH   1  17
BRANCH   3  18
ATOM     18  C   UNL     1       6.796   4.330  12.921  0.00  0.00    +0.000 C 
BRANCH  18  19
ATOM     19  C   UNL     1       6.023   3.095  12.431  0.00  0.00    +0.000 C 
ATOM     20  C   UNL     1       4.709   3.457  11.734  0.00  0.00    +0.000 C 
ATOM     21  C   UNL     1       6.907   2.300  11.467  0.00  0.00    +0.000 C 
ENDBRANCH  18  19
ENDBRANCH   3  18
TORSDOF 5
ENDMDL
MODEL 2
REMARK VINA RESULT:      -7.1      1.718      2.672
REMARK  Name = 
REMARK  8 active torsions:
REMARK  status: ('A' for Active; 'I' for Inactive)
REMARK    1  A    between atoms: C_1  and  C_2
REMARK    2  A    between atoms: C_2  and  N_3
REMARK    3  A    between atoms: C_5  and  C_6
REMARK    4  A    between atoms: C_6  and  C_7
REMARK    5  A    between atoms: C_7  and  C_8
REMARK    6  A    between atoms: C_7  and  C_9
REMARK    7  A    between atoms: C_11  and  C_12
REMARK    8  A    between atoms: C_17  and  N_18
REMARK                            x       y       z     vdW  Elec       q    Type
REMARK                         _______ _______ _______ _____ _____    ______ ____
ROOT
ATOM      1  N   UNL     1       6.778   4.711  16.608  0.00  0.00    +0.000 N 
ATOM      2  N   UNL     1       7.387   4.669  15.396  0.00  0.00    +0.000 NA
ATOM      3  C   UNL     1       6.401   4.380  14.542  0.00  0.00    +0.000 A 
ATOM      4  C   UNL     1       5.174   4.248  15.210  0.00  0.00    +0.000 A 
ATOM      5  C   UNL     1       5.434   4.411  16.558  0.00  0.00    +0.000 A 
ENDROOT
BRANCH   5   6
ATOM      6  C   UNL     1       4.515   4.370  17.681  0.00  0.00    +0.000 C 
ATOM      7  O   UNL     1       4.141   3.305  18.171  0.00  0.00    +0.000 OA
ATOM      8  N   UNL     1       4.084   5.587  18.184  0.00  0.00    +0.000 N 
ATOM      9  C   UNL     1       3.353   5.695  19.432  0.00  0.00    +0.000 C 
ATOM     10  C   UNL     1       2.402   6.859  19.211  0.00  0.00    +0.000 C 
ATOM     11  C   UNL     1       3.141   7.784  18.239  0.00  0.00    +0.000 C 
ATOM     12  C   UNL     1       4.152   6.877  17.522  0.00  0.00    +0.000 C 
BRANCH  11  13
ATOM     13  N   UNL     1       2.219   8.459  17.325  0.00  0.00    +0.000 NA
ATOM     14  H   UNL     1       1.739   9.211  17.824  0.00  0.00    +0.000 HD
ATOM     15  H   UNL     1       1.483   7.814  17.038  0.00  0.00    +0.000 HD
ENDBRANCH  11  13
ENDBRANCH   5   6
BRANCH   1  17
ATOM     16  C   UNL     1       7.649   6.437  18.154  0.00  0.00    +0.000 C 
ATOM     17  C   UNL     1       7.594   4.965  17.783  0.00  0.00    +0.000 C 
ENDBRANCH   1  17
BRANCH   3  18
ATOM     18  C   UNL     1       6.607   4.259  13.069  0.00  0.00    +0.000 C 
BRANCH  18  19
ATOM     19  C   UNL     1       5.947   3.041  12.404  0.00  0.00    +0.000 C 
ATOM     20  C   UNL     1       4.658   3.398  11.660  0.00  0.00    +0.000 C 
ATOM     21  C   UNL     1       6.939   2.405  11.426  0.00  0.00    +0.000 C 
ENDBRANCH  18  19
ENDBRANCH   3  18
TORSDOF 5
ENDMDL
MODEL 3
REMARK VINA RESULT:      -7.0      1.584      1.744
REMARK  Name = 
REMARK  8 active torsions:
REMARK  status: ('A' for Active; 'I' for Inactive)
REMARK    1  A    between atoms: C_1  and  C_2
REMARK    2  A    between atoms: C_2  and  N_3
REMARK    3  A    between atoms: C_5  and  C_6
REMARK    4  A    between atoms: C_6  and  C_7
REMARK    5  A    between atoms: C_7  and  C_8
REMARK    6  A    between atoms: C_7  and  C_9
REMARK    7  A    between atoms: C_11  and  C_12
REMARK    8  A    between atoms: C_17  and  N_18
REMARK                            x       y       z     vdW  Elec       q    Type
REMARK                         _______ _______ _______ _____ _____    ______ ____
ROOT
ATOM      1  N   UNL     1       6.085   5.796  16.112  0.00  0.00    +0.000 N 
ATOM      2  N   UNL     1       6.361   5.794  14.784  0.00  0.00    +0.000 NA
ATOM      3  C   UNL     1       6.320   4.504  14.442  0.00  0.00    +0.000 A 
ATOM      4  C   UNL     1       6.009   3.695  15.546  0.00  0.00    +0.000 A 
ATOM      5  C   UNL     1       5.910   4.535  16.640  0.00  0.00    +0.000 A 
ENDROOT
BRANCH   5   6
ATOM      6  C   UNL     1       5.608   4.209  18.022  0.00  0.00    +0.000 C 
ATOM      7  O   UNL     1       6.487   4.164  18.881  0.00  0.00    +0.000 OA
ATOM      8  N   UNL     1       4.280   3.962  18.332  0.00  0.00    +0.000 N 
ATOM      9  C   UNL     1       3.812   3.850  19.700  0.00  0.00    +0.000 C 
ATOM     10  C   UNL     1       2.695   2.822  19.632  0.00  0.00    +0.000 C 
ATOM     11  C   UNL     1       2.097   2.993  18.232  0.00  0.00    +0.000 C 
ATOM     12  C   UNL     1       3.212   3.643  17.402  0.00  0.00    +0.000 C 
BRANCH  11  13
ATOM     13  N   UNL     1       1.633   1.719  17.681  0.00  0.00    +0.000 NA
ATOM     14  H   UNL     1       0.653   1.807  17.403  0.00  0.00    +0.000 HD
ATOM     15  H   UNL     1       1.643   1.004  18.409  0.00  0.00    +0.000 HD
ENDBRANCH  11  13
ENDBRANCH   5   6
BRANCH   1  17
ATOM     16  C   UNL     1       7.445   7.392  17.429  0.00  0.00    +0.000 C 
ATOM     17  C   UNL     1       6.093   7.066  16.818  0.00  0.00    +0.000 C 
ENDBRANCH   1  17
BRANCH   3  18
ATOM     18  C   UNL     1       6.540   4.022  13.046  0.00  0.00    +0.000 C 
BRANCH  18  19
ATOM     19  C   UNL     1       5.503   3.019  12.519  0.00  0.00    +0.000 C 
ATOM     20  C   UNL     1       4.394   3.686  11.701  0.00  0.00    +0.000 C 
ATOM     21  C   UNL     1       6.213   1.972  11.653  0.00  0.00    +0.000 C 
ENDBRANCH  18  19
ENDBRANCH   3  18
TORSDOF 5
ENDMDL
MODEL 4
REMARK VINA RESULT:      -6.9      2.152      3.086
REMARK  Name = 
REMARK  8 active torsions:
REMARK  status: ('A' for Active; 'I' for Inactive)
REMARK    1  A    between atoms: C_1  and  C_2
REMARK    2  A    between atoms: C_2  and  N_3
REMARK    3  A    between atoms: C_5  and  C_6
REMARK    4  A    between atoms: C_6  and  C_7
REMARK    5  A    between atoms: C_7  and  C_8
REMARK    6  A    between atoms: C_7  and  C_9
REMARK    7  A    between atoms: C_11  and  C_12
REMARK    8  A    between atoms: C_17  and  N_18
REMARK                            x       y       z     vdW  Elec       q    Type
REMARK                         _______ _______ _______ _____ _____    ______ ____
ROOT
ATOM      1  N   UNL     1       5.725   4.763  18.340  0.00  0.00    +0.000 N 
ATOM      2  N   UNL     1       5.927   5.211  17.075  0.00  0.00    +0.000 NA
ATOM      3  C   UNL     1       5.177   4.407  16.318  0.00  0.00    +0.000 A 
ATOM      4  C   UNL     1       4.496   3.461  17.101  0.00  0.00    +0.000 A 
ATOM      5  C   UNL     1       4.897   3.663  18.409  0.00  0.00    +0.000 A 
ENDROOT
BRANCH   5   6
ATOM      6  C   UNL     1       4.495   2.956  19.610  0.00  0.00    +0.000 C 
ATOM      7  O   UNL     1       5.218   2.111  20.135  0.00  0.00    +0.000 OA
ATOM      8  N   UNL     1       3.261   3.285  20.148  0.00  0.00    +0.000 N 
ATOM      9  C   UNL     1       2.838   2.826  21.457  0.00  0.00    +0.000 C 
ATOM     10  C   UNL     1       1.337   2.632  21.321  0.00  0.00    +0.000 C 
ATOM     11  C   UNL     1       0.905   3.672  20.283  0.00  0.00    +0.000 C 
ATOM     12  C   UNL     1       2.176   3.981  19.479  0.00  0.00    +0.000 C 
BRANCH  11  13
ATOM     13  N   UNL     1      -0.200   3.187  19.457  0.00  0.00    +0.000 NA
ATOM     14  H   UNL     1      -0.192   3.675  18.559  0.00  0.00    +0.000 HD
ATOM     15  H   UNL     1      -1.090   3.435  19.889  0.00  0.00    +0.000 HD
ENDBRANCH  11  13
ENDBRANCH   5   6
BRANCH   1  17
ATOM     16  C   UNL     1       7.758   6.025  18.977  0.00  0.00    +0.000 C 
ATOM     17  C   UNL     1       6.444   5.409  19.426  0.00  0.00    +0.000 C 
ENDBRANCH   1  17
BRANCH   3  18
ATOM     18  C   UNL     1       5.067   4.549  14.836  0.00  0.00    +0.000 C 
BRANCH  18  19
ATOM     19  C   UNL     1       6.207   3.917  14.023  0.00  0.00    +0.000 C 
ATOM     20  C   UNL     1       5.754   3.436  12.642  0.00  0.00    +0.000 C 
ATOM     21  C   UNL     1       7.335   4.941  13.859  0.00  0.00    +0.000 C 
ENDBRANCH  18  19
ENDBRANCH   3  18
TORSDOF 5
ENDMDL
MODEL 5
REMARK VINA RESULT:      -6.7      3.160      4.406
REMARK  Name = 
REMARK  8 active torsions:
REMARK  status: ('A' for Active; 'I' for Inactive)
REMARK    1  A    between atoms: C_1  and  C_2
REMARK    2  A    between atoms: C_2  and  N_3
REMARK    3  A    between atoms: C_5  and  C_6
REMARK    4  A    between atoms: C_6  and  C_7
REMARK    5  A    between atoms: C_7  and  C_8
REMARK    6  A    between atoms: C_7  and  C_9
REMARK    7  A    between atoms: C_11  and  C_12
REMARK    8  A    between atoms: C_17  and  N_18
REMARK                            x       y       z     vdW  Elec       q    Type
REMARK                         _______ _______ _______ _____ _____    ______ ____
ROOT
ATOM      1  N   UNL     1       3.369   6.566  17.913  0.00  0.00    +0.000 N 
ATOM      2  N   UNL     1       4.575   7.094  17.587  0.00  0.00    +0.000 NA
ATOM      3  C   UNL     1       5.227   6.089  16.998  0.00  0.00    +0.000 A 
ATOM      4  C   UNL     1       4.433   4.933  16.942  0.00  0.00    +0.000 A 
ATOM      5  C   UNL     1       3.247   5.232  17.586  0.00  0.00    +0.000 A 
ENDROOT
BRANCH   5   6
ATOM      6  C   UNL     1       2.087   4.390  17.808  0.00  0.00    +0.000 C 
ATOM      7  O   UNL     1       1.093   4.455  17.086  0.00  0.00    +0.000 OA
ATOM      8  N   UNL     1       2.153   3.497  18.867  0.00  0.00    +0.000 N 
ATOM      9  C   UNL     1       1.169   2.450  19.060  0.00  0.00    +0.000 C 
ATOM     10  C   UNL     1       1.062   2.309  20.569  0.00  0.00    +0.000 C 
ATOM     11  C   UNL     1       2.454   2.675  21.091  0.00  0.00    +0.000 C 
ATOM     12  C   UNL     1       3.078   3.538  19.985  0.00  0.00    +0.000 C 
BRANCH  11  13
ATOM     13  N   UNL     1       2.387   3.354  22.387  0.00  0.00    +0.000 NA
ATOM     14  H   UNL     1       3.294   3.285  22.852  0.00  0.00    +0.000 HD
ATOM     15  H   UNL     1       1.733   2.865  22.998  0.00  0.00    +0.000 HD
ENDBRANCH  11  13
ENDBRANCH   5   6
BRANCH   1  17
ATOM     16  C   UNL     1       1.936   8.581  17.790  0.00  0.00    +0.000 C 
ATOM     17  C   UNL     1       2.415   7.403  18.620  0.00  0.00    +0.000 C 
ENDBRANCH   1  17
BRANCH   3  18
ATOM     18  C   UNL     1       6.607   6.224  16.444  0.00  0.00    +0.000 C 
BRANCH  18  19
ATOM     19  C   UNL     1       7.689   6.639  17.453  0.00  0.00    +0.000 C 
ATOM     20  C   UNL     1       7.744   8.153  17.675  0.00  0.00    +0.000 C 
ATOM     21  C   UNL     1       7.424   5.939  18.789  0.00  0.00    +0.000 C 
ENDBRANCH  18  19
ENDBRANCH   3  18
TORSDOF 5
ENDMDL
MODEL 6
REMARK VINA RESULT:      -6.7      1.663      2.066
REMARK  Name = 
REMARK  8 active torsions:
REMARK  status: ('A' for Active; 'I' for Inactive)
REMARK    1  A    between atoms: C_1  and  C_2
REMARK    2  A    between atoms: C_2  and  N_3
REMARK    3  A    between atoms: C_5  and  C_6
REMARK    4  A    between atoms: C_6  and  C_7
REMARK    5  A    between atoms: C_7  and  C_8
REMARK    6  A    between atoms: C_7  and  C_9
REMARK    7  A    between atoms: C_11  and  C_12
REMARK    8  A    between atoms: C_17  and  N_18
REMARK                            x       y       z     vdW  Elec       q    Type
REMARK                         _______ _______ _______ _____ _____    ______ ____
ROOT
ATOM      1  N   UNL     1       5.596   5.837  16.539  0.00  0.00    +0.000 N 
ATOM      2  N   UNL     1       5.715   5.859  15.188  0.00  0.00    +0.000 NA
ATOM      3  C   UNL     1       5.343   4.635  14.804  0.00  0.00    +0.000 A 
ATOM      4  C   UNL     1       4.981   3.846  15.908  0.00  0.00    +0.000 A 
ATOM      5  C   UNL     1       5.198   4.614  17.036  0.00  0.00    +0.000 A 
ENDROOT
BRANCH   5   6
ATOM      6  C   UNL     1       4.986   4.275  18.431  0.00  0.00    +0.000 C 
ATOM      7  O   UNL     1       5.925   4.138  19.213  0.00  0.00    +0.000 OA
ATOM      8  N   UNL     1       3.672   4.124  18.846  0.00  0.00    +0.000 N 
ATOM      9  C   UNL     1       3.309   4.011  20.246  0.00  0.00    +0.000 C 
ATOM     10  C   UNL     1       2.113   3.074  20.250  0.00  0.00    +0.000 C 
ATOM     11  C   UNL     1       1.418   3.330  18.909  0.00  0.00    +0.000 C 
ATOM     12  C   UNL     1       2.509   3.915  18.002  0.00  0.00    +0.000 C 
BRANCH  11  13
ATOM     13  N   UNL     1       0.810   2.111  18.373  0.00  0.00    +0.000 NA
ATOM     14  H   UNL     1       1.369   1.302  18.652  0.00  0.00    +0.000 HD
ATOM     15  H   UNL     1       0.849   2.126  17.354  0.00  0.00    +0.000 HD
ENDBRANCH  11  13
ENDBRANCH   5   6
BRANCH   1  17
ATOM     16  C   UNL     1       7.466   7.110  17.545  0.00  0.00    +0.000 C 
ATOM     17  C   UNL     1       5.972   7.025  17.286  0.00  0.00    +0.000 C 
ENDBRANCH   1  17
BRANCH   3  18
ATOM     18  C   UNL     1       5.291   4.208  13.375  0.00  0.00    +0.000 C 
BRANCH  18  19
ATOM     19  C   UNL     1       6.594   3.620  12.811  0.00  0.00    +0.000 C 
ATOM     20  C   UNL     1       6.348   2.517  11.779  0.00  0.00    +0.000 C 
ATOM     21  C   UNL     1       7.414   4.743  12.169  0.00  0.00    +0.000 C 
ENDBRANCH  18  19
ENDBRANCH   3  18
TORSDOF 5
ENDMDL
MODEL 7
REMARK VINA RESULT:      -6.6      1.526      2.078
REMARK  Name = 
REMARK  8 active torsions:
REMARK  status: ('A' for Active; 'I' for Inactive)
REMARK    1  A    between atoms: C_1  and  C_2
REMARK    2  A    between atoms: C_2  and  N_3
REMARK    3  A    between atoms: C_5  and  C_6
REMARK    4  A    between atoms: C_6  and  C_7
REMARK    5  A    between atoms: C_7  and  C_8
REMARK    6  A    between atoms: C_7  and  C_9
REMARK    7  A    between atoms: C_11  and  C_12
REMARK    8  A    between atoms: C_17  and  N_18
REMARK                            x       y       z     vdW  Elec       q    Type
REMARK                         _______ _______ _______ _____ _____    ______ ____
ROOT
ATOM      1  N   UNL     1       5.774   4.996  17.981  0.00  0.00    +0.000 N 
ATOM      2  N   UNL     1       6.662   4.490  17.089  0.00  0.00    +0.000 NA
ATOM      3  C   UNL     1       5.906   4.084  16.066  0.00  0.00    +0.000 A 
ATOM      4  C   UNL     1       4.547   4.340  16.306  0.00  0.00    +0.000 A 
ATOM      5  C   UNL     1       4.462   4.884  17.574  0.00  0.00    +0.000 A 
ENDROOT
BRANCH   5   6
ATOM      6  C   UNL     1       3.289   5.327  18.305  0.00  0.00    +0.000 C 
ATOM      7  O   UNL     1       2.897   6.492  18.253  0.00  0.00    +0.000 OA
ATOM      8  N   UNL     1       2.622   4.373  19.058  0.00  0.00    +0.000 N 
ATOM      9  C   UNL     1       1.320   4.622  19.648  0.00  0.00    +0.000 C 
ATOM     10  C   UNL     1       1.340   3.836  20.947  0.00  0.00    +0.000 C 
ATOM     11  C   UNL     1       2.252   2.639  20.661  0.00  0.00    +0.000 C 
ATOM     12  C   UNL     1       3.137   3.086  19.489  0.00  0.00    +0.000 C 
BRANCH  11  13
ATOM     13  N   UNL     1       3.015   2.242  21.845  0.00  0.00    +0.000 NA
ATOM     14  H   UNL     1       3.620   1.453  21.609  0.00  0.00    +0.000 HD
ATOM     15  H   UNL     1       2.381   1.890  22.562  0.00  0.00    +0.000 HD
ENDBRANCH  11  13
ENDBRANCH   5   6
BRANCH   1  17
ATOM     16  C   UNL     1       7.779   5.712  19.244  0.00  0.00    +0.000 C 
ATOM     17  C   UNL     1       6.276   5.495  19.250  0.00  0.00    +0.000 C 
ENDBRANCH   1  17
BRANCH   3  18
ATOM     18  C   UNL     1       6.470   3.476  14.825  0.00  0.00    +0.000 C 
BRANCH  18  19
ATOM     19  C   UNL     1       6.311   4.311  13.545  0.00  0.00    +0.000 C 
ATOM     20  C   UNL     1       7.567   5.118  13.204  0.00  0.00    +0.000 C 
ATOM     21  C   UNL     1       5.973   3.380  12.377  0.00  0.00    +0.000 C 
ENDBRANCH  18  19
ENDBRANCH   3  18
TORSDOF 5
ENDMDL
MODEL 8
REMARK VINA RESULT:      -6.5      1.648      2.048
REMARK  Name = 
REMARK  8 active torsions:
REMARK  status: ('A' for Active; 'I' for Inactive)
REMARK    1  A    between atoms: C_1  and  C_2
REMARK    2  A    between atoms: C_2  and  N_3
REMARK    3  A    between atoms: C_5  and  C_6
REMARK    4  A    between atoms: C_6  and  C_7
REMARK    5  A    between atoms: C_7  and  C_8
REMARK    6  A    between atoms: C_7  and  C_9
REMARK    7  A    between atoms: C_11  and  C_12
REMARK    8  A    between atoms: C_17  and  N_18
REMARK                            x       y       z     vdW  Elec       q    Type
REMARK                         _______ _______ _______ _____ _____    ______ ____
ROOT
ATOM      1  N   UNL     1       5.890   5.767  16.635  0.00  0.00    +0.000 N 
ATOM      2  N   UNL     1       6.281   5.460  15.373  0.00  0.00    +0.000 NA
ATOM      3  C   UNL     1       6.010   4.159  15.252  0.00  0.00    +0.000 A 
ATOM      4  C   UNL     1       5.440   3.647  16.429  0.00  0.00    +0.000 A 
ATOM      5  C   UNL     1       5.414   4.684  17.343  0.00  0.00    +0.000 A 
ENDROOT
BRANCH   5   6
ATOM      6  C   UNL     1       4.927   4.690  18.709  0.00  0.00    +0.000 C 
ATOM      7  O   UNL     1       5.686   4.835  19.665  0.00  0.00    +0.000 OA
ATOM      8  N   UNL     1       3.561   4.534  18.888  0.00  0.00    +0.000 N 
ATOM      9  C   UNL     1       2.918   4.746  20.171  0.00  0.00    +0.000 C 
ATOM     10  C   UNL     1       1.779   3.741  20.191  0.00  0.00    +0.000 C 
ATOM     11  C   UNL     1       1.371   3.590  18.722  0.00  0.00    +0.000 C 
ATOM     12  C   UNL     1       2.608   4.020  17.921  0.00  0.00    +0.000 C 
BRANCH  11  13
ATOM     13  N   UNL     1       0.929   2.228  18.420  0.00  0.00    +0.000 NA
ATOM     14  H   UNL     1       0.525   2.204  17.481  0.00  0.00    +0.000 HD
ATOM     15  H   UNL     1       0.169   1.964  19.047  0.00  0.00    +0.000 HD
ENDBRANCH  11  13
ENDBRANCH   5   6
BRANCH   1  17
ATOM     16  C   UNL     1       7.520   7.388  17.555  0.00  0.00    +0.000 C 
ATOM     17  C   UNL     1       6.091   7.126  17.111  0.00  0.00    +0.000 C 
ENDBRANCH   1  17
BRANCH   3  18
ATOM     18  C   UNL     1       6.255   3.387  13.998  0.00  0.00    +0.000 C 
BRANCH  18  19
ATOM     19  C   UNL     1       5.937   4.127  12.690  0.00  0.00    +0.000 C 
ATOM     20  C   UNL     1       7.185   4.412  11.850  0.00  0.00    +0.000 C 
ATOM     21  C   UNL     1       4.951   3.292  11.867  0.00  0.00    +0.000 C 
ENDBRANCH  18  19
ENDBRANCH   3  18
TORSDOF 5
ENDMDL
MODEL 9
REMARK VINA RESULT:      -6.5      1.281      1.298
REMARK  Name = 
REMARK  8 active torsions:
REMARK  status: ('A' for Active; 'I' for Inactive)
REMARK    1  A    between atoms: C_1  and  C_2
REMARK    2  A    between atoms: C_2  and  N_3
REMARK    3  A    between atoms: C_5  and  C_6
REMARK    4  A    between atoms: C_6  and  C_7
REMARK    5  A    between atoms: C_7  and  C_8
REMARK    6  A    between atoms: C_7  and  C_9
REMARK    7  A    between atoms: C_11  and  C_12
REMARK    8  A    between atoms: C_17  and  N_18
REMARK                            x       y       z     vdW  Elec       q    Type
REMARK                         _______ _______ _______ _____ _____    ______ ____
ROOT
ATOM      1  N   UNL     1       6.364   4.938  16.873  0.00  0.00    +0.000 N 
ATOM      2  N   UNL     1       7.213   4.649  15.854  0.00  0.00    +0.000 NA
ATOM      3  C   UNL     1       6.478   4.828  14.753  0.00  0.00    +0.000 A 
ATOM      4  C   UNL     1       5.174   5.237  15.074  0.00  0.00    +0.000 A 
ATOM      5  C   UNL     1       5.089   5.254  16.454  0.00  0.00    +0.000 A 
ENDROOT
BRANCH   5   6
ATOM      6  C   UNL     1       3.963   5.604  17.299  0.00  0.00    +0.000 C 
ATOM      7  O   UNL     1       3.858   6.720  17.806  0.00  0.00    +0.000 OA
ATOM      8  N   UNL     1       3.002   4.626  17.500  0.00  0.00    +0.000 N 
ATOM      9  C   UNL     1       1.726   4.910  18.128  0.00  0.00    +0.000 C 
ATOM     10  C   UNL     1       1.394   3.640  18.894  0.00  0.00    +0.000 C 
ATOM     11  C   UNL     1       2.037   2.516  18.077  0.00  0.00    +0.000 C 
ATOM     12  C   UNL     1       3.148   3.200  17.268  0.00  0.00    +0.000 C 
BRANCH  11  13
ATOM     13  N   UNL     1       2.526   1.434  18.934  0.00  0.00    +0.000 NA
ATOM     14  H   UNL     1       2.329   1.661  19.911  0.00  0.00    +0.000 HD
ATOM     15  H   UNL     1       3.542   1.377  18.871  0.00  0.00    +0.000 HD
ENDBRANCH  11  13
ENDBRANCH   5   6
BRANCH   1  17
ATOM     16  C   UNL     1       7.779   5.923  18.649  0.00  0.00    +0.000 C 
ATOM     17  C   UNL     1       6.847   4.798  18.236  0.00  0.00    +0.000 C 
ENDBRANCH   1  17
BRANCH   3  18
ATOM     18  C   UNL     1       7.018   4.647  13.374  0.00  0.00    +0.000 C 
BRANCH  18  19
ATOM     19  C   UNL     1       6.447   3.457  12.589  0.00  0.00    +0.000 C 
ATOM     20  C   UNL     1       4.958   3.614  12.271  0.00  0.00    +0.000 C 
ATOM     21  C   UNL     1       7.230   3.295  11.282  0.00  0.00    +0.000 C 
ENDBRANCH  18  19
ENDBRANCH   3  18
TORSDOF 5
ENDMDL
