MODEL 1
REMARK VINA RESULT:      -7.6      0.000      0.000
REMARK  Name = 
REMARK  7 active torsions:
REMARK  status: ('A' for Active; 'I' for Inactive)
REMARK    1  A    between atoms: C_1  and  C_2
REMARK    2  A    between atoms: C_6  and  N_7
REMARK    3  A    between atoms: C_8  and  C_10
REMARK    4  A    between atoms: C_10  and  C_11
REMARK    5  A    between atoms: C_11  and  C_12
REMARK    6  A    between atoms: C_12  and  N_13
REMARK    7  A    between atoms: C_14  and  C_16
REMARK                            x       y       z     vdW  Elec       q    Type
REMARK                         _______ _______ _______ _____ _____    ______ ____
ROOT
ATOM      1  C   UNL     1       1.189   2.759  19.688  0.00  0.00    +0.000 C 
ENDROOT
BRANCH   1   2
ATOM      2  C   UNL     1       1.380   3.278  18.268  0.00  0.00    +0.000 C 
BRANCH   2   4
ATOM      3  N   UNL     1       3.417   4.226  17.348  0.00  0.00    +0.000 N 
ATOM      4  C   UNL     1       2.802   3.061  17.776  0.00  0.00    +0.000 C 
ATOM      5  O   UNL     1       3.277   1.930  17.798  0.00  0.00    +0.000 OA
ATOM      6  H   UNL     1       2.913   5.093  17.428  0.00  0.00    +0.000 HD
BRANCH   3  12
ATOM      7  C   UNL     1       6.267   3.926  13.495  0.00  0.00    +0.000 C 
ATOM      8  C   UNL     1       6.139   4.165  14.969  0.00  0.00    +0.000 A 
ATOM      9  C   UNL     1       7.251   4.433  15.754  0.00  0.00    +0.000 A 
ATOM     10  C   UNL     1       7.061   4.640  17.118  0.00  0.00    +0.000 A 
ATOM     11  C   UNL     1       5.774   4.565  17.647  0.00  0.00    +0.000 A 
ATOM     12  C   UNL     1       4.708   4.290  16.795  0.00  0.00    +0.000 A 
ATOM     13  N   UNL     1       4.893   4.098  15.480  0.00  0.00    +0.000 NA
ENDBRANCH   3  12
ENDBRANCH   2   4
ENDBRANCH   1   2
BRANCH   1  14
ATOM     14  C   UNL     1       1.791   3.693  20.732  0.00  0.00    +0.000 C 
BRANCH  14  15
ATOM     15  N   UNL     1       1.476   5.078  20.429  0.00  0.00    +0.000 N 
ATOM     16  C   UNL     1       2.468   5.972  20.074  0.00  0.00    +0.000 C 
ATOM     17  O   UNL     1       3.655   5.670  20.024  0.00  0.00    +0.000 OA
ATOM     18  H   UNL     1       0.510   5.309  20.242  0.00  0.00    +0.000 HD
BRANCH  16  19
ATOM     19  C   UNL     1       2.034   7.348  19.695  0.00  0.00    +0.000 A 
ATOM     20  C   UNL     1       2.195   7.858  18.399  0.00  0.00    +0.000 A 
ATOM     21  C   UNL     1       1.746   9.149  18.095  0.00  0.00    +0.000 A 
ATOM     22  C   UNL     1       1.135   9.926  19.079  0.00  0.00    +0.000 A 
ATOM     23 CL   UNL     1       0.579  11.508  18.698  0.00  0.00    +0.000 Cl
ATOM     24  C   UNL     1       0.962   9.424  20.367  0.00  0.00    +0.000 A 
ATOM     25  C   UNL     1       1.408   8.135  20.672  0.00  0.00    +0.000 A 
ENDBRANCH  16  19
ENDBRANCH  14  15
ENDBRANCH   1  14
TORSDOF 6
ENDMDL
MODEL 2
REMARK VINA RESULT:      -7.4      0.810      1.456
REMARK  Name = 
REMARK  7 active torsions:
REMARK  status: ('A' for Active; 'I' for Inactive)
REMARK    1  A    between atoms: C_1  and  C_2
REMARK    2  A    between atoms: C_6  and  N_7
REMARK    3  A    between atoms: C_8  and  C_10
REMARK    4  A    between atoms: C_10  and  C_11
REMARK    5  A    between atoms: C_11  and  C_12
REMARK    6  A    between atoms: C_12  and  N_13
REMARK    7  A    between atoms: C_14  and  C_16
REMARK                            x       y       z     vdW  Elec       q    Type
REMARK                         _______ _______ _______ _____ _____    ______ ____
ROOT
ATOM      1  C   UNL     1       1.446   2.651  19.664  0.00  0.00    +0.000 C 
ENDROOT
BRANCH   1   2
ATOM      2  C   UNL     1       1.596   3.034  18.196  0.00  0.00    +0.000 C 
BRANCH   2   4
ATOM      3  N   UNL     1       3.407   4.289  17.174  0.00  0.00    +0.000 N 
ATOM      4  C   UNL     1       3.057   3.092  17.777  0.00  0.00    +0.000 C 
ATOM      5  O   UNL     1       3.782   2.127  17.996  0.00  0.00    +0.000 OA
ATOM      6  H   UNL     1       2.710   5.011  17.098  0.00  0.00    +0.000 HD
BRANCH   3  12
ATOM      7  C   UNL     1       7.492   6.804  17.401  0.00  0.00    +0.000 C 
ATOM      8  C   UNL     1       6.679   5.754  16.704  0.00  0.00    +0.000 A 
ATOM      9  C   UNL     1       7.160   5.100  15.580  0.00  0.00    +0.000 A 
ATOM     10  C   UNL     1       6.349   4.140  14.978  0.00  0.00    +0.000 A 
ATOM     11  C   UNL     1       5.091   3.875  15.515  0.00  0.00    +0.000 A 
ATOM     12  C   UNL     1       4.678   4.575  16.646  0.00  0.00    +0.000 A 
ATOM     13  N   UNL     1       5.463   5.495  17.227  0.00  0.00    +0.000 NA
ENDBRANCH   3  12
ENDBRANCH   2   4
ENDBRANCH   1   2
BRANCH   1  14
ATOM     14  C   UNL     1       2.157   3.628  20.593  0.00  0.00    +0.000 C 
BRANCH  14  15
ATOM     15  N   UNL     1       1.747   4.994  20.320  0.00  0.00    +0.000 N 
ATOM     16  C   UNL     1       2.673   5.959  19.974  0.00  0.00    +0.000 C 
ATOM     17  O   UNL     1       3.877   5.739  19.908  0.00  0.00    +0.000 OA
ATOM     18  H   UNL     1       0.766   5.162  20.146  0.00  0.00    +0.000 HD
BRANCH  16  19
ATOM     19  C   UNL     1       2.143   7.309  19.626  0.00  0.00    +0.000 A 
ATOM     20  C   UNL     1       2.272   7.862  18.345  0.00  0.00    +0.000 A 
ATOM     21  C   UNL     1       1.733   9.124  18.069  0.00  0.00    +0.000 A 
ATOM     22  C   UNL     1       1.064   9.831  19.069  0.00  0.00    +0.000 A 
ATOM     23 CL   UNL     1       0.398  11.378  18.723  0.00  0.00    +0.000 Cl
ATOM     24  C   UNL     1       0.921   9.286  20.342  0.00  0.00    +0.000 A 
ATOM     25  C   UNL     1       1.457   8.025  20.619  0.00  0.00    +0.000 A 
ENDBRANCH  16  19
ENDBRANCH  14  15
ENDBRANCH   1  14
TORSDOF 6
ENDMDL
MODEL 3
REMARK VINA RESULT:      -7.3      1.153      2.054
REMARK  Name = 
REMARK  7 active torsions:
REMARK  status: ('A' for Active; 'I' for Inactive)
REMARK    1  A    between atoms: C_1  and  C_2
REMARK    2  A    between atoms: C_6  and  N_7
REMARK    3  A    between atoms: C_8  and  C_10
REMARK    4  A    between atoms: C_10  and  C_11
REMARK    5  A    between atoms: C_11  and  C_12
REMARK    6  A    between atoms: C_12  and  N_13
REMARK    7  A    between atoms: C_14  and  C_16
REMARK                            x       y       z     vdW  Elec       q    Type
REMARK                         _______ _______ _______ _____ _____    ______ ____
ROOT
ATOM      1  C   UNL     1       1.166   3.231  19.757  0.00  0.00    +0.000 C 
ENDROOT
BRANCH   1   2
ATOM      2  C   UNL     1       2.069   2.069  19.359  0.00  0.00    +0.000 C 
BRANCH   2   4
ATOM      3  N   UNL     1       3.606   3.332  17.966  0.00  0.00    +0.000 N 
ATOM      4  C   UNL     1       3.493   2.529  19.089  0.00  0.00    +0.000 C 
ATOM      5  O   UNL     1       4.390   2.178  19.848  0.00  0.00    +0.000 OA
ATOM      6  H   UNL     1       2.769   3.571  17.459  0.00  0.00    +0.000 HD
BRANCH   3  12
ATOM      7  C   UNL     1       7.782   5.561  18.771  0.00  0.00    +0.000 C 
ATOM      8  C   UNL     1       6.855   4.908  17.791  0.00  0.00    +0.000 A 
ATOM      9  C   UNL     1       7.178   4.817  16.445  0.00  0.00    +0.000 A 
ATOM     10  C   UNL     1       6.268   4.202  15.588  0.00  0.00    +0.000 A 
ATOM     11  C   UNL     1       5.071   3.710  16.103  0.00  0.00    +0.000 A 
ATOM     12  C   UNL     1       4.817   3.840  17.466  0.00  0.00    +0.000 A 
ATOM     13  N   UNL     1       5.698   4.427  18.291  0.00  0.00    +0.000 NA
ENDBRANCH   3  12
ENDBRANCH   2   4
ENDBRANCH   1   2
BRANCH   1  14
ATOM     14  C   UNL     1       1.809   4.130  20.807  0.00  0.00    +0.000 C 
BRANCH  14  15
ATOM     15  N   UNL     1       1.459   5.522  20.581  0.00  0.00    +0.000 N 
ATOM     16  C   UNL     1       2.348   6.389  19.974  0.00  0.00    +0.000 C 
ATOM     17  O   UNL     1       3.474   6.056  19.623  0.00  0.00    +0.000 OA
ATOM     18  H   UNL     1       0.484   5.776  20.646  0.00  0.00    +0.000 HD
BRANCH  16  19
ATOM     19  C   UNL     1       1.863   7.773  19.705  0.00  0.00    +0.000 A 
ATOM     20  C   UNL     1       1.238   8.556  20.686  0.00  0.00    +0.000 A 
ATOM     21  C   UNL     1       0.826   9.859  20.383  0.00  0.00    +0.000 A 
ATOM     22  C   UNL     1       1.040  10.381  19.106  0.00  0.00    +0.000 A 
ATOM     23 CL   UNL     1       0.537  11.984  18.741  0.00  0.00    +0.000 Cl
ATOM     24  C   UNL     1       1.669   9.614  18.128  0.00  0.00    +0.000 A 
ATOM     25  C   UNL     1       2.083   8.314  18.430  0.00  0.00    +0.000 A 
ENDBRANCH  16  19
ENDBRANCH  14  15
ENDBRANCH   1  14
TORSDOF 6
ENDMDL
MODEL 4
REMARK VINA RESULT:      -7.2      1.140      1.829
REMARK  Name = 
REMARK  7 active torsions:
REMARK  status: ('A' for Active; 'I' for Inactive)
REMARK    1  A    between atoms: C_1  and  C_2
REMARK    2  A    between atoms: C_6  and  N_7
REMARK    3  A    between atoms: C_8  and  C_10
REMARK    4  A    between atoms: C_10  and  C_11
REMARK    5  A    between atoms: C_11  and  C_12
REMARK    6  A    between atoms: C_12  and  N_13
REMARK    7  A    between atoms: C_14  and  C_16
REMARK                            x       y       z     vdW  Elec       q    Type
REMARK                         _______ _______ _______ _____ _____    ______ ____
ROOT
ATOM      1  C   UNL     1       1.458   2.589  20.065  0.00  0.00    +0.000 C 
ENDROOT
BRANCH   1   2
ATOM      2  C   UNL     1       2.511   1.896  19.207  0.00  0.00    +0.000 C 
BRANCH   2   4
ATOM      3  N   UNL     1       4.206   3.016  17.877  0.00  0.00    +0.000 N 
ATOM      4  C   UNL     1       2.858   2.714  17.972  0.00  0.00    +0.000 C 
ATOM      5  O   UNL     1       1.966   3.023  17.189  0.00  0.00    +0.000 OA
ATOM      6  H   UNL     1       4.831   2.657  18.580  0.00  0.00    +0.000 HD
BRANCH   3  12
ATOM      7  C   UNL     1       4.878   7.348  15.917  0.00  0.00    +0.000 C 
ATOM      8  C   UNL     1       5.146   5.874  15.871  0.00  0.00    +0.000 A 
ATOM      9  C   UNL     1       5.920   5.313  14.866  0.00  0.00    +0.000 A 
ATOM     10  C   UNL     1       6.124   3.935  14.880  0.00  0.00    +0.000 A 
ATOM     11  C   UNL     1       5.543   3.171  15.890  0.00  0.00    +0.000 A 
ATOM     12  C   UNL     1       4.777   3.806  16.864  0.00  0.00    +0.000 A 
ATOM     13  N   UNL     1       4.588   5.134  16.851  0.00  0.00    +0.000 NA
ENDBRANCH   3  12
ENDBRANCH   2   4
ENDBRANCH   1   2
BRANCH   1  14
ATOM     14  C   UNL     1       2.076   3.538  21.085  0.00  0.00    +0.000 C 
BRANCH  14  15
ATOM     15  N   UNL     1       1.714   4.915  20.795  0.00  0.00    +0.000 N 
ATOM     16  C   UNL     1       2.598   5.763  20.156  0.00  0.00    +0.000 C 
ATOM     17  O   UNL     1       3.730   5.427  19.827  0.00  0.00    +0.000 OA
ATOM     18  H   UNL     1       0.736   5.162  20.844  0.00  0.00    +0.000 HD
BRANCH  16  19
ATOM     19  C   UNL     1       2.102   7.130  19.824  0.00  0.00    +0.000 A 
ATOM     20  C   UNL     1       1.435   7.937  20.756  0.00  0.00    +0.000 A 
ATOM     21  C   UNL     1       1.014   9.222  20.394  0.00  0.00    +0.000 A 
ATOM     22  C   UNL     1       1.259   9.701  19.107  0.00  0.00    +0.000 A 
ATOM     23 CL   UNL     1       0.745  11.283  18.670  0.00  0.00    +0.000 Cl
ATOM     24  C   UNL     1       1.929   8.911  18.176  0.00  0.00    +0.000 A 
ATOM     25  C   UNL     1       2.353   7.628  18.536  0.00  0.00    +0.000 A 
ENDBRANCH  16  19
ENDBRANCH  14  15
ENDBRANCH   1  14
TORSDOF 6
ENDMDL
MODEL 5
REMARK VINA RESULT:      -7.2      5.912      7.699
REMARK  Name = 
REMARK  7 active torsions:
REMARK  status: ('A' for Active; 'I' for Inactive)
REMARK    1  A    between atoms: C_1  and  C_2
REMARK    2  A    between atoms: C_6  and  N_7
REMARK    3  A    between atoms: C_8  and  C_10
REMARK    4  A    between atoms: C_10  and  C_11
REMARK    5  A    between atoms: C_11  and  C_12
REMARK    6  A    between atoms: C_12  and  N_13
REMARK    7  A    between atoms: C_14  and  C_16
REMARK                            x       y       z     vdW  Elec       q    Type
REMARK                         _______ _______ _______ _____ _____    ______ ____
ROOT
ATOM      1  C   UNL     1       7.288   7.616  17.501  0.00  0.00    +0.000 C 
ENDROOT
BRANCH   1   2
ATOM      2  C   UNL     1       7.275   6.095  17.587  0.00  0.00    +0.000 C 
BRANCH   2   4
ATOM      3  N   UNL     1       4.952   5.588  18.078  0.00  0.00    +0.000 N 
ATOM      4  C   UNL     1       6.241   5.595  18.584  0.00  0.00    +0.000 C 
ATOM      5  O   UNL     1       6.606   5.248  19.702  0.00  0.00    +0.000 OA
ATOM      6  H   UNL     1       4.808   5.865  17.121  0.00  0.00    +0.000 HD
BRANCH   3  12
ATOM      7  C   UNL     1       1.894   2.180  19.527  0.00  0.00    +0.000 C 
ATOM      8  C   UNL     1       2.298   3.624  19.553  0.00  0.00    +0.000 A 
ATOM      9  C   UNL     1       1.568   4.564  20.265  0.00  0.00    +0.000 A 
ATOM     10  C   UNL     1       1.995   5.889  20.240  0.00  0.00    +0.000 A 
ATOM     11  C   UNL     1       3.128   6.226  19.502  0.00  0.00    +0.000 A 
ATOM     12  C   UNL     1       3.808   5.227  18.811  0.00  0.00    +0.000 A 
ATOM     13  N   UNL     1       3.397   3.950  18.842  0.00  0.00    +0.000 NA
ENDBRANCH   3  12
ENDBRANCH   2   4
ENDBRANCH   1   2
BRANCH   1  14
ATOM     14  C   UNL     1       8.269   8.243  18.486  0.00  0.00    +0.000 C 
BRANCH  14  15
ATOM     15  N   UNL     1       8.649   9.578  18.057  0.00  0.00    +0.000 N 
ATOM     16  C   UNL     1       9.218  10.474  18.941  0.00  0.00    +0.000 C 
ATOM     17  O   UNL     1       9.407  10.218  20.125  0.00  0.00    +0.000 OA
ATOM     18  H   UNL     1       8.719   9.749  17.064  0.00  0.00    +0.000 HD
BRANCH  16  19
ATOM     19  C   UNL     1       9.656  11.787  18.385  0.00  0.00    +0.000 A 
ATOM     20  C   UNL     1       8.919  12.966  18.568  0.00  0.00    +0.000 A 
ATOM     21  C   UNL     1       9.391  14.175  18.044  0.00  0.00    +0.000 A 
ATOM     22  C   UNL     1      10.596  14.208  17.342  0.00  0.00    +0.000 A 
ATOM     23 CL   UNL     1      11.175  15.697  16.706  0.00  0.00    +0.000 Cl
ATOM     24  C   UNL     1      11.341  13.045  17.163  0.00  0.00    +0.000 A 
ATOM     25  C   UNL     1      10.872  11.837  17.688  0.00  0.00    +0.000 A 
ENDBRANCH  16  19
ENDBRANCH  14  15
ENDBRANCH   1  14
TORSDOF 6
ENDMDL
MODEL 6
REMARK VINA RESULT:      -7.1      1.033      1.483
REMARK  Name = 
REMARK  7 active torsions:
REMARK  status: ('A' for Active; 'I' for Inactive)
REMARK    1  A    between atoms: C_1  and  C_2
REMARK    2  A    between atoms: C_6  and  N_7
REMARK    3  A    between atoms: C_8  and  C_10
REMARK    4  A    between atoms: C_10  and  C_11
REMARK    5  A    between atoms: C_11  and  C_12
REMARK    6  A    between atoms: C_12  and  N_13
REMARK    7  A    between atoms: C_14  and  C_16
REMARK                            x       y       z     vdW  Elec       q    Type
REMARK                         _______ _______ _______ _____ _____    ______ ____
ROOT
ATOM      1  C   UNL     1       1.143   3.620  20.413  0.00  0.00    +0.000 C 
ENDROOT
BRANCH   1   2
ATOM      2  C   UNL     1       1.795   2.642  19.444  0.00  0.00    +0.000 C 
BRANCH   2   4
ATOM      3  N   UNL     1       4.000   3.185  18.583  0.00  0.00    +0.000 N 
ATOM      4  C   UNL     1       2.638   3.359  18.401  0.00  0.00    +0.000 C 
ATOM      5  O   UNL     1       2.079   4.002  17.519  0.00  0.00    +0.000 OA
ATOM      6  H   UNL     1       4.313   2.592  19.334  0.00  0.00    +0.000 HD
BRANCH   3  12
ATOM      7  C   UNL     1       5.856   4.031  14.236  0.00  0.00    +0.000 C 
ATOM      8  C   UNL     1       5.938   4.238  15.718  0.00  0.00    +0.000 A 
ATOM      9  C   UNL     1       6.959   4.987  16.285  0.00  0.00    +0.000 A 
ATOM     10  C   UNL     1       6.978   5.134  17.670  0.00  0.00    +0.000 A 
ATOM     11  C   UNL     1       5.986   4.524  18.435  0.00  0.00    +0.000 A 
ATOM     12  C   UNL     1       4.995   3.786  17.793  0.00  0.00    +0.000 A 
ATOM     13  N   UNL     1       4.975   3.652  16.458  0.00  0.00    +0.000 NA
ENDBRANCH   3  12
ENDBRANCH   2   4
ENDBRANCH   1   2
BRANCH   1  14
ATOM     14  C   UNL     1       2.139   4.626  20.979  0.00  0.00    +0.000 C 
BRANCH  14  15
ATOM     15  N   UNL     1       1.701   5.987  20.723  0.00  0.00    +0.000 N 
ATOM     16  C   UNL     1       2.382   6.799  19.836  0.00  0.00    +0.000 C 
ATOM     17  O   UNL     1       3.396   6.443  19.245  0.00  0.00    +0.000 OA
ATOM     18  H   UNL     1       0.765   6.240  21.008  0.00  0.00    +0.000 HD
BRANCH  16  19
ATOM     19  C   UNL     1       1.803   8.148  19.574  0.00  0.00    +0.000 A 
ATOM     20  C   UNL     1       1.077   8.857  20.540  0.00  0.00    +0.000 A 
ATOM     21  C   UNL     1       0.577  10.132  20.246  0.00  0.00    +0.000 A 
ATOM     22  C   UNL     1       0.806  10.698  18.991  0.00  0.00    +0.000 A 
ATOM     23 CL   UNL     1       0.196  12.266  18.636  0.00  0.00    +0.000 Cl
ATOM     24  C   UNL     1       1.535  10.006  18.027  0.00  0.00    +0.000 A 
ATOM     25  C   UNL     1       2.036   8.734  18.321  0.00  0.00    +0.000 A 
ENDBRANCH  16  19
ENDBRANCH  14  15
ENDBRANCH   1  14
TORSDOF 6
ENDMDL
MODEL 7
REMARK VINA RESULT:      -7.0      6.114      7.819
REMARK  Name = 
REMARK  7 active torsions:
REMARK  status: ('A' for Active; 'I' for Inactive)
REMARK    1  A    between atoms: C_1  and  C_2
REMARK    2  A    between atoms: C_6  and  N_7
REMARK    3  A    between atoms: C_8  and  C_10
REMARK    4  A    between atoms: C_10  and  C_11
REMARK    5  A    between atoms: C_11  and  C_12
REMARK    6  A    between atoms: C_12  and  N_13
REMARK    7  A    between atoms: C_14  and  C_16
REMARK                            x       y       z     vdW  Elec       q    Type
REMARK                         _______ _______ _______ _____ _____    ______ ____
ROOT
ATOM      1  C   UNL     1       7.481   7.798  17.666  0.00  0.00    +0.000 C 
ENDROOT
BRANCH   1   2
ATOM      2  C   UNL     1       7.609   6.280  17.654  0.00  0.00    +0.000 C 
BRANCH   2   4
ATOM      3  N   UNL     1       5.502   5.242  18.273  0.00  0.00    +0.000 N 
ATOM      4  C   UNL     1       6.750   5.634  18.730  0.00  0.00    +0.000 C 
ATOM      5  O   UNL     1       7.203   5.508  19.863  0.00  0.00    +0.000 OA
ATOM      6  H   UNL     1       5.283   5.375  17.300  0.00  0.00    +0.000 HD
BRANCH   3  12
ATOM      7  C   UNL     1       1.452   5.775  20.798  0.00  0.00    +0.000 C 
ATOM      8  C   UNL     1       2.538   4.865  20.309  0.00  0.00    +0.000 A 
ATOM      9  C   UNL     1       2.554   3.518  20.644  0.00  0.00    +0.000 A 
ATOM     10  C   UNL     1       3.596   2.731  20.160  0.00  0.00    +0.000 A 
ATOM     11  C   UNL     1       4.583   3.315  19.370  0.00  0.00    +0.000 A 
ATOM     12  C   UNL     1       4.499   4.674  19.078  0.00  0.00    +0.000 A 
ATOM     13  N   UNL     1       3.491   5.430  19.540  0.00  0.00    +0.000 NA
ENDBRANCH   3  12
ENDBRANCH   2   4
ENDBRANCH   1   2
BRANCH   1  14
ATOM     14  C   UNL     1       8.449   8.453  18.644  0.00  0.00    +0.000 C 
BRANCH  14  15
ATOM     15  N   UNL     1       8.860   9.762  18.166  0.00  0.00    +0.000 N 
ATOM     16  C   UNL     1       9.294  10.736  19.044  0.00  0.00    +0.000 C 
ATOM     17  O   UNL     1       9.330  10.575  20.259  0.00  0.00    +0.000 OA
ATOM     18  H   UNL     1       9.056   9.860  17.180  0.00  0.00    +0.000 HD
BRANCH  16  19
ATOM     19  C   UNL     1       9.778  12.015  18.449  0.00  0.00    +0.000 A 
ATOM     20  C   UNL     1      10.826  12.064  17.519  0.00  0.00    +0.000 A 
ATOM     21  C   UNL     1      11.221  13.292  16.975  0.00  0.00    +0.000 A 
ATOM     22  C   UNL     1      10.572  14.466  17.355  0.00  0.00    +0.000 A 
ATOM     23 CL   UNL     1      11.058  15.971  16.679  0.00  0.00    +0.000 Cl
ATOM     24  C   UNL     1       9.524  14.427  18.272  0.00  0.00    +0.000 A 
ATOM     25  C   UNL     1       9.125  13.202  18.814  0.00  0.00    +0.000 A 
ENDBRANCH  16  19
ENDBRANCH  14  15
ENDBRANCH   1  14
TORSDOF 6
ENDMDL
MODEL 8
REMARK VINA RESULT:      -7.0      1.072      1.193
REMARK  Name = 
REMARK  7 active torsions:
REMARK  status: ('A' for Active; 'I' for Inactive)
REMARK    1  A    between atoms: C_1  and  C_2
REMARK    2  A    between atoms: C_6  and  N_7
REMARK    3  A    between atoms: C_8  and  C_10
REMARK    4  A    between atoms: C_10  and  C_11
REMARK    5  A    between atoms: C_11  and  C_12
REMARK    6  A    between atoms: C_12  and  N_13
REMARK    7  A    between atoms: C_14  and  C_16
REMARK                            x       y       z     vdW  Elec       q    Type
REMARK                         _______ _______ _______ _____ _____    ______ ____
ROOT
ATOM      1  C   UNL     1       1.263   3.742  20.239  0.00  0.00    +0.000 C 
ENDROOT
BRANCH   1   2
ATOM      2  C   UNL     1       1.774   2.670  19.284  0.00  0.00    +0.000 C 
BRANCH   2   4
ATOM      3  N   UNL     1       3.504   3.745  17.961  0.00  0.00    +0.000 N 
ATOM      4  C   UNL     1       3.255   2.844  18.983  0.00  0.00    +0.000 C 
ATOM      5  O   UNL     1       4.077   2.211  19.637  0.00  0.00    +0.000 OA
ATOM      6  H   UNL     1       2.724   4.224  17.540  0.00  0.00    +0.000 HD
BRANCH   3  12
ATOM      7  C   UNL     1       6.464   4.064  14.193  0.00  0.00    +0.000 C 
ATOM      8  C   UNL     1       6.260   4.224  15.670  0.00  0.00    +0.000 A 
ATOM      9  C   UNL     1       7.291   4.642  16.499  0.00  0.00    +0.000 A 
ATOM     10  C   UNL     1       7.034   4.763  17.862  0.00  0.00    +0.000 A 
ATOM     11  C   UNL     1       5.763   4.458  18.346  0.00  0.00    +0.000 A 
ATOM     12  C   UNL     1       4.780   4.043  17.452  0.00  0.00    +0.000 A 
ATOM     13  N   UNL     1       5.029   3.933  16.138  0.00  0.00    +0.000 NA
ENDBRANCH   3  12
ENDBRANCH   2   4
ENDBRANCH   1   2
BRANCH   1  14
ATOM     14  C   UNL     1       2.387   4.613  20.787  0.00  0.00    +0.000 C 
BRANCH  14  15
ATOM     15  N   UNL     1       1.988   6.010  20.825  0.00  0.00    +0.000 N 
ATOM     16  C   UNL     1       2.184   6.835  19.734  0.00  0.00    +0.000 C 
ATOM     17  O   UNL     1       2.723   6.461  18.699  0.00  0.00    +0.000 OA
ATOM     18  H   UNL     1       1.351   6.295  21.555  0.00  0.00    +0.000 HD
BRANCH  16  19
ATOM     19  C   UNL     1       1.659   8.228  19.839  0.00  0.00    +0.000 A 
ATOM     20  C   UNL     1       1.635   9.107  18.748  0.00  0.00    +0.000 A 
ATOM     21  C   UNL     1       1.108  10.395  18.899  0.00  0.00    +0.000 A 
ATOM     22  C   UNL     1       0.603  10.803  20.134  0.00  0.00    +0.000 A 
ATOM     23 CL   UNL     1      -0.049  12.384  20.312  0.00  0.00    +0.000 Cl
ATOM     24  C   UNL     1       0.613   9.933  21.221  0.00  0.00    +0.000 A 
ATOM     25  C   UNL     1       1.137   8.645  21.072  0.00  0.00    +0.000 A 
ENDBRANCH  16  19
ENDBRANCH  14  15
ENDBRANCH   1  14
TORSDOF 6
ENDMDL
MODEL 9
REMARK VINA RESULT:      -6.8      2.788      6.366
REMARK  Name = 
REMARK  7 active torsions:
REMARK  status: ('A' for Active; 'I' for Inactive)
REMARK    1  A    between atoms: C_1  and  C_2
REMARK    2  A    between atoms: C_6  and  N_7
REMARK    3  A    between atoms: C_8  and  C_10
REMARK    4  A    between atoms: C_10  and  C_11
REMARK    5  A    between atoms: C_11  and  C_12
REMARK    6  A    between atoms: C_12  and  N_13
REMARK    7  A    between atoms: C_14  and  C_16
REMARK                            x       y       z     vdW  Elec       q    Type
REMARK                         _______ _______ _______ _____ _____    ______ ____
ROOT
ATOM      1  C   UNL     1       3.042   2.390  20.417  0.00  0.00    +0.000 C 
ENDROOT
BRANCH   1   2
ATOM      2  C   UNL     1       2.336   2.999  19.212  0.00  0.00    +0.000 C 
BRANCH   2   4
ATOM      3  N   UNL     1       2.399   5.415  18.974  0.00  0.00    +0.000 N 
ATOM      4  C   UNL     1       1.721   4.350  19.543  0.00  0.00    +0.000 C 
ATOM      5  O   UNL     1       0.719   4.394  20.248  0.00  0.00    +0.000 OA
ATOM      6  H   UNL     1       3.189   5.221  18.380  0.00  0.00    +0.000 HD
BRANCH   3  12
ATOM      7  C   UNL     1       0.994   8.925  21.935  0.00  0.00    +0.000 C 
ATOM      8  C   UNL     1       1.400   8.511  20.552  0.00  0.00    +0.000 A 
ATOM      9  C   UNL     1       1.442   9.425  19.510  0.00  0.00    +0.000 A 
ATOM     10  C   UNL     1       1.823   8.971  18.249  0.00  0.00    +0.000 A 
ATOM     11  C   UNL     1       2.138   7.625  18.075  0.00  0.00    +0.000 A 
ATOM     12  C   UNL     1       2.071   6.768  19.170  0.00  0.00    +0.000 A 
ATOM     13  N   UNL     1       1.710   7.209  20.385  0.00  0.00    +0.000 NA
ENDBRANCH   3  12
ENDBRANCH   2   4
ENDBRANCH   1   2
BRANCH   1  14
ATOM     14  C   UNL     1       4.559   2.526  20.330  0.00  0.00    +0.000 C 
BRANCH  14  15
ATOM     15  N   UNL     1       4.970   2.861  18.978  0.00  0.00    +0.000 N 
ATOM     16  C   UNL     1       5.391   4.138  18.658  0.00  0.00    +0.000 C 
ATOM     17  O   UNL     1       5.415   5.058  19.468  0.00  0.00    +0.000 OA
ATOM     18  H   UNL     1       5.177   2.099  18.348  0.00  0.00    +0.000 HD
BRANCH  16  19
ATOM     19  C   UNL     1       5.878   4.360  17.266  0.00  0.00    +0.000 A 
ATOM     20  C   UNL     1       7.177   4.806  16.984  0.00  0.00    +0.000 A 
ATOM     21  C   UNL     1       7.586   4.973  15.656  0.00  0.00    +0.000 A 
ATOM     22  C   UNL     1       6.704   4.692  14.612  0.00  0.00    +0.000 A 
ATOM     23 CL   UNL     1       7.214   4.893  12.982  0.00  0.00    +0.000 Cl
ATOM     24  C   UNL     1       5.415   4.239  14.882  0.00  0.00    +0.000 A 
ATOM     25  C   UNL     1       5.005   4.070  16.207  0.00  0.00    +0.000 A 
ENDBRANCH  16  19
ENDBRANCH  14  15
ENDBRANCH   1  14
TORSDOF 6
ENDMDL
