MODEL 1
REMARK VINA RESULT:      -7.7      0.000      0.000
REMARK  Name = 
REMARK  7 active torsions:
REMARK  status: ('A' for Active; 'I' for Inactive)
REMARK    1  A    between atoms: C_2  and  C_3
REMARK    2  A    between atoms: C_2  and  C_16
REMARK    3  A    between atoms: C_5  and  C_6
REMARK    4  A    between atoms: C_9  and  O_10
REMARK    5  A    between atoms: O_10  and  C_11
REMARK    6  A    between atoms: C_16  and  O_17
REMARK    7  A    between atoms: C_16  and  C_18
REMARK                            x       y       z     vdW  Elec       q    Type
REMARK                         _______ _______ _______ _____ _____    ______ ____
ROOT
ATOM      1  C   UNL     1       2.998   7.445  18.122  0.00  0.00    +0.000 A 
ATOM      2  N   UNL     1       2.474   7.641  19.313  0.00  0.00    +0.000 NA
ATOM      3  C   UNL     1       1.673   8.743  19.155  0.00  0.00    +0.000 A 
ATOM      4  N   UNL     1       1.675   9.226  17.903  0.00  0.00    +0.000 NA
ATOM      5  O   UNL     1       2.544   8.390  17.223  0.00  0.00    +0.000 OA
ENDROOT
BRANCH   3   6
ATOM      6  C   UNL     1       0.919   9.335  20.242  0.00  0.00    +0.000 A 
ATOM      7  C   UNL     1       1.033   8.831  21.546  0.00  0.00    +0.000 A 
ATOM      8  C   UNL     1       0.293   9.401  22.581  0.00  0.00    +0.000 A 
ATOM      9  C   UNL     1      -0.551  10.487  22.343  0.00  0.00    +0.000 A 
ATOM     10  C   UNL     1      -0.678  10.986  21.045  0.00  0.00    +0.000 A 
ATOM     11  C   UNL     1       0.062  10.418  20.005  0.00  0.00    +0.000 A 
BRANCH   9  12
ATOM     12  O   UNL     1      -1.228  10.942  23.440  0.00  0.00    +0.000 OA
ATOM     13  C   UNL     1      -2.265  11.883  23.187  0.00  0.00    +0.000 C 
ENDBRANCH   9  12
ENDBRANCH   3   6
BRANCH   1  15
ATOM     14  C   UNL     1       4.564   6.592  16.565  0.00  0.00    +0.000 C 
ATOM     15  C   UNL     1       3.920   6.414  17.740  0.00  0.00    +0.000 C 
BRANCH  15  16
ATOM     16  C   UNL     1       4.182   5.156  18.555  0.00  0.00    +0.000 C 
BRANCH  16  17
ATOM     17  C   UNL     1       2.942   4.379  18.974  0.00  0.00    +0.000 A 
ATOM     18  C   UNL     1       2.132   3.696  18.057  0.00  0.00    +0.000 A 
ATOM     19  C   UNL     1       1.049   2.930  18.481  0.00  0.00    +0.000 A 
ATOM     20  C   UNL     1       0.752   2.834  19.837  0.00  0.00    +0.000 A 
ATOM     21  C   UNL     1       1.543   3.504  20.770  0.00  0.00    +0.000 A 
ATOM     22  C   UNL     1       2.629   4.270  20.344  0.00  0.00    +0.000 A 
ENDBRANCH  16  17
BRANCH  16  23
ATOM     23  O   UNL     1       4.986   5.456  19.696  0.00  0.00    +0.000 OA
ATOM     24  H   UNL     1       5.820   5.842  19.377  0.00  0.00    +0.000 HD
ENDBRANCH  16  23
ENDBRANCH  15  16
ENDBRANCH   1  15
TORSDOF 6
ENDMDL
MODEL 2
REMARK VINA RESULT:      -7.7      1.026      1.302
REMARK  Name = 
REMARK  7 active torsions:
REMARK  status: ('A' for Active; 'I' for Inactive)
REMARK    1  A    between atoms: C_2  and  C_3
REMARK    2  A    between atoms: C_2  and  C_16
REMARK    3  A    between atoms: C_5  and  C_6
REMARK    4  A    between atoms: C_9  and  O_10
REMARK    5  A    between atoms: O_10  and  C_11
REMARK    6  A    between atoms: C_16  and  O_17
REMARK    7  A    between atoms: C_16  and  C_18
REMARK                            x       y       z     vdW  Elec       q    Type
REMARK                         _______ _______ _______ _____ _____    ______ ____
ROOT
ATOM      1  C   UNL     1       2.870   7.201  18.190  0.00  0.00    +0.000 A 
ATOM      2  N   UNL     1       2.292   7.419  19.352  0.00  0.00    +0.000 NA
ATOM      3  C   UNL     1       1.693   8.644  19.210  0.00  0.00    +0.000 A 
ATOM      4  N   UNL     1       1.871   9.185  17.993  0.00  0.00    +0.000 NA
ATOM      5  O   UNL     1       2.645   8.253  17.324  0.00  0.00    +0.000 OA
ENDROOT
BRANCH   3   6
ATOM      6  C   UNL     1       0.961   9.296  20.277  0.00  0.00    +0.000 A 
ATOM      7  C   UNL     1       1.049   8.821  21.595  0.00  0.00    +0.000 A 
ATOM      8  C   UNL     1       0.329   9.448  22.611  0.00  0.00    +0.000 A 
ATOM      9  C   UNL     1      -0.468  10.562  22.341  0.00  0.00    +0.000 A 
ATOM     10  C   UNL     1      -0.569  11.032  21.030  0.00  0.00    +0.000 A 
ATOM     11  C   UNL     1       0.150  10.407  20.008  0.00  0.00    +0.000 A 
BRANCH   9  12
ATOM     12  O   UNL     1      -1.129  11.073  23.423  0.00  0.00    +0.000 OA
ATOM     13  C   UNL     1      -2.242  11.911  23.135  0.00  0.00    +0.000 C 
ENDBRANCH   9  12
ENDBRANCH   3   6
BRANCH   1  15
ATOM     14  C   UNL     1       4.962   6.261  17.602  0.00  0.00    +0.000 C 
ATOM     15  C   UNL     1       3.642   6.054  17.807  0.00  0.00    +0.000 C 
BRANCH  15  16
ATOM     16  C   UNL     1       3.062   4.662  17.603  0.00  0.00    +0.000 C 
BRANCH  16  17
ATOM     17  C   UNL     1       2.660   3.928  18.875  0.00  0.00    +0.000 A 
ATOM     18  C   UNL     1       3.593   3.307  19.716  0.00  0.00    +0.000 A 
ATOM     19  C   UNL     1       3.202   2.713  20.913  0.00  0.00    +0.000 A 
ATOM     20  C   UNL     1       1.864   2.724  21.292  0.00  0.00    +0.000 A 
ATOM     21  C   UNL     1       0.915   3.336  20.472  0.00  0.00    +0.000 A 
ATOM     22  C   UNL     1       1.308   3.934  19.274  0.00  0.00    +0.000 A 
ENDBRANCH  16  17
BRANCH  16  23
ATOM     23  O   UNL     1       3.950   3.856  16.828  0.00  0.00    +0.000 OA
ATOM     24  H   UNL     1       4.630   4.442  16.453  0.00  0.00    +0.000 HD
ENDBRANCH  16  23
ENDBRANCH  15  16
ENDBRANCH   1  15
TORSDOF 6
ENDMDL
MODEL 3
REMARK VINA RESULT:      -7.6      0.936      1.639
REMARK  Name = 
REMARK  7 active torsions:
REMARK  status: ('A' for Active; 'I' for Inactive)
REMARK    1  A    between atoms: C_2  and  C_3
REMARK    2  A    between atoms: C_2  and  C_16
REMARK    3  A    between atoms: C_5  and  C_6
REMARK    4  A    between atoms: C_9  and  O_10
REMARK    5  A    between atoms: O_10  and  C_11
REMARK    6  A    between atoms: C_16  and  O_17
REMARK    7  A    between atoms: C_16  and  C_18
REMARK                            x       y       z     vdW  Elec       q    Type
REMARK                         _______ _______ _______ _____ _____    ______ ____
ROOT
ATOM      1  C   UNL     1       2.926   7.213  18.133  0.00  0.00    +0.000 A 
ATOM      2  N   UNL     1       2.404   7.416  19.324  0.00  0.00    +0.000 NA
ATOM      3  C   UNL     1       1.709   8.591  19.195  0.00  0.00    +0.000 A 
ATOM      4  N   UNL     1       1.774   9.115  17.961  0.00  0.00    +0.000 NA
ATOM      5  O   UNL     1       2.573   8.226  17.263  0.00  0.00    +0.000 OA
ENDROOT
BRANCH   3   6
ATOM      6  C   UNL     1       0.996   9.212  20.293  0.00  0.00    +0.000 A 
ATOM      7  C   UNL     1       0.198  10.346  20.074  0.00  0.00    +0.000 A 
ATOM      8  C   UNL     1      -0.472  10.942  21.141  0.00  0.00    +0.000 A 
ATOM      9  C   UNL     1      -0.378  10.416  22.430  0.00  0.00    +0.000 A 
ATOM     10  C   UNL     1       0.424   9.295  22.657  0.00  0.00    +0.000 A 
ATOM     11  C   UNL     1       1.098   8.693  21.591  0.00  0.00    +0.000 A 
BRANCH   9  12
ATOM     12  O   UNL     1      -1.073  11.103  23.385  0.00  0.00    +0.000 OA
ATOM     13  C   UNL     1      -1.567  12.381  23.000  0.00  0.00    +0.000 C 
ENDBRANCH   9  12
ENDBRANCH   3   6
BRANCH   1  15
ATOM     14  C   UNL     1       5.069   6.391  17.554  0.00  0.00    +0.000 C 
ATOM     15  C   UNL     1       3.757   6.117  17.725  0.00  0.00    +0.000 C 
BRANCH  15  16
ATOM     16  C   UNL     1       3.245   4.709  17.459  0.00  0.00    +0.000 C 
BRANCH  16  17
ATOM     17  C   UNL     1       2.645   3.994  18.663  0.00  0.00    +0.000 A 
ATOM     18  C   UNL     1       3.383   3.717  19.822  0.00  0.00    +0.000 A 
ATOM     19  C   UNL     1       2.785   3.132  20.935  0.00  0.00    +0.000 A 
ATOM     20  C   UNL     1       1.432   2.809  20.910  0.00  0.00    +0.000 A 
ATOM     21  C   UNL     1       0.676   3.074  19.768  0.00  0.00    +0.000 A 
ATOM     22  C   UNL     1       1.276   3.662  18.654  0.00  0.00    +0.000 A 
ENDBRANCH  16  17
BRANCH  16  23
ATOM     23  O   UNL     1       4.266   3.906  16.866  0.00  0.00    +0.000 OA
ATOM     24  H   UNL     1       5.123   4.232  17.189  0.00  0.00    +0.000 HD
ENDBRANCH  16  23
ENDBRANCH  15  16
ENDBRANCH   1  15
TORSDOF 6
ENDMDL
MODEL 4
REMARK VINA RESULT:      -7.6      0.571      1.125
REMARK  Name = 
REMARK  7 active torsions:
REMARK  status: ('A' for Active; 'I' for Inactive)
REMARK    1  A    between atoms: C_2  and  C_3
REMARK    2  A    between atoms: C_2  and  C_16
REMARK    3  A    between atoms: C_5  and  C_6
REMARK    4  A    between atoms: C_9  and  O_10
REMARK    5  A    between atoms: O_10  and  C_11
REMARK    6  A    between atoms: C_16  and  O_17
REMARK    7  A    between atoms: C_16  and  C_18
REMARK                            x       y       z     vdW  Elec       q    Type
REMARK                         _______ _______ _______ _____ _____    ______ ____
ROOT
ATOM      1  C   UNL     1       2.869   7.573  18.201  0.00  0.00    +0.000 A 
ATOM      2  N   UNL     1       2.364   7.766  19.401  0.00  0.00    +0.000 NA
ATOM      3  C   UNL     1       1.533   8.846  19.249  0.00  0.00    +0.000 A 
ATOM      4  N   UNL     1       1.498   9.319  17.993  0.00  0.00    +0.000 NA
ATOM      5  O   UNL     1       2.374   8.498  17.303  0.00  0.00    +0.000 OA
ENDROOT
BRANCH   3   6
ATOM      6  C   UNL     1       0.786   9.430  20.346  0.00  0.00    +0.000 A 
ATOM      7  C   UNL     1       0.477  10.798  20.348  0.00  0.00    +0.000 A 
ATOM      8  C   UNL     1      -0.230  11.351  21.415  0.00  0.00    +0.000 A 
ATOM      9  C   UNL     1      -0.656  10.555  22.480  0.00  0.00    +0.000 A 
ATOM     10  C   UNL     1      -0.341   9.194  22.489  0.00  0.00    +0.000 A 
ATOM     11  C   UNL     1       0.368   8.636  21.422  0.00  0.00    +0.000 A 
BRANCH   9  12
ATOM     12  O   UNL     1      -1.328  11.223  23.466  0.00  0.00    +0.000 OA
ATOM     13  C   UNL     1      -2.193  12.267  23.034  0.00  0.00    +0.000 C 
ENDBRANCH   9  12
ENDBRANCH   3   6
BRANCH   1  15
ATOM     14  C   UNL     1       4.439   6.755  16.628  0.00  0.00    +0.000 C 
ATOM     15  C   UNL     1       3.809   6.562  17.808  0.00  0.00    +0.000 C 
BRANCH  15  16
ATOM     16  C   UNL     1       4.105   5.309  18.619  0.00  0.00    +0.000 C 
BRANCH  16  17
ATOM     17  C   UNL     1       2.990   4.272  18.650  0.00  0.00    +0.000 A 
ATOM     18  C   UNL     1       2.948   3.182  17.771  0.00  0.00    +0.000 A 
ATOM     19  C   UNL     1       1.957   2.209  17.877  0.00  0.00    +0.000 A 
ATOM     20  C   UNL     1       0.984   2.309  18.866  0.00  0.00    +0.000 A 
ATOM     21  C   UNL     1       1.004   3.386  19.753  0.00  0.00    +0.000 A 
ATOM     22  C   UNL     1       1.998   4.359  19.648  0.00  0.00    +0.000 A 
ENDBRANCH  16  17
BRANCH  16  23
ATOM     23  O   UNL     1       4.498   5.652  19.949  0.00  0.00    +0.000 OA
ATOM     24  H   UNL     1       5.041   6.457  19.898  0.00  0.00    +0.000 HD
ENDBRANCH  16  23
ENDBRANCH  15  16
ENDBRANCH   1  15
TORSDOF 6
ENDMDL
MODEL 5
REMARK VINA RESULT:      -7.6      0.317      1.049
REMARK  Name = 
REMARK  7 active torsions:
REMARK  status: ('A' for Active; 'I' for Inactive)
REMARK    1  A    between atoms: C_2  and  C_3
REMARK    2  A    between atoms: C_2  and  C_16
REMARK    3  A    between atoms: C_5  and  C_6
REMARK    4  A    between atoms: C_9  and  O_10
REMARK    5  A    between atoms: O_10  and  C_11
REMARK    6  A    between atoms: C_16  and  O_17
REMARK    7  A    between atoms: C_16  and  C_18
REMARK                            x       y       z     vdW  Elec       q    Type
REMARK                         _______ _______ _______ _____ _____    ______ ____
ROOT
ATOM      1  C   UNL     1       3.005   7.406  18.139  0.00  0.00    +0.000 A 
ATOM      2  N   UNL     1       2.525   7.645  19.341  0.00  0.00    +0.000 NA
ATOM      3  C   UNL     1       1.681   8.711  19.163  0.00  0.00    +0.000 A 
ATOM      4  N   UNL     1       1.615   9.131  17.890  0.00  0.00    +0.000 NA
ATOM      5  O   UNL     1       2.482   8.289  17.215  0.00  0.00    +0.000 OA
ENDROOT
BRANCH   3   6
ATOM      6  C   UNL     1       0.954   9.334  20.251  0.00  0.00    +0.000 A 
ATOM      7  C   UNL     1       0.474   8.563  21.321  0.00  0.00    +0.000 A 
ATOM      8  C   UNL     1      -0.236   9.171  22.355  0.00  0.00    +0.000 A 
ATOM      9  C   UNL     1      -0.462  10.548  22.354  0.00  0.00    +0.000 A 
ATOM     10  C   UNL     1       0.004  11.320  21.287  0.00  0.00    +0.000 A 
ATOM     11  C   UNL     1       0.715  10.715  20.248  0.00  0.00    +0.000 A 
BRANCH   9  12
ATOM     12  O   UNL     1      -1.180  11.015  23.419  0.00  0.00    +0.000 OA
ATOM     13  C   UNL     1      -2.274  11.871  23.107  0.00  0.00    +0.000 C 
ENDBRANCH   9  12
ENDBRANCH   3   6
BRANCH   1  15
ATOM     14  C   UNL     1       4.572   6.553  16.582  0.00  0.00    +0.000 C 
ATOM     15  C   UNL     1       3.945   6.387  17.768  0.00  0.00    +0.000 C 
BRANCH  15  16
ATOM     16  C   UNL     1       4.244   5.153  18.606  0.00  0.00    +0.000 C 
BRANCH  16  17
ATOM     17  C   UNL     1       3.027   4.351  19.046  0.00  0.00    +0.000 A 
ATOM     18  C   UNL     1       2.528   4.391  20.355  0.00  0.00    +0.000 A 
ATOM     19  C   UNL     1       1.366   3.707  20.705  0.00  0.00    +0.000 A 
ATOM     20  C   UNL     1       0.680   2.965  19.749  0.00  0.00    +0.000 A 
ATOM     21  C   UNL     1       1.156   2.909  18.440  0.00  0.00    +0.000 A 
ATOM     22  C   UNL     1       2.319   3.596  18.089  0.00  0.00    +0.000 A 
ENDBRANCH  16  17
BRANCH  16  23
ATOM     23  O   UNL     1       5.044   5.497  19.738  0.00  0.00    +0.000 OA
ATOM     24  H   UNL     1       4.502   5.363  20.535  0.00  0.00    +0.000 HD
ENDBRANCH  16  23
ENDBRANCH  15  16
ENDBRANCH   1  15
TORSDOF 6
ENDMDL
MODEL 6
REMARK VINA RESULT:      -7.5      0.564      1.399
REMARK  Name = 
REMARK  7 active torsions:
REMARK  status: ('A' for Active; 'I' for Inactive)
REMARK    1  A    between atoms: C_2  and  C_3
REMARK    2  A    between atoms: C_2  and  C_16
REMARK    3  A    between atoms: C_5  and  C_6
REMARK    4  A    between atoms: C_9  and  O_10
REMARK    5  A    between atoms: O_10  and  C_11
REMARK    6  A    between atoms: C_16  and  O_17
REMARK    7  A    between atoms: C_16  and  C_18
REMARK                            x       y       z     vdW  Elec       q    Type
REMARK                         _______ _______ _______ _____ _____    ______ ____
ROOT
ATOM      1  C   UNL     1       2.876   7.520  18.206  0.00  0.00    +0.000 A 
ATOM      2  N   UNL     1       2.406   7.759  19.412  0.00  0.00    +0.000 NA
ATOM      3  C   UNL     1       1.562   8.826  19.243  0.00  0.00    +0.000 A 
ATOM      4  N   UNL     1       1.486   9.248  17.970  0.00  0.00    +0.000 NA
ATOM      5  O   UNL     1       2.347   8.406  17.288  0.00  0.00    +0.000 OA
ENDROOT
BRANCH   3   6
ATOM      6  C   UNL     1       0.844   9.448  20.337  0.00  0.00    +0.000 A 
ATOM      7  C   UNL     1       0.707  10.844  20.397  0.00  0.00    +0.000 A 
ATOM      8  C   UNL     1       0.026  11.431  21.462  0.00  0.00    +0.000 A 
ATOM      9  C   UNL     1      -0.544  10.648  22.467  0.00  0.00    +0.000 A 
ATOM     10  C   UNL     1      -0.401   9.259  22.419  0.00  0.00    +0.000 A 
ATOM     11  C   UNL     1       0.282   8.666  21.355  0.00  0.00    +0.000 A 
BRANCH   9  12
ATOM     12  O   UNL     1      -1.172  11.349  23.458  0.00  0.00    +0.000 OA
ATOM     13  C   UNL     1      -2.421  11.936  23.111  0.00  0.00    +0.000 C 
ENDBRANCH   9  12
ENDBRANCH   3   6
BRANCH   1  15
ATOM     14  C   UNL     1       4.411   6.654  16.625  0.00  0.00    +0.000 C 
ATOM     15  C   UNL     1       3.812   6.500  17.826  0.00  0.00    +0.000 C 
BRANCH  15  16
ATOM     16  C   UNL     1       4.135   5.278  18.674  0.00  0.00    +0.000 C 
BRANCH  16  17
ATOM     17  C   UNL     1       3.003   4.270  18.824  0.00  0.00    +0.000 A 
ATOM     18  C   UNL     1       2.014   4.386  19.809  0.00  0.00    +0.000 A 
ATOM     19  C   UNL     1       0.949   3.491  19.870  0.00  0.00    +0.000 A 
ATOM     20  C   UNL     1       0.854   2.456  18.945  0.00  0.00    +0.000 A 
ATOM     21  C   UNL     1       1.827   2.318  17.955  0.00  0.00    +0.000 A 
ATOM     22  C   UNL     1       2.893   3.217  17.893  0.00  0.00    +0.000 A 
ENDBRANCH  16  17
BRANCH  16  23
ATOM     23  O   UNL     1       4.620   5.671  19.958  0.00  0.00    +0.000 OA
ATOM     24  H   UNL     1       5.389   6.250  19.819  0.00  0.00    +0.000 HD
ENDBRANCH  16  23
ENDBRANCH  15  16
ENDBRANCH   1  15
TORSDOF 6
ENDMDL
MODEL 7
REMARK VINA RESULT:      -7.5      5.935      7.596
REMARK  Name = 
REMARK  7 active torsions:
REMARK  status: ('A' for Active; 'I' for Inactive)
REMARK    1  A    between atoms: C_2  and  C_3
REMARK    2  A    between atoms: C_2  and  C_16
REMARK    3  A    between atoms: C_5  and  C_6
REMARK    4  A    between atoms: C_9  and  O_10
REMARK    5  A    between atoms: O_10  and  C_11
REMARK    6  A    between atoms: C_16  and  O_17
REMARK    7  A    between atoms: C_16  and  C_18
REMARK                            x       y       z     vdW  Elec       q    Type
REMARK                         _______ _______ _______ _____ _____    ______ ____
ROOT
ATOM      1  C   UNL     1       7.711   7.434  18.010  0.00  0.00    +0.000 A 
ATOM      2  N   UNL     1       8.599   8.095  18.721  0.00  0.00    +0.000 NA
ATOM      3  C   UNL     1       8.521   9.381  18.251  0.00  0.00    +0.000 A 
ATOM      4  N   UNL     1       7.606   9.539  17.282  0.00  0.00    +0.000 NA
ATOM      5  O   UNL     1       7.078   8.270  17.112  0.00  0.00    +0.000 OA
ENDROOT
BRANCH   3   6
ATOM      6  C   UNL     1       9.363  10.454  18.741  0.00  0.00    +0.000 A 
ATOM      7  C   UNL     1       9.428  10.740  20.113  0.00  0.00    +0.000 A 
ATOM      8  C   UNL     1      10.231  11.783  20.570  0.00  0.00    +0.000 A 
ATOM      9  C   UNL     1      10.993  12.543  19.681  0.00  0.00    +0.000 A 
ATOM     10  C   UNL     1      10.924  12.271  18.312  0.00  0.00    +0.000 A 
ATOM     11  C   UNL     1      10.120  11.227  17.849  0.00  0.00    +0.000 A 
BRANCH   9  12
ATOM     12  O   UNL     1      11.726  13.542  20.257  0.00  0.00    +0.000 OA
ATOM     13  C   UNL     1      11.188  14.855  20.146  0.00  0.00    +0.000 C 
ENDBRANCH   9  12
ENDBRANCH   3   6
BRANCH   1  15
ATOM     14  C   UNL     1       7.875   5.382  19.181  0.00  0.00    +0.000 C 
ATOM     15  C   UNL     1       7.394   6.037  18.101  0.00  0.00    +0.000 C 
BRANCH  15  16
ATOM     16  C   UNL     1       6.588   5.274  17.060  0.00  0.00    +0.000 C 
BRANCH  16  17
ATOM     17  C   UNL     1       5.112   5.088  17.384  0.00  0.00    +0.000 A 
ATOM     18  C   UNL     1       4.296   6.140  17.823  0.00  0.00    +0.000 A 
ATOM     19  C   UNL     1       2.932   5.954  18.036  0.00  0.00    +0.000 A 
ATOM     20  C   UNL     1       2.356   4.708  17.815  0.00  0.00    +0.000 A 
ATOM     21  C   UNL     1       3.146   3.645  17.378  0.00  0.00    +0.000 A 
ATOM     22  C   UNL     1       4.513   3.832  17.163  0.00  0.00    +0.000 A 
ENDBRANCH  16  17
BRANCH  16  23
ATOM     23  O   UNL     1       7.195   4.012  16.781  0.00  0.00    +0.000 OA
ATOM     24  H   UNL     1       7.994   3.940  17.331  0.00  0.00    +0.000 HD
ENDBRANCH  16  23
ENDBRANCH  15  16
ENDBRANCH   1  15
TORSDOF 6
ENDMDL
MODEL 8
REMARK VINA RESULT:      -7.5      5.034      6.922
REMARK  Name = 
REMARK  7 active torsions:
REMARK  status: ('A' for Active; 'I' for Inactive)
REMARK    1  A    between atoms: C_2  and  C_3
REMARK    2  A    between atoms: C_2  and  C_16
REMARK    3  A    between atoms: C_5  and  C_6
REMARK    4  A    between atoms: C_9  and  O_10
REMARK    5  A    between atoms: O_10  and  C_11
REMARK    6  A    between atoms: C_16  and  O_17
REMARK    7  A    between atoms: C_16  and  C_18
REMARK                            x       y       z     vdW  Elec       q    Type
REMARK                         _______ _______ _______ _____ _____    ______ ____
ROOT
ATOM      1  C   UNL     1       6.996   6.748  17.375  0.00  0.00    +0.000 A 
ATOM      2  N   UNL     1       7.165   8.043  17.209  0.00  0.00    +0.000 NA
ATOM      3  C   UNL     1       8.102   8.388  18.148  0.00  0.00    +0.000 A 
ATOM      4  N   UNL     1       8.527   7.347  18.883  0.00  0.00    +0.000 NA
ATOM      5  O   UNL     1       7.804   6.274  18.390  0.00  0.00    +0.000 OA
ENDROOT
BRANCH   3   6
ATOM      6  C   UNL     1       8.566   9.747  18.341  0.00  0.00    +0.000 A 
ATOM      7  C   UNL     1       9.448  10.057  19.388  0.00  0.00    +0.000 A 
ATOM      8  C   UNL     1       9.877  11.370  19.571  0.00  0.00    +0.000 A 
ATOM      9  C   UNL     1       9.456  12.387  18.713  0.00  0.00    +0.000 A 
ATOM     10  C   UNL     1       8.570  12.087  17.676  0.00  0.00    +0.000 A 
ATOM     11  C   UNL     1       8.137  10.772  17.488  0.00  0.00    +0.000 A 
BRANCH   9  12
ATOM     12  O   UNL     1       9.940  13.630  19.010  0.00  0.00    +0.000 OA
ATOM     13  C   UNL     1      10.025  14.544  17.922  0.00  0.00    +0.000 C 
ENDBRANCH   9  12
ENDBRANCH   3   6
BRANCH   1  15
ATOM     14  C   UNL     1       5.612   6.384  15.490  0.00  0.00    +0.000 C 
ATOM     15  C   UNL     1       6.112   5.887  16.643  0.00  0.00    +0.000 C 
BRANCH  15  16
ATOM     16  C   UNL     1       5.704   4.494  17.098  0.00  0.00    +0.000 C 
BRANCH  16  17
ATOM     17  C   UNL     1       4.239   4.337  17.485  0.00  0.00    +0.000 A 
ATOM     18  C   UNL     1       3.453   5.413  17.918  0.00  0.00    +0.000 A 
ATOM     19  C   UNL     1       2.096   5.251  18.190  0.00  0.00    +0.000 A 
ATOM     20  C   UNL     1       1.498   4.004  18.035  0.00  0.00    +0.000 A 
ATOM     21  C   UNL     1       2.260   2.918  17.606  0.00  0.00    +0.000 A 
ATOM     22  C   UNL     1       3.619   3.081  17.332  0.00  0.00    +0.000 A 
ENDBRANCH  16  17
BRANCH  16  23
ATOM     23  O   UNL     1       6.546   4.046  18.160  0.00  0.00    +0.000 OA
ATOM     24  H   UNL     1       7.468   4.128  17.862  0.00  0.00    +0.000 HD
ENDBRANCH  16  23
ENDBRANCH  15  16
ENDBRANCH   1  15
TORSDOF 6
ENDMDL
MODEL 9
REMARK VINA RESULT:      -7.5      5.011      6.933
REMARK  Name = 
REMARK  7 active torsions:
REMARK  status: ('A' for Active; 'I' for Inactive)
REMARK    1  A    between atoms: C_2  and  C_3
REMARK    2  A    between atoms: C_2  and  C_16
REMARK    3  A    between atoms: C_5  and  C_6
REMARK    4  A    between atoms: C_9  and  O_10
REMARK    5  A    between atoms: O_10  and  C_11
REMARK    6  A    between atoms: C_16  and  O_17
REMARK    7  A    between atoms: C_16  and  C_18
REMARK                            x       y       z     vdW  Elec       q    Type
REMARK                         _______ _______ _______ _____ _____    ______ ____
ROOT
ATOM      1  C   UNL     1       6.811   6.785  17.413  0.00  0.00    +0.000 A 
ATOM      2  N   UNL     1       7.014   8.078  17.273  0.00  0.00    +0.000 NA
ATOM      3  C   UNL     1       8.032   8.359  18.148  0.00  0.00    +0.000 A 
ATOM      4  N   UNL     1       8.473   7.281  18.814  0.00  0.00    +0.000 NA
ATOM      5  O   UNL     1       7.676   6.250  18.347  0.00  0.00    +0.000 OA
ENDROOT
BRANCH   3   6
ATOM      6  C   UNL     1       8.558   9.695  18.346  0.00  0.00    +0.000 A 
ATOM      7  C   UNL     1       8.151  10.752  17.517  0.00  0.00    +0.000 A 
ATOM      8  C   UNL     1       8.675  12.029  17.709  0.00  0.00    +0.000 A 
ATOM      9  C   UNL     1       9.591  12.281  18.732  0.00  0.00    +0.000 A 
ATOM     10  C   UNL     1      10.010  11.231  19.552  0.00  0.00    +0.000 A 
ATOM     11  C   UNL     1       9.488   9.949  19.364  0.00  0.00    +0.000 A 
BRANCH   9  12
ATOM     12  O   UNL     1      10.036  13.571  18.803  0.00  0.00    +0.000 OA
ATOM     13  C   UNL     1      11.040  13.832  19.776  0.00  0.00    +0.000 C 
ENDBRANCH   9  12
ENDBRANCH   3   6
BRANCH   1  15
ATOM     14  C   UNL     1       5.308   6.514  15.604  0.00  0.00    +0.000 C 
ATOM     15  C   UNL     1       5.843   5.980  16.725  0.00  0.00    +0.000 C 
BRANCH  15  16
ATOM     16  C   UNL     1       5.384   4.607  17.194  0.00  0.00    +0.000 C 
BRANCH  16  17
ATOM     17  C   UNL     1       4.032   4.575  17.894  0.00  0.00    +0.000 A 
ATOM     18  C   UNL     1       2.936   3.864  17.387  0.00  0.00    +0.000 A 
ATOM     19  C   UNL     1       1.736   3.790  18.092  0.00  0.00    +0.000 A 
ATOM     20  C   UNL     1       1.609   4.430  19.320  0.00  0.00    +0.000 A 
ATOM     21  C   UNL     1       2.686   5.144  19.846  0.00  0.00    +0.000 A 
ATOM     22  C   UNL     1       3.888   5.216  19.141  0.00  0.00    +0.000 A 
ENDBRANCH  16  17
BRANCH  16  23
ATOM     23  O   UNL     1       6.380   3.998  18.015  0.00  0.00    +0.000 OA
ATOM     24  H   UNL     1       7.206   3.965  17.503  0.00  0.00    +0.000 HD
ENDBRANCH  16  23
ENDBRANCH  15  16
ENDBRANCH   1  15
TORSDOF 6
ENDMDL
