MODEL 1
REMARK VINA RESULT:      -7.3      0.000      0.000
REMARK  Name = 
REMARK  16 active torsions:
REMARK  status: ('A' for Active; 'I' for Inactive)
REMARK    1  A    between atoms: C_1  and  C_2
REMARK    2  A    between atoms: C_2  and  C_3
REMARK    3  A    between atoms: C_3  and  C_4
REMARK    4  A    between atoms: C_4  and  C_5
REMARK    5  A    between atoms: C_5  and  C_6
REMARK    6  A    between atoms: C_6  and  C_7
REMARK    7  A    between atoms: C_7  and  C_8
REMARK    8  A    between atoms: C_8  and  N_9
REMARK    9  A    between atoms: N_9  and  C_10
REMARK   10  A    between atoms: N_9  and  C_11
REMARK   11  A    between atoms: N_9  and  C_12
REMARK   12  A    between atoms: C_12  and  C_13
REMARK   13  A    between atoms: N_15  and  C_16
REMARK   14  A    between atoms: C_19  and  C_20
REMARK   15  A    between atoms: C_20  and  C_22
REMARK   16  A    between atoms: C_23  and  C_24
REMARK                            x       y       z     vdW  Elec       q    Type
REMARK                         _______ _______ _______ _____ _____    ______ ____
ROOT
ATOM      1  C   UNL     1       1.797   6.830  20.576  0.00  0.00    +0.000 A 
ATOM      2  C   UNL     1       2.208   7.559  19.452  0.00  0.00    +0.000 A 
ATOM      3  C   UNL     1       1.775   8.876  19.266  0.00  0.00    +0.000 A 
ATOM      4  C   UNL     1       0.946   9.487  20.216  0.00  0.00    +0.000 A 
ATOM      5  C   UNL     1       0.525   8.751  21.331  0.00  0.00    +0.000 A 
ATOM      6  C   UNL     1       0.931   7.417  21.491  0.00  0.00    +0.000 A 
ENDROOT
BRANCH   1   9
ATOM      7  C   UNL     1       1.913   4.473  20.007  0.00  0.00    +0.000 C 
ATOM      8  O   UNL     1       1.194   4.612  19.016  0.00  0.00    +0.000 OA
ATOM      9  N   UNL     1       2.284   5.517  20.819  0.00  0.00    +0.000 N 
ATOM     10  H   UNL     1       3.170   5.429  21.299  0.00  0.00    +0.000 HD
BRANCH   7  11
ATOM     11  C   UNL     1       2.531   3.101  20.345  0.00  0.00    +0.000 C 
BRANCH  11  12
ATOM     12  N   UNL     1       3.811   2.720  19.506  0.00  0.00    +0.000 N 
ATOM     13  C   UNL     1       3.356   2.031  18.225  0.00  0.00    +0.000 C 
ATOM     14  C   UNL     1       4.696   1.778  20.332  0.00  0.00    +0.000 C 
BRANCH  12  15
ATOM     15  C   UNL     1       4.589   4.015  19.193  0.00  0.00    +0.000 C 
BRANCH  15  16
ATOM     16  C   UNL     1       4.780   4.211  17.687  0.00  0.00    +0.000 C 
BRANCH  16  17
ATOM     17  C   UNL     1       4.094   5.457  17.143  0.00  0.00    +0.000 C 
BRANCH  17  18
ATOM     18  C   UNL     1       5.152   6.351  16.496  0.00  0.00    +0.000 C 
BRANCH  18  19
ATOM     19  C   UNL     1       6.548   5.772  16.674  0.00  0.00    +0.000 C 
BRANCH  19  20
ATOM     20  C   UNL     1       7.563   6.882  16.931  0.00  0.00    +0.000 C 
BRANCH  20  22
ATOM     21  C   UNL     1       7.879   5.695  19.121  0.00  0.00    +0.000 C 
ATOM     22  C   UNL     1       7.804   7.044  18.428  0.00  0.00    +0.000 C 
ENDBRANCH  20  22
ENDBRANCH  19  20
ENDBRANCH  18  19
ENDBRANCH  17  18
ENDBRANCH  16  17
ENDBRANCH  15  16
ENDBRANCH  12  15
ENDBRANCH  11  12
ENDBRANCH   7  11
ENDBRANCH   1   9
BRANCH   4  23
ATOM     23  C   UNL     1       0.520  10.893  19.974  0.00  0.00    +0.000 C 
ATOM     24  O   UNL     1       1.137  11.812  20.500  0.00  0.00    +0.000 OA
BRANCH  23  25
ATOM     25  C   UNL     1      -0.692  11.129  19.140  0.00  0.00    +0.000 C 
ATOM     26  C   UNL     1      -1.103  10.183  18.278  0.00  0.00    +0.000 C 
BRANCH  26  27
ATOM     27  C   UNL     1      -2.222  10.344  17.335  0.00  0.00    +0.000 A 
ATOM     28  C   UNL     1      -2.145   9.745  16.069  0.00  0.00    +0.000 A 
ATOM     29  C   UNL     1      -3.144   9.958  15.114  0.00  0.00    +0.000 A 
ATOM     30  C   UNL     1      -4.234  10.777  15.414  0.00  0.00    +0.000 A 
ATOM     31  C   UNL     1      -4.319  11.372  16.669  0.00  0.00    +0.000 A 
ATOM     32 CL   UNL     1      -5.653  12.393  17.044  0.00  0.00    +0.000 Cl
ATOM     33  C   UNL     1      -3.321  11.164  17.623  0.00  0.00    +0.000 A 
ENDBRANCH  26  27
ENDBRANCH  23  25
ENDBRANCH   4  23
TORSDOF 13
ENDMDL
MODEL 2
REMARK VINA RESULT:      -7.0      0.999      1.561
REMARK  Name = 
REMARK  16 active torsions:
REMARK  status: ('A' for Active; 'I' for Inactive)
REMARK    1  A    between atoms: C_1  and  C_2
REMARK    2  A    between atoms: C_2  and  C_3
REMARK    3  A    between atoms: C_3  and  C_4
REMARK    4  A    between atoms: C_4  and  C_5
REMARK    5  A    between atoms: C_5  and  C_6
REMARK    6  A    between atoms: C_6  and  C_7
REMARK    7  A    between atoms: C_7  and  C_8
REMARK    8  A    between atoms: C_8  and  N_9
REMARK    9  A    between atoms: N_9  and  C_10
REMARK   10  A    between atoms: N_9  and  C_11
REMARK   11  A    between atoms: N_9  and  C_12
REMARK   12  A    between atoms: C_12  and  C_13
REMARK   13  A    between atoms: N_15  and  C_16
REMARK   14  A    between atoms: C_19  and  C_20
REMARK   15  A    between atoms: C_20  and  C_22
REMARK   16  A    between atoms: C_23  and  C_24
REMARK                            x       y       z     vdW  Elec       q    Type
REMARK                         _______ _______ _______ _____ _____    ______ ____
ROOT
ATOM      1  C   UNL     1       2.246   7.032  20.038  0.00  0.00    +0.000 A 
ATOM      2  C   UNL     1       1.765   7.485  21.273  0.00  0.00    +0.000 A 
ATOM      3  C   UNL     1       1.160   8.743  21.377  0.00  0.00    +0.000 A 
ATOM      4  C   UNL     1       1.007   9.549  20.242  0.00  0.00    +0.000 A 
ATOM      5  C   UNL     1       1.503   9.099  19.012  0.00  0.00    +0.000 A 
ATOM      6  C   UNL     1       2.144   7.854  18.922  0.00  0.00    +0.000 A 
ENDROOT
BRANCH   1   9
ATOM      7  C   UNL     1       2.037   4.617  20.166  0.00  0.00    +0.000 C 
ATOM      8  O   UNL     1       0.850   4.674  20.490  0.00  0.00    +0.000 OA
ATOM      9  N   UNL     1       2.797   5.729  19.897  0.00  0.00    +0.000 N 
ATOM     10  H   UNL     1       3.561   5.613  19.245  0.00  0.00    +0.000 HD
BRANCH   7  11
ATOM     11  C   UNL     1       2.728   3.256  19.946  0.00  0.00    +0.000 C 
BRANCH  11  12
ATOM     12  N   UNL     1       3.253   3.004  18.480  0.00  0.00    +0.000 N 
ATOM     13  C   UNL     1       2.176   3.458  17.502  0.00  0.00    +0.000 C 
ATOM     14  C   UNL     1       3.542   1.508  18.295  0.00  0.00    +0.000 C 
BRANCH  12  15
ATOM     15  C   UNL     1       4.555   3.807  18.285  0.00  0.00    +0.000 C 
BRANCH  15  16
ATOM     16  C   UNL     1       4.975   3.857  16.814  0.00  0.00    +0.000 C 
BRANCH  16  17
ATOM     17  C   UNL     1       6.345   4.482  16.592  0.00  0.00    +0.000 C 
BRANCH  17  18
ATOM     18  C   UNL     1       7.095   4.495  17.925  0.00  0.00    +0.000 C 
BRANCH  18  19
ATOM     19  C   UNL     1       7.670   5.872  18.222  0.00  0.00    +0.000 C 
BRANCH  19  20
ATOM     20  C   UNL     1       7.282   6.865  17.131  0.00  0.00    +0.000 C 
BRANCH  20  22
ATOM     21  C   UNL     1       8.339   8.883  18.188  0.00  0.00    +0.000 C 
ATOM     22  C   UNL     1       7.039   8.245  17.732  0.00  0.00    +0.000 C 
ENDBRANCH  20  22
ENDBRANCH  19  20
ENDBRANCH  18  19
ENDBRANCH  17  18
ENDBRANCH  16  17
ENDBRANCH  15  16
ENDBRANCH  12  15
ENDBRANCH  11  12
ENDBRANCH   7  11
ENDBRANCH   1   9
BRANCH   4  23
ATOM     23  C   UNL     1       0.350  10.875  20.407  0.00  0.00    +0.000 C 
ATOM     24  O   UNL     1       0.619  11.568  21.381  0.00  0.00    +0.000 OA
BRANCH  23  25
ATOM     25  C   UNL     1      -0.670  11.286  19.401  0.00  0.00    +0.000 C 
ATOM     26  C   UNL     1      -1.528  10.376  18.910  0.00  0.00    +0.000 C 
BRANCH  26  27
ATOM     27  C   UNL     1      -2.507  10.643  17.843  0.00  0.00    +0.000 A 
ATOM     28  C   UNL     1      -2.218  10.244  16.530  0.00  0.00    +0.000 A 
ATOM     29  C   UNL     1      -3.079  10.567  15.478  0.00  0.00    +0.000 A 
ATOM     30  C   UNL     1      -4.242  11.299  15.725  0.00  0.00    +0.000 A 
ATOM     31  C   UNL     1      -4.537  11.696  17.026  0.00  0.00    +0.000 A 
ATOM     32 CL   UNL     1      -5.962  12.609  17.340  0.00  0.00    +0.000 Cl
ATOM     33  C   UNL     1      -3.677  11.377  18.079  0.00  0.00    +0.000 A 
ENDBRANCH  26  27
ENDBRANCH  23  25
ENDBRANCH   4  23
TORSDOF 13
ENDMDL
MODEL 3
REMARK VINA RESULT:      -7.0      3.392      4.465
REMARK  Name = 
REMARK  16 active torsions:
REMARK  status: ('A' for Active; 'I' for Inactive)
REMARK    1  A    between atoms: C_1  and  C_2
REMARK    2  A    between atoms: C_2  and  C_3
REMARK    3  A    between atoms: C_3  and  C_4
REMARK    4  A    between atoms: C_4  and  C_5
REMARK    5  A    between atoms: C_5  and  C_6
REMARK    6  A    between atoms: C_6  and  C_7
REMARK    7  A    between atoms: C_7  and  C_8
REMARK    8  A    between atoms: C_8  and  N_9
REMARK    9  A    between atoms: N_9  and  C_10
REMARK   10  A    between atoms: N_9  and  C_11
REMARK   11  A    between atoms: N_9  and  C_12
REMARK   12  A    between atoms: C_12  and  C_13
REMARK   13  A    between atoms: N_15  and  C_16
REMARK   14  A    between atoms: C_19  and  C_20
REMARK   15  A    between atoms: C_20  and  C_22
REMARK   16  A    between atoms: C_23  and  C_24
REMARK                            x       y       z     vdW  Elec       q    Type
REMARK                         _______ _______ _______ _____ _____    ______ ____
ROOT
ATOM      1  C   UNL     1       1.782   7.801  20.062  0.00  0.00    +0.000 A 
ATOM      2  C   UNL     1       1.801   8.350  18.773  0.00  0.00    +0.000 A 
ATOM      3  C   UNL     1       1.088   9.521  18.492  0.00  0.00    +0.000 A 
ATOM      4  C   UNL     1       0.369  10.169  19.505  0.00  0.00    +0.000 A 
ATOM      5  C   UNL     1       0.340   9.609  20.788  0.00  0.00    +0.000 A 
ATOM      6  C   UNL     1       1.025   8.414  21.054  0.00  0.00    +0.000 A 
ENDROOT
BRANCH   1   9
ATOM      7  C   UNL     1       1.960   5.427  20.533  0.00  0.00    +0.000 C 
ATOM      8  O   UNL     1       0.756   5.237  20.355  0.00  0.00    +0.000 OA
ATOM      9  N   UNL     1       2.558   6.655  20.384  0.00  0.00    +0.000 N 
ATOM     10  H   UNL     1       3.532   6.658  20.112  0.00  0.00    +0.000 HD
BRANCH   7  11
ATOM     11  C   UNL     1       2.905   4.248  20.848  0.00  0.00    +0.000 C 
BRANCH  11  12
ATOM     12  N   UNL     1       3.110   3.224  19.667  0.00  0.00    +0.000 N 
ATOM     13  C   UNL     1       1.885   2.321  19.598  0.00  0.00    +0.000 C 
ATOM     14  C   UNL     1       4.371   2.390  19.933  0.00  0.00    +0.000 C 
BRANCH  12  15
ATOM     15  C   UNL     1       3.287   4.021  18.358  0.00  0.00    +0.000 C 
BRANCH  15  16
ATOM     16  C   UNL     1       4.672   3.800  17.743  0.00  0.00    +0.000 C 
BRANCH  16  17
ATOM     17  C   UNL     1       4.762   4.211  16.280  0.00  0.00    +0.000 C 
BRANCH  17  18
ATOM     18  C   UNL     1       6.228   4.158  15.850  0.00  0.00    +0.000 C 
BRANCH  18  19
ATOM     19  C   UNL     1       7.143   4.709  16.935  0.00  0.00    +0.000 C 
BRANCH  19  20
ATOM     20  C   UNL     1       7.264   6.225  16.819  0.00  0.00    +0.000 C 
BRANCH  20  22
ATOM     21  C   UNL     1       7.752   5.771  19.241  0.00  0.00    +0.000 C 
ATOM     22  C   UNL     1       7.717   6.823  18.147  0.00  0.00    +0.000 C 
ENDBRANCH  20  22
ENDBRANCH  19  20
ENDBRANCH  18  19
ENDBRANCH  17  18
ENDBRANCH  16  17
ENDBRANCH  15  16
ENDBRANCH  12  15
ENDBRANCH  11  12
ENDBRANCH   7  11
ENDBRANCH   1   9
BRANCH   4  23
ATOM     23  C   UNL     1      -0.366  11.415  19.154  0.00  0.00    +0.000 C 
ATOM     24  O   UNL     1      -1.587  11.448  19.255  0.00  0.00    +0.000 OA
BRANCH  23  25
ATOM     25  C   UNL     1       0.415  12.571  18.629  0.00  0.00    +0.000 C 
ATOM     26  C   UNL     1       1.613  12.864  19.163  0.00  0.00    +0.000 C 
BRANCH  26  27
ATOM     27  C   UNL     1       2.425  14.035  18.796  0.00  0.00    +0.000 A 
ATOM     28  C   UNL     1       1.802  15.282  18.638  0.00  0.00    +0.000 A 
ATOM     29  C   UNL     1       2.525  16.393  18.196  0.00  0.00    +0.000 A 
ATOM     30  C   UNL     1       3.884  16.271  17.901  0.00  0.00    +0.000 A 
ATOM     31  C   UNL     1       4.510  15.039  18.059  0.00  0.00    +0.000 A 
ATOM     32 CL   UNL     1       6.183  14.875  17.687  0.00  0.00    +0.000 Cl
ATOM     33  C   UNL     1       3.791  13.926  18.497  0.00  0.00    +0.000 A 
ENDBRANCH  26  27
ENDBRANCH  23  25
ENDBRANCH   4  23
TORSDOF 13
ENDMDL
MODEL 4
REMARK VINA RESULT:      -7.0      1.301      2.161
REMARK  Name = 
REMARK  16 active torsions:
REMARK  status: ('A' for Active; 'I' for Inactive)
REMARK    1  A    between atoms: C_1  and  C_2
REMARK    2  A    between atoms: C_2  and  C_3
REMARK    3  A    between atoms: C_3  and  C_4
REMARK    4  A    between atoms: C_4  and  C_5
REMARK    5  A    between atoms: C_5  and  C_6
REMARK    6  A    between atoms: C_6  and  C_7
REMARK    7  A    between atoms: C_7  and  C_8
REMARK    8  A    between atoms: C_8  and  N_9
REMARK    9  A    between atoms: N_9  and  C_10
REMARK   10  A    between atoms: N_9  and  C_11
REMARK   11  A    between atoms: N_9  and  C_12
REMARK   12  A    between atoms: C_12  and  C_13
REMARK   13  A    between atoms: N_15  and  C_16
REMARK   14  A    between atoms: C_19  and  C_20
REMARK   15  A    between atoms: C_20  and  C_22
REMARK   16  A    between atoms: C_23  and  C_24
REMARK                            x       y       z     vdW  Elec       q    Type
REMARK                         _______ _______ _______ _____ _____    ______ ____
ROOT
ATOM      1  C   UNL     1       2.184   6.791  19.811  0.00  0.00    +0.000 A 
ATOM      2  C   UNL     1       1.456   7.594  20.699  0.00  0.00    +0.000 A 
ATOM      3  C   UNL     1       1.092   8.896  20.339  0.00  0.00    +0.000 A 
ATOM      4  C   UNL     1       1.429   9.400  19.076  0.00  0.00    +0.000 A 
ATOM      5  C   UNL     1       2.169   8.600  18.196  0.00  0.00    +0.000 A 
ATOM      6  C   UNL     1       2.565   7.309  18.578  0.00  0.00    +0.000 A 
ENDROOT
BRANCH   1   9
ATOM      7  C   UNL     1       1.934   4.408  19.425  0.00  0.00    +0.000 C 
ATOM      8  O   UNL     1       1.175   4.578  18.469  0.00  0.00    +0.000 OA
ATOM      9  N   UNL     1       2.500   5.443  20.129  0.00  0.00    +0.000 N 
ATOM     10  H   UNL     1       3.395   5.263  20.564  0.00  0.00    +0.000 HD
BRANCH   7  11
ATOM     11  C   UNL     1       2.376   2.988  19.835  0.00  0.00    +0.000 C 
BRANCH  11  12
ATOM     12  N   UNL     1       3.764   2.526  19.245  0.00  0.00    +0.000 N 
ATOM     13  C   UNL     1       3.525   1.306  18.362  0.00  0.00    +0.000 C 
ATOM     14  C   UNL     1       4.712   2.170  20.398  0.00  0.00    +0.000 C 
BRANCH  12  15
ATOM     15  C   UNL     1       4.359   3.693  18.431  0.00  0.00    +0.000 C 
BRANCH  15  16
ATOM     16  C   UNL     1       5.823   3.950  18.798  0.00  0.00    +0.000 C 
BRANCH  16  17
ATOM     17  C   UNL     1       6.060   5.311  19.438  0.00  0.00    +0.000 C 
BRANCH  17  18
ATOM     18  C   UNL     1       7.322   5.922  18.827  0.00  0.00    +0.000 C 
BRANCH  18  19
ATOM     19  C   UNL     1       7.227   5.982  17.309  0.00  0.00    +0.000 C 
BRANCH  19  20
ATOM     20  C   UNL     1       6.274   7.090  16.872  0.00  0.00    +0.000 C 
BRANCH  20  22
ATOM     21  C   UNL     1       5.545   5.435  15.129  0.00  0.00    +0.000 C 
ATOM     22  C   UNL     1       5.092   6.503  16.109  0.00  0.00    +0.000 C 
ENDBRANCH  20  22
ENDBRANCH  19  20
ENDBRANCH  18  19
ENDBRANCH  17  18
ENDBRANCH  16  17
ENDBRANCH  15  16
ENDBRANCH  12  15
ENDBRANCH  11  12
ENDBRANCH   7  11
ENDBRANCH   1   9
BRANCH   4  23
ATOM     23  C   UNL     1       1.010  10.788  18.740  0.00  0.00    +0.000 C 
ATOM     24  O   UNL     1       1.844  11.595  18.348  0.00  0.00    +0.000 OA
BRANCH  23  25
ATOM     25  C   UNL     1      -0.415  11.167  18.957  0.00  0.00    +0.000 C 
ATOM     26  C   UNL     1      -1.339  10.838  18.038  0.00  0.00    +0.000 C 
BRANCH  26  27
ATOM     27  C   UNL     1      -2.753  11.244  18.096  0.00  0.00    +0.000 A 
ATOM     28  C   UNL     1      -3.537  11.171  16.935  0.00  0.00    +0.000 A 
ATOM     29  C   UNL     1      -4.854  11.640  16.929  0.00  0.00    +0.000 A 
ATOM     30  C   UNL     1      -5.404  12.193  18.087  0.00  0.00    +0.000 A 
ATOM     31  C   UNL     1      -4.634  12.266  19.243  0.00  0.00    +0.000 A 
ATOM     32 CL   UNL     1      -5.300  12.956  20.672  0.00  0.00    +0.000 Cl
ATOM     33  C   UNL     1      -3.318  11.801  19.251  0.00  0.00    +0.000 A 
ENDBRANCH  26  27
ENDBRANCH  23  25
ENDBRANCH   4  23
TORSDOF 13
ENDMDL
MODEL 5
REMARK VINA RESULT:      -6.9      2.311      3.091
REMARK  Name = 
REMARK  16 active torsions:
REMARK  status: ('A' for Active; 'I' for Inactive)
REMARK    1  A    between atoms: C_1  and  C_2
REMARK    2  A    between atoms: C_2  and  C_3
REMARK    3  A    between atoms: C_3  and  C_4
REMARK    4  A    between atoms: C_4  and  C_5
REMARK    5  A    between atoms: C_5  and  C_6
REMARK    6  A    between atoms: C_6  and  C_7
REMARK    7  A    between atoms: C_7  and  C_8
REMARK    8  A    between atoms: C_8  and  N_9
REMARK    9  A    between atoms: N_9  and  C_10
REMARK   10  A    between atoms: N_9  and  C_11
REMARK   11  A    between atoms: N_9  and  C_12
REMARK   12  A    between atoms: C_12  and  C_13
REMARK   13  A    between atoms: N_15  and  C_16
REMARK   14  A    between atoms: C_19  and  C_20
REMARK   15  A    between atoms: C_20  and  C_22
REMARK   16  A    between atoms: C_23  and  C_24
REMARK                            x       y       z     vdW  Elec       q    Type
REMARK                         _______ _______ _______ _____ _____    ______ ____
ROOT
ATOM      1  C   UNL     1       2.389   7.340  19.526  0.00  0.00    +0.000 A 
ATOM      2  C   UNL     1       2.069   8.334  18.592  0.00  0.00    +0.000 A 
ATOM      3  C   UNL     1       1.259   9.414  18.958  0.00  0.00    +0.000 A 
ATOM      4  C   UNL     1       0.781   9.525  20.271  0.00  0.00    +0.000 A 
ATOM      5  C   UNL     1       1.091   8.522  21.198  0.00  0.00    +0.000 A 
ATOM      6  C   UNL     1       1.871   7.421  20.813  0.00  0.00    +0.000 A 
ENDROOT
BRANCH   1   9
ATOM      7  C   UNL     1       3.076   5.020  19.717  0.00  0.00    +0.000 C 
ATOM      8  O   UNL     1       2.127   4.734  20.450  0.00  0.00    +0.000 OA
ATOM      9  N   UNL     1       3.269   6.275  19.193  0.00  0.00    +0.000 N 
ATOM     10  H   UNL     1       3.755   6.330  18.308  0.00  0.00    +0.000 HD
BRANCH   7  11
ATOM     11  C   UNL     1       4.071   3.934  19.259  0.00  0.00    +0.000 C 
BRANCH  11  12
ATOM     12  N   UNL     1       3.605   3.083  18.016  0.00  0.00    +0.000 N 
ATOM     13  C   UNL     1       2.238   3.591  17.575  0.00  0.00    +0.000 C 
ATOM     14  C   UNL     1       3.518   1.605  18.418  0.00  0.00    +0.000 C 
BRANCH  12  15
ATOM     15  C   UNL     1       4.649   3.251  16.894  0.00  0.00    +0.000 C 
BRANCH  15  16
ATOM     16  C   UNL     1       5.295   4.639  16.923  0.00  0.00    +0.000 C 
BRANCH  16  17
ATOM     17  C   UNL     1       5.743   5.131  15.554  0.00  0.00    +0.000 C 
BRANCH  17  18
ATOM     18  C   UNL     1       5.605   3.982  14.555  0.00  0.00    +0.000 C 
BRANCH  18  19
ATOM     19  C   UNL     1       6.692   4.040  13.492  0.00  0.00    +0.000 C 
BRANCH  19  20
ATOM     20  C   UNL     1       6.150   3.585  12.140  0.00  0.00    +0.000 C 
BRANCH  20  22
ATOM     21  C   UNL     1       3.988   3.353  10.883  0.00  0.00    +0.000 C 
ATOM     22  C   UNL     1       4.659   3.279  12.243  0.00  0.00    +0.000 C 
ENDBRANCH  20  22
ENDBRANCH  19  20
ENDBRANCH  18  19
ENDBRANCH  17  18
ENDBRANCH  16  17
ENDBRANCH  15  16
ENDBRANCH  12  15
ENDBRANCH  11  12
ENDBRANCH   7  11
ENDBRANCH   1   9
BRANCH   4  23
ATOM     23  C   UNL     1      -0.071  10.698  20.610  0.00  0.00    +0.000 C 
ATOM     24  O   UNL     1      -0.031  11.170  21.740  0.00  0.00    +0.000 OA
BRANCH  23  25
ATOM     25  C   UNL     1      -0.998  11.221  19.567  0.00  0.00    +0.000 C 
ATOM     26  C   UNL     1      -1.835  10.381  18.937  0.00  0.00    +0.000 C 
BRANCH  26  27
ATOM     27  C   UNL     1      -2.720  10.764  17.824  0.00  0.00    +0.000 A 
ATOM     28  C   UNL     1      -3.890  11.490  18.094  0.00  0.00    +0.000 A 
ATOM     29  C   UNL     1      -4.801  11.786  17.076  0.00  0.00    +0.000 A 
ATOM     30  C   UNL     1      -4.555  11.354  15.772  0.00  0.00    +0.000 A 
ATOM     31  C   UNL     1      -3.395  10.637  15.495  0.00  0.00    +0.000 A 
ATOM     32 CL   UNL     1      -3.089  10.091  13.891  0.00  0.00    +0.000 Cl
ATOM     33  C   UNL     1      -2.485  10.337  16.510  0.00  0.00    +0.000 A 
ENDBRANCH  26  27
ENDBRANCH  23  25
ENDBRANCH   4  23
TORSDOF 13
ENDMDL
MODEL 6
REMARK VINA RESULT:      -6.9      2.322      3.277
REMARK  Name = 
REMARK  16 active torsions:
REMARK  status: ('A' for Active; 'I' for Inactive)
REMARK    1  A    between atoms: C_1  and  C_2
REMARK    2  A    between atoms: C_2  and  C_3
REMARK    3  A    between atoms: C_3  and  C_4
REMARK    4  A    between atoms: C_4  and  C_5
REMARK    5  A    between atoms: C_5  and  C_6
REMARK    6  A    between atoms: C_6  and  C_7
REMARK    7  A    between atoms: C_7  and  C_8
REMARK    8  A    between atoms: C_8  and  N_9
REMARK    9  A    between atoms: N_9  and  C_10
REMARK   10  A    between atoms: N_9  and  C_11
REMARK   11  A    between atoms: N_9  and  C_12
REMARK   12  A    between atoms: C_12  and  C_13
REMARK   13  A    between atoms: N_15  and  C_16
REMARK   14  A    between atoms: C_19  and  C_20
REMARK   15  A    between atoms: C_20  and  C_22
REMARK   16  A    between atoms: C_23  and  C_24
REMARK                            x       y       z     vdW  Elec       q    Type
REMARK                         _______ _______ _______ _____ _____    ______ ____
ROOT
ATOM      1  C   UNL     1       2.068   7.542  19.884  0.00  0.00    +0.000 A 
ATOM      2  C   UNL     1       1.335   8.231  20.859  0.00  0.00    +0.000 A 
ATOM      3  C   UNL     1       0.679   9.425  20.539  0.00  0.00    +0.000 A 
ATOM      4  C   UNL     1       0.729   9.930  19.234  0.00  0.00    +0.000 A 
ATOM      5  C   UNL     1       1.475   9.247  18.265  0.00  0.00    +0.000 A 
ATOM      6  C   UNL     1       2.163   8.071  18.602  0.00  0.00    +0.000 A 
ENDROOT
BRANCH   1   9
ATOM      7  C   UNL     1       1.912   5.187  20.450  0.00  0.00    +0.000 C 
ATOM      8  O   UNL     1       0.680   5.198  20.422  0.00  0.00    +0.000 OA
ATOM      9  N   UNL     1       2.679   6.292  20.171  0.00  0.00    +0.000 N 
ATOM     10  H   UNL     1       3.600   6.123  19.787  0.00  0.00    +0.000 HD
BRANCH   7  11
ATOM     11  C   UNL     1       2.682   3.877  20.711  0.00  0.00    +0.000 C 
BRANCH  11  12
ATOM     12  N   UNL     1       3.042   3.045  19.420  0.00  0.00    +0.000 N 
ATOM     13  C   UNL     1       2.212   1.767  19.428  0.00  0.00    +0.000 C 
ATOM     14  C   UNL     1       4.538   2.707  19.436  0.00  0.00    +0.000 C 
BRANCH  12  15
ATOM     15  C   UNL     1       2.722   3.907  18.182  0.00  0.00    +0.000 C 
BRANCH  15  16
ATOM     16  C   UNL     1       3.924   4.014  17.240  0.00  0.00    +0.000 C 
BRANCH  16  17
ATOM     17  C   UNL     1       4.446   5.434  17.077  0.00  0.00    +0.000 C 
BRANCH  17  18
ATOM     18  C   UNL     1       5.702   5.393  16.204  0.00  0.00    +0.000 C 
BRANCH  18  19
ATOM     19  C   UNL     1       5.373   4.957  14.784  0.00  0.00    +0.000 C 
BRANCH  19  20
ATOM     20  C   UNL     1       6.315   3.846  14.330  0.00  0.00    +0.000 C 
BRANCH  20  22
ATOM     21  C   UNL     1       7.187   4.401  12.041  0.00  0.00    +0.000 C 
ATOM     22  C   UNL     1       6.166   3.603  12.832  0.00  0.00    +0.000 C 
ENDBRANCH  20  22
ENDBRANCH  19  20
ENDBRANCH  18  19
ENDBRANCH  17  18
ENDBRANCH  16  17
ENDBRANCH  15  16
ENDBRANCH  12  15
ENDBRANCH  11  12
ENDBRANCH   7  11
ENDBRANCH   1   9
BRANCH   4  23
ATOM     23  C   UNL     1       0.008  11.200  18.945  0.00  0.00    +0.000 C 
ATOM     24  O   UNL     1       0.640  12.191  18.602  0.00  0.00    +0.000 OA
BRANCH  23  25
ATOM     25  C   UNL     1      -1.469  11.234  19.147  0.00  0.00    +0.000 C 
ATOM     26  C   UNL     1      -2.046  12.335  19.657  0.00  0.00    +0.000 C 
BRANCH  26  27
ATOM     27  C   UNL     1      -3.475  12.446  19.994  0.00  0.00    +0.000 A 
ATOM     28  C   UNL     1      -3.849  12.774  21.305  0.00  0.00    +0.000 A 
ATOM     29  C   UNL     1      -5.195  12.793  21.683  0.00  0.00    +0.000 A 
ATOM     30  C   UNL     1      -6.187  12.479  20.753  0.00  0.00    +0.000 A 
ATOM     31  C   UNL     1      -5.824  12.156  19.449  0.00  0.00    +0.000 A 
ATOM     32 CL   UNL     1      -7.039  11.756  18.297  0.00  0.00    +0.000 Cl
ATOM     33  C   UNL     1      -4.481  12.133  19.069  0.00  0.00    +0.000 A 
ENDBRANCH  26  27
ENDBRANCH  23  25
ENDBRANCH   4  23
TORSDOF 13
ENDMDL
MODEL 7
REMARK VINA RESULT:      -6.8      2.000      3.923
REMARK  Name = 
REMARK  16 active torsions:
REMARK  status: ('A' for Active; 'I' for Inactive)
REMARK    1  A    between atoms: C_1  and  C_2
REMARK    2  A    between atoms: C_2  and  C_3
REMARK    3  A    between atoms: C_3  and  C_4
REMARK    4  A    between atoms: C_4  and  C_5
REMARK    5  A    between atoms: C_5  and  C_6
REMARK    6  A    between atoms: C_6  and  C_7
REMARK    7  A    between atoms: C_7  and  C_8
REMARK    8  A    between atoms: C_8  and  N_9
REMARK    9  A    between atoms: N_9  and  C_10
REMARK   10  A    between atoms: N_9  and  C_11
REMARK   11  A    between atoms: N_9  and  C_12
REMARK   12  A    between atoms: C_12  and  C_13
REMARK   13  A    between atoms: N_15  and  C_16
REMARK   14  A    between atoms: C_19  and  C_20
REMARK   15  A    between atoms: C_20  and  C_22
REMARK   16  A    between atoms: C_23  and  C_24
REMARK                            x       y       z     vdW  Elec       q    Type
REMARK                         _______ _______ _______ _____ _____    ______ ____
ROOT
ATOM      1  C   UNL     1       2.792   7.183  18.804  0.00  0.00    +0.000 A 
ATOM      2  C   UNL     1       2.542   8.257  17.939  0.00  0.00    +0.000 A 
ATOM      3  C   UNL     1       1.817   9.368  18.381  0.00  0.00    +0.000 A 
ATOM      4  C   UNL     1       1.355   9.430  19.702  0.00  0.00    +0.000 A 
ATOM      5  C   UNL     1       1.593   8.349  20.560  0.00  0.00    +0.000 A 
ATOM      6  C   UNL     1       2.287   7.220  20.099  0.00  0.00    +0.000 A 
ENDROOT
BRANCH   1   9
ATOM      7  C   UNL     1       4.899   6.262  18.030  0.00  0.00    +0.000 C 
ATOM      8  O   UNL     1       5.466   7.355  18.077  0.00  0.00    +0.000 OA
ATOM      9  N   UNL     1       3.588   6.080  18.396  0.00  0.00    +0.000 N 
ATOM     10  H   UNL     1       3.335   5.166  18.748  0.00  0.00    +0.000 HD
BRANCH   7  11
ATOM     11  C   UNL     1       5.676   4.988  17.639  0.00  0.00    +0.000 C 
BRANCH  11  12
ATOM     12  N   UNL     1       5.705   4.672  16.094  0.00  0.00    +0.000 N 
ATOM     13  C   UNL     1       7.122   4.256  15.717  0.00  0.00    +0.000 C 
ATOM     14  C   UNL     1       5.294   5.927  15.312  0.00  0.00    +0.000 C 
BRANCH  12  15
ATOM     15  C   UNL     1       4.699   3.537  15.812  0.00  0.00    +0.000 C 
BRANCH  15  16
ATOM     16  C   UNL     1       4.160   2.923  17.106  0.00  0.00    +0.000 C 
BRANCH  16  17
ATOM     17  C   UNL     1       2.643   2.983  17.223  0.00  0.00    +0.000 C 
BRANCH  17  18
ATOM     18  C   UNL     1       2.218   2.178  18.452  0.00  0.00    +0.000 C 
BRANCH  18  19
ATOM     19  C   UNL     1       0.828   2.580  18.923  0.00  0.00    +0.000 C 
BRANCH  19  20
ATOM     20  C   UNL     1       0.905   3.766  19.879  0.00  0.00    +0.000 C 
BRANCH  20  22
ATOM     21  C   UNL     1       1.646   2.579  21.964  0.00  0.00    +0.000 C 
ATOM     22  C   UNL     1       2.037   3.568  20.880  0.00  0.00    +0.000 C 
ENDBRANCH  20  22
ENDBRANCH  19  20
ENDBRANCH  18  19
ENDBRANCH  17  18
ENDBRANCH  16  17
ENDBRANCH  15  16
ENDBRANCH  12  15
ENDBRANCH  11  12
ENDBRANCH   7  11
ENDBRANCH   1   9
BRANCH   4  23
ATOM     23  C   UNL     1       0.595  10.639  20.123  0.00  0.00    +0.000 C 
ATOM     24  O   UNL     1       0.807  11.135  21.223  0.00  0.00    +0.000 OA
BRANCH  23  25
ATOM     25  C   UNL     1      -0.452  11.168  19.205  0.00  0.00    +0.000 C 
ATOM     26  C   UNL     1      -1.517  10.408  18.899  0.00  0.00    +0.000 C 
BRANCH  26  27
ATOM     27  C   UNL     1      -2.559  10.785  17.929  0.00  0.00    +0.000 A 
ATOM     28  C   UNL     1      -3.695  11.478  18.374  0.00  0.00    +0.000 A 
ATOM     29  C   UNL     1      -4.747  11.765  17.500  0.00  0.00    +0.000 A 
ATOM     30  C   UNL     1      -4.679  11.358  16.166  0.00  0.00    +0.000 A 
ATOM     31  C   UNL     1      -3.554  10.672  15.717  0.00  0.00    +0.000 A 
ATOM     32 CL   UNL     1      -3.466  10.156  14.077  0.00  0.00    +0.000 Cl
ATOM     33  C   UNL     1      -2.503  10.382  16.588  0.00  0.00    +0.000 A 
ENDBRANCH  26  27
ENDBRANCH  23  25
ENDBRANCH   4  23
TORSDOF 13
ENDMDL
MODEL 8
REMARK VINA RESULT:      -6.8      2.182      3.109
REMARK  Name = 
REMARK  16 active torsions:
REMARK  status: ('A' for Active; 'I' for Inactive)
REMARK    1  A    between atoms: C_1  and  C_2
REMARK    2  A    between atoms: C_2  and  C_3
REMARK    3  A    between atoms: C_3  and  C_4
REMARK    4  A    between atoms: C_4  and  C_5
REMARK    5  A    between atoms: C_5  and  C_6
REMARK    6  A    between atoms: C_6  and  C_7
REMARK    7  A    between atoms: C_7  and  C_8
REMARK    8  A    between atoms: C_8  and  N_9
REMARK    9  A    between atoms: N_9  and  C_10
REMARK   10  A    between atoms: N_9  and  C_11
REMARK   11  A    between atoms: N_9  and  C_12
REMARK   12  A    between atoms: C_12  and  C_13
REMARK   13  A    between atoms: N_15  and  C_16
REMARK   14  A    between atoms: C_19  and  C_20
REMARK   15  A    between atoms: C_20  and  C_22
REMARK   16  A    between atoms: C_23  and  C_24
REMARK                            x       y       z     vdW  Elec       q    Type
REMARK                         _______ _______ _______ _____ _____    ______ ____
ROOT
ATOM      1  C   UNL     1       2.066   7.096  20.022  0.00  0.00    +0.000 A 
ATOM      2  C   UNL     1       1.311   7.865  20.917  0.00  0.00    +0.000 A 
ATOM      3  C   UNL     1       0.865   9.140  20.552  0.00  0.00    +0.000 A 
ATOM      4  C   UNL     1       1.148   9.650  19.278  0.00  0.00    +0.000 A 
ATOM      5  C   UNL     1       1.916   8.884  18.391  0.00  0.00    +0.000 A 
ATOM      6  C   UNL     1       2.393   7.623  18.777  0.00  0.00    +0.000 A 
ENDROOT
BRANCH   1   9
ATOM      7  C   UNL     1       2.119   4.719  19.533  0.00  0.00    +0.000 C 
ATOM      8  O   UNL     1       1.500   4.858  18.477  0.00  0.00    +0.000 OA
ATOM      9  N   UNL     1       2.465   5.771  20.346  0.00  0.00    +0.000 N 
ATOM     10  H   UNL     1       3.299   5.659  20.908  0.00  0.00    +0.000 HD
BRANCH   7  11
ATOM     11  C   UNL     1       2.636   3.332  19.965  0.00  0.00    +0.000 C 
BRANCH  11  12
ATOM     12  N   UNL     1       3.936   2.842  19.218  0.00  0.00    +0.000 N 
ATOM     13  C   UNL     1       3.512   2.106  17.953  0.00  0.00    +0.000 C 
ATOM     14  C   UNL     1       4.727   1.903  20.140  0.00  0.00    +0.000 C 
BRANCH  12  15
ATOM     15  C   UNL     1       4.797   4.077  18.881  0.00  0.00    +0.000 C 
BRANCH  15  16
ATOM     16  C   UNL     1       5.480   3.936  17.518  0.00  0.00    +0.000 C 
BRANCH  16  17
ATOM     17  C   UNL     1       5.119   5.044  16.538  0.00  0.00    +0.000 C 
BRANCH  17  18
ATOM     18  C   UNL     1       5.223   4.488  15.117  0.00  0.00    +0.000 C 
BRANCH  18  19
ATOM     19  C   UNL     1       6.671   4.421  14.654  0.00  0.00    +0.000 C 
BRANCH  19  20
ATOM     20  C   UNL     1       6.745   4.209  13.145  0.00  0.00    +0.000 C 
BRANCH  20  22
ATOM     21  C   UNL     1       5.864   2.371  11.677  0.00  0.00    +0.000 C 
ATOM     22  C   UNL     1       5.501   3.479  12.650  0.00  0.00    +0.000 C 
ENDBRANCH  20  22
ENDBRANCH  19  20
ENDBRANCH  18  19
ENDBRANCH  17  18
ENDBRANCH  16  17
ENDBRANCH  15  16
ENDBRANCH  12  15
ENDBRANCH  11  12
ENDBRANCH   7  11
ENDBRANCH   1   9
BRANCH   4  23
ATOM     23  C   UNL     1       0.644  11.009  18.939  0.00  0.00    +0.000 C 
ATOM     24  O   UNL     1       1.343  11.767  18.277  0.00  0.00    +0.000 OA
BRANCH  23  25
ATOM     25  C   UNL     1      -0.683  11.423  19.476  0.00  0.00    +0.000 C 
ATOM     26  C   UNL     1      -1.748  11.473  18.658  0.00  0.00    +0.000 C 
BRANCH  26  27
ATOM     27  C   UNL     1      -3.080  11.962  19.052  0.00  0.00    +0.000 A 
ATOM     28  C   UNL     1      -3.205  12.780  20.184  0.00  0.00    +0.000 A 
ATOM     29  C   UNL     1      -4.462  13.181  20.643  0.00  0.00    +0.000 A 
ATOM     30  C   UNL     1      -5.615  12.766  19.975  0.00  0.00    +0.000 A 
ATOM     31  C   UNL     1      -5.499  11.958  18.848  0.00  0.00    +0.000 A 
ATOM     32 CL   UNL     1      -6.916  11.431  18.023  0.00  0.00    +0.000 Cl
ATOM     33  C   UNL     1      -4.245  11.552  18.389  0.00  0.00    +0.000 A 
ENDBRANCH  26  27
ENDBRANCH  23  25
ENDBRANCH   4  23
TORSDOF 13
ENDMDL
MODEL 9
REMARK VINA RESULT:      -6.8      3.185      4.277
REMARK  Name = 
REMARK  16 active torsions:
REMARK  status: ('A' for Active; 'I' for Inactive)
REMARK    1  A    between atoms: C_1  and  C_2
REMARK    2  A    between atoms: C_2  and  C_3
REMARK    3  A    between atoms: C_3  and  C_4
REMARK    4  A    between atoms: C_4  and  C_5
REMARK    5  A    between atoms: C_5  and  C_6
REMARK    6  A    between atoms: C_6  and  C_7
REMARK    7  A    between atoms: C_7  and  C_8
REMARK    8  A    between atoms: C_8  and  N_9
REMARK    9  A    between atoms: N_9  and  C_10
REMARK   10  A    between atoms: N_9  and  C_11
REMARK   11  A    between atoms: N_9  and  C_12
REMARK   12  A    between atoms: C_12  and  C_13
REMARK   13  A    between atoms: N_15  and  C_16
REMARK   14  A    between atoms: C_19  and  C_20
REMARK   15  A    between atoms: C_20  and  C_22
REMARK   16  A    between atoms: C_23  and  C_24
REMARK                            x       y       z     vdW  Elec       q    Type
REMARK                         _______ _______ _______ _____ _____    ______ ____
ROOT
ATOM      1  C   UNL     1       2.790   7.058  18.692  0.00  0.00    +0.000 A 
ATOM      2  C   UNL     1       2.175   6.836  19.932  0.00  0.00    +0.000 A 
ATOM      3  C   UNL     1       1.395   7.836  20.523  0.00  0.00    +0.000 A 
ATOM      4  C   UNL     1       1.200   9.059  19.868  0.00  0.00    +0.000 A 
ATOM      5  C   UNL     1       1.829   9.283  18.637  0.00  0.00    +0.000 A 
ATOM      6  C   UNL     1       2.642   8.291  18.068  0.00  0.00    +0.000 A 
ENDROOT
BRANCH   1   9
ATOM      7  C   UNL     1       4.620   5.464  18.649  0.00  0.00    +0.000 C 
ATOM      8  O   UNL     1       4.994   5.768  19.783  0.00  0.00    +0.000 OA
ATOM      9  N   UNL     1       3.525   6.030  18.042  0.00  0.00    +0.000 N 
ATOM     10  H   UNL     1       3.035   5.462  17.364  0.00  0.00    +0.000 HD
BRANCH   7  11
ATOM     11  C   UNL     1       5.319   4.334  17.866  0.00  0.00    +0.000 C 
BRANCH  11  12
ATOM     12  N   UNL     1       6.451   4.810  16.877  0.00  0.00    +0.000 N 
ATOM     13  C   UNL     1       7.795   4.346  17.428  0.00  0.00    +0.000 C 
ATOM     14  C   UNL     1       6.420   6.341  16.770  0.00  0.00    +0.000 C 
BRANCH  12  15
ATOM     15  C   UNL     1       6.177   4.192  15.491  0.00  0.00    +0.000 C 
BRANCH  15  16
ATOM     16  C   UNL     1       7.078   4.798  14.412  0.00  0.00    +0.000 C 
BRANCH  16  17
ATOM     17  C   UNL     1       6.874   4.187  13.032  0.00  0.00    +0.000 C 
BRANCH  17  18
ATOM     18  C   UNL     1       5.416   3.742  12.910  0.00  0.00    +0.000 C 
BRANCH  18  19
ATOM     19  C   UNL     1       5.263   2.624  11.888  0.00  0.00    +0.000 C 
BRANCH  19  20
ATOM     20  C   UNL     1       6.599   1.931  11.644  0.00  0.00    +0.000 C 
BRANCH  20  22
ATOM     21  C   UNL     1       6.077  -0.510  11.365  0.00  0.00    +0.000 C 
ATOM     22  C   UNL     1       6.429   0.785  10.653  0.00  0.00    +0.000 C 
ENDBRANCH  20  22
ENDBRANCH  19  20
ENDBRANCH  18  19
ENDBRANCH  17  18
ENDBRANCH  16  17
ENDBRANCH  15  16
ENDBRANCH  12  15
ENDBRANCH  11  12
ENDBRANCH   7  11
ENDBRANCH   1   9
BRANCH   4  23
ATOM     23  C   UNL     1       0.355  10.086  20.538  0.00  0.00    +0.000 C 
ATOM     24  O   UNL     1       0.733  10.590  21.588  0.00  0.00    +0.000 OA
BRANCH  23  25
ATOM     25  C   UNL     1      -0.964  10.419  19.929  0.00  0.00    +0.000 C 
ATOM     26  C   UNL     1      -1.095  10.437  18.592  0.00  0.00    +0.000 C 
BRANCH  26  27
ATOM     27  C   UNL     1      -2.317  10.849  17.880  0.00  0.00    +0.000 A 
ATOM     28  C   UNL     1      -3.294  11.588  18.563  0.00  0.00    +0.000 A 
ATOM     29  C   UNL     1      -4.507  11.911  17.948  0.00  0.00    +0.000 A 
ATOM     30  C   UNL     1      -4.761  11.494  16.640  0.00  0.00    +0.000 A 
ATOM     31  C   UNL     1      -3.795  10.764  15.955  0.00  0.00    +0.000 A 
ATOM     32 CL   UNL     1      -4.102  10.236  14.346  0.00  0.00    +0.000 Cl
ATOM     33  C   UNL     1      -2.584  10.437  16.567  0.00  0.00    +0.000 A 
ENDBRANCH  26  27
ENDBRANCH  23  25
ENDBRANCH   4  23
TORSDOF 13
ENDMDL
