MODEL 1
REMARK VINA RESULT:      -6.8      0.000      0.000
REMARK  Name = 
REMARK  6 active torsions:
REMARK  status: ('A' for Active; 'I' for Inactive)
REMARK    1  A    between atoms: C_2  and  C_15
REMARK    2  A    between atoms: N_3  and  C_4
REMARK    3  A    between atoms: C_7  and  C_8
REMARK    4  A    between atoms: C_18  and  C_19
REMARK    5  A    between atoms: N_21  and  C_22
REMARK    6  A    between atoms: C_25  and  C_26
REMARK                            x       y       z     vdW  Elec       q    Type
REMARK                         _______ _______ _______ _____ _____    ______ ____
ROOT
ATOM      1  C   UNL     1       1.840   7.586  19.740  0.00  0.00    +0.000 A 
ATOM      2  C   UNL     1       1.458   8.846  19.274  0.00  0.00    +0.000 A 
ATOM      3  C   UNL     1       0.868   9.757  20.143  0.00  0.00    +0.000 A 
ATOM      4  C   UNL     1       0.670   9.427  21.491  0.00  0.00    +0.000 A 
ATOM      5  C   UNL     1       1.083   8.179  21.975  0.00  0.00    +0.000 A 
ATOM      6  C   UNL     1       1.671   7.258  21.095  0.00  0.00    +0.000 A 
ENDROOT
BRANCH   1   8
ATOM      7  O   UNL     1       1.971   5.516  18.695  0.00  0.00    +0.000 OA
ATOM      8  C   UNL     1       2.433   6.650  18.750  0.00  0.00    +0.000 C 
ATOM      9  N   UNL     1       3.511   7.137  18.033  0.00  0.00    +0.000 N 
ATOM     10  H   UNL     1       3.910   8.019  18.328  0.00  0.00    +0.000 HD
BRANCH   9  11
ATOM     11  C   UNL     1       4.208   6.442  17.021  0.00  0.00    +0.000 A 
ATOM     12  C   UNL     1       4.326   5.050  16.995  0.00  0.00    +0.000 A 
ATOM     13  C   UNL     1       5.000   4.411  15.953  0.00  0.00    +0.000 A 
ATOM     14  C   UNL     1       5.576   5.163  14.932  0.00  0.00    +0.000 A 
ATOM     15  C   UNL     1       5.479   6.557  14.950  0.00  0.00    +0.000 A 
ATOM     16  C   UNL     1       4.781   7.193  15.986  0.00  0.00    +0.000 A 
BRANCH  14  17
ATOM     17  C   UNL     1       6.229   4.467  13.803  0.00  0.00    +0.000 C 
ATOM     18  N   UNL     1       7.265   4.987  13.199  0.00  0.00    +0.000 NA
ATOM     19  C   UNL     1       7.632   4.010  12.145  0.00  0.00    +0.000 C 
ATOM     20  C   UNL     1       6.613   2.872  12.216  0.00  0.00    +0.000 C 
ATOM     21  N   UNL     1       5.791   3.248  13.343  0.00  0.00    +0.000 N 
ATOM     22  H   UNL     1       4.789   3.181  13.196  0.00  0.00    +0.000 HD
ENDBRANCH  14  17
ENDBRANCH   9  11
ENDBRANCH   1   8
BRANCH   4  23
ATOM     23  C   UNL     1      -0.101  10.395  22.303  0.00  0.00    +0.000 C 
ATOM     24  O   UNL     1      -0.170  10.165  23.510  0.00  0.00    +0.000 OA
ATOM     25  N   UNL     1      -0.714  11.444  21.637  0.00  0.00    +0.000 N 
ATOM     26  H   UNL     1      -0.771  11.409  20.628  0.00  0.00    +0.000 HD
BRANCH  25  27
ATOM     27  C   UNL     1      -1.438  12.483  22.267  0.00  0.00    +0.000 A 
ATOM     28  C   UNL     1      -0.806  13.517  22.960  0.00  0.00    +0.000 A 
ATOM     29  C   UNL     1      -1.544  14.522  23.585  0.00  0.00    +0.000 A 
ATOM     30  C   UNL     1      -2.934  14.513  23.513  0.00  0.00    +0.000 A 
ATOM     31  C   UNL     1      -3.580  13.492  22.805  0.00  0.00    +0.000 A 
ATOM     32  C   UNL     1      -2.833  12.482  22.179  0.00  0.00    +0.000 A 
BRANCH  30  33
ATOM     33  C   UNL     1      -3.703  15.610  24.146  0.00  0.00    +0.000 C 
ATOM     34  N   UNL     1      -3.120  16.716  24.546  0.00  0.00    +0.000 NA
ATOM     35  C   UNL     1      -4.221  17.509  25.165  0.00  0.00    +0.000 C 
ATOM     36  C   UNL     1      -5.529  16.855  24.715  0.00  0.00    +0.000 C 
ATOM     37  N   UNL     1      -5.062  15.540  24.349  0.00  0.00    +0.000 N 
ATOM     38  H   UNL     1      -5.614  15.015  23.680  0.00  0.00    +0.000 HD
ENDBRANCH  30  33
ENDBRANCH  25  27
ENDBRANCH   4  23
TORSDOF 6
ENDMDL
MODEL 2
REMARK VINA RESULT:      -6.4      0.229      1.082
REMARK  Name = 
REMARK  6 active torsions:
REMARK  status: ('A' for Active; 'I' for Inactive)
REMARK    1  A    between atoms: C_2  and  C_15
REMARK    2  A    between atoms: N_3  and  C_4
REMARK    3  A    between atoms: C_7  and  C_8
REMARK    4  A    between atoms: C_18  and  C_19
REMARK    5  A    between atoms: N_21  and  C_22
REMARK    6  A    between atoms: C_25  and  C_26
REMARK                            x       y       z     vdW  Elec       q    Type
REMARK                         _______ _______ _______ _____ _____    ______ ____
ROOT
ATOM      1  C   UNL     1       1.797   7.536  19.911  0.00  0.00    +0.000 A 
ATOM      2  C   UNL     1       1.729   8.887  19.560  0.00  0.00    +0.000 A 
ATOM      3  C   UNL     1       1.111   9.794  20.414  0.00  0.00    +0.000 A 
ATOM      4  C   UNL     1       0.571   9.366  21.635  0.00  0.00    +0.000 A 
ATOM      5  C   UNL     1       0.667   8.020  22.011  0.00  0.00    +0.000 A 
ATOM      6  C   UNL     1       1.283   7.105  21.145  0.00  0.00    +0.000 A 
ENDROOT
BRANCH   1   8
ATOM      7  O   UNL     1       2.131   5.431  18.989  0.00  0.00    +0.000 OA
ATOM      8  C   UNL     1       2.440   6.617  18.937  0.00  0.00    +0.000 C 
ATOM      9  N   UNL     1       3.390   7.187  18.110  0.00  0.00    +0.000 N 
ATOM     10  H   UNL     1       3.686   8.131  18.318  0.00  0.00    +0.000 HD
BRANCH   9  11
ATOM     11  C   UNL     1       4.102   6.517  17.091  0.00  0.00    +0.000 A 
ATOM     12  C   UNL     1       4.194   5.125  17.013  0.00  0.00    +0.000 A 
ATOM     13  C   UNL     1       4.885   4.513  15.966  0.00  0.00    +0.000 A 
ATOM     14  C   UNL     1       5.505   5.292  14.993  0.00  0.00    +0.000 A 
ATOM     15  C   UNL     1       5.435   6.686  15.063  0.00  0.00    +0.000 A 
ATOM     16  C   UNL     1       4.719   7.296  16.103  0.00  0.00    +0.000 A 
BRANCH  14  17
ATOM     17  C   UNL     1       6.176   4.628  13.856  0.00  0.00    +0.000 C 
ATOM     18  N   UNL     1       5.707   3.516  13.353  0.00  0.00    +0.000 NA
ATOM     19  C   UNL     1       6.630   3.169  12.245  0.00  0.00    +0.000 C 
ATOM     20  C   UNL     1       7.725   4.236  12.225  0.00  0.00    +0.000 C 
ATOM     21  N   UNL     1       7.308   5.143  13.270  0.00  0.00    +0.000 N 
ATOM     22  H   UNL     1       8.033   5.429  13.919  0.00  0.00    +0.000 HD
ENDBRANCH  14  17
ENDBRANCH   9  11
ENDBRANCH   1   8
BRANCH   4  23
ATOM     23  C   UNL     1      -0.199  10.368  22.406  0.00  0.00    +0.000 C 
ATOM     24  O   UNL     1      -0.198  10.237  23.629  0.00  0.00    +0.000 OA
ATOM     25  N   UNL     1      -0.888  11.334  21.690  0.00  0.00    +0.000 N 
ATOM     26  H   UNL     1      -0.993  11.213  20.692  0.00  0.00    +0.000 HD
BRANCH  25  27
ATOM     27  C   UNL     1      -1.624  12.394  22.271  0.00  0.00    +0.000 A 
ATOM     28  C   UNL     1      -2.998  12.542  22.075  0.00  0.00    +0.000 A 
ATOM     29  C   UNL     1      -3.698  13.604  22.648  0.00  0.00    +0.000 A 
ATOM     30  C   UNL     1      -3.028  14.530  23.443  0.00  0.00    +0.000 A 
ATOM     31  C   UNL     1      -1.654  14.383  23.663  0.00  0.00    +0.000 A 
ATOM     32  C   UNL     1      -0.954  13.313  23.083  0.00  0.00    +0.000 A 
BRANCH  30  33
ATOM     33  C   UNL     1      -3.793  15.628  24.080  0.00  0.00    +0.000 C 
ATOM     34  N   UNL     1      -3.210  16.739  24.466  0.00  0.00    +0.000 NA
ATOM     35  C   UNL     1      -4.306  17.530  25.095  0.00  0.00    +0.000 C 
ATOM     36  C   UNL     1      -5.617  16.867  24.667  0.00  0.00    +0.000 C 
ATOM     37  N   UNL     1      -5.149  15.553  24.302  0.00  0.00    +0.000 N 
ATOM     38  H   UNL     1      -5.708  15.021  23.645  0.00  0.00    +0.000 HD
ENDBRANCH  30  33
ENDBRANCH  25  27
ENDBRANCH   4  23
TORSDOF 6
ENDMDL
MODEL 3
REMARK VINA RESULT:      -6.2      1.012      1.103
REMARK  Name = 
REMARK  6 active torsions:
REMARK  status: ('A' for Active; 'I' for Inactive)
REMARK    1  A    between atoms: C_2  and  C_15
REMARK    2  A    between atoms: N_3  and  C_4
REMARK    3  A    between atoms: C_7  and  C_8
REMARK    4  A    between atoms: C_18  and  C_19
REMARK    5  A    between atoms: N_21  and  C_22
REMARK    6  A    between atoms: C_25  and  C_26
REMARK                            x       y       z     vdW  Elec       q    Type
REMARK                         _______ _______ _______ _____ _____    ______ ____
ROOT
ATOM      1  C   UNL     1       1.508   8.200  20.315  0.00  0.00    +0.000 A 
ATOM      2  C   UNL     1       0.906   9.266  19.641  0.00  0.00    +0.000 A 
ATOM      3  C   UNL     1       0.175  10.212  20.353  0.00  0.00    +0.000 A 
ATOM      4  C   UNL     1       0.053  10.114  21.746  0.00  0.00    +0.000 A 
ATOM      5  C   UNL     1       0.684   9.068  22.433  0.00  0.00    +0.000 A 
ATOM      6  C   UNL     1       1.413   8.111  21.713  0.00  0.00    +0.000 A 
ENDROOT
BRANCH   1   8
ATOM      7  O   UNL     1       2.208   6.036  19.846  0.00  0.00    +0.000 OA
ATOM      8  C   UNL     1       2.243   7.209  19.489  0.00  0.00    +0.000 C 
ATOM      9  N   UNL     1       2.965   7.727  18.429  0.00  0.00    +0.000 N 
ATOM     10  H   UNL     1       3.065   8.732  18.377  0.00  0.00    +0.000 HD
BRANCH   9  11
ATOM     11  C   UNL     1       3.709   6.974  17.494  0.00  0.00    +0.000 A 
ATOM     12  C   UNL     1       3.708   5.577  17.465  0.00  0.00    +0.000 A 
ATOM     13  C   UNL     1       4.437   4.882  16.499  0.00  0.00    +0.000 A 
ATOM     14  C   UNL     1       5.189   5.583  15.559  0.00  0.00    +0.000 A 
ATOM     15  C   UNL     1       5.212   6.979  15.581  0.00  0.00    +0.000 A 
ATOM     16  C   UNL     1       4.459   7.673  16.539  0.00  0.00    +0.000 A 
BRANCH  14  17
ATOM     17  C   UNL     1       5.902   4.834  14.502  0.00  0.00    +0.000 C 
ATOM     18  N   UNL     1       7.138   5.121  14.191  0.00  0.00    +0.000 NA
ATOM     19  C   UNL     1       7.500   4.167  13.114  0.00  0.00    +0.000 C 
ATOM     20  C   UNL     1       6.259   3.320  12.831  0.00  0.00    +0.000 C 
ATOM     21  N   UNL     1       5.312   3.803  13.810  0.00  0.00    +0.000 N 
ATOM     22  H   UNL     1       4.381   4.003  13.458  0.00  0.00    +0.000 HD
ENDBRANCH  14  17
ENDBRANCH   9  11
ENDBRANCH   1   8
BRANCH   4  23
ATOM     23  C   UNL     1      -0.865  11.073  22.400  0.00  0.00    +0.000 C 
ATOM     24  O   UNL     1      -1.134  10.856  23.581  0.00  0.00    +0.000 OA
ATOM     25  N   UNL     1      -1.377  12.100  21.622  0.00  0.00    +0.000 N 
ATOM     26  H   UNL     1      -1.259  12.051  20.619  0.00  0.00    +0.000 HD
BRANCH  25  27
ATOM     27  C   UNL     1      -2.219  13.129  22.103  0.00  0.00    +0.000 A 
ATOM     28  C   UNL     1      -1.716  14.285  22.703  0.00  0.00    +0.000 A 
ATOM     29  C   UNL     1      -2.570  15.278  23.182  0.00  0.00    +0.000 A 
ATOM     30  C   UNL     1      -3.948  15.134  23.053  0.00  0.00    +0.000 A 
ATOM     31  C   UNL     1      -4.466  13.990  22.436  0.00  0.00    +0.000 A 
ATOM     32  C   UNL     1      -3.603  12.991  21.956  0.00  0.00    +0.000 A 
BRANCH  30  33
ATOM     33  C   UNL     1      -4.840  16.218  23.528  0.00  0.00    +0.000 C 
ATOM     34  N   UNL     1      -4.383  17.226  24.233  0.00  0.00    +0.000 NA
ATOM     35  C   UNL     1      -5.595  18.035  24.547  0.00  0.00    +0.000 C 
ATOM     36  C   UNL     1      -6.700  17.538  23.612  0.00  0.00    +0.000 C 
ATOM     37  N   UNL     1      -6.190  16.235  23.260  0.00  0.00    +0.000 N 
ATOM     38  H   UNL     1      -6.505  15.829  22.386  0.00  0.00    +0.000 HD
ENDBRANCH  30  33
ENDBRANCH  25  27
ENDBRANCH   4  23
TORSDOF 6
ENDMDL
MODEL 4
REMARK VINA RESULT:      -6.1      2.028      2.833
REMARK  Name = 
REMARK  6 active torsions:
REMARK  status: ('A' for Active; 'I' for Inactive)
REMARK    1  A    between atoms: C_2  and  C_15
REMARK    2  A    between atoms: N_3  and  C_4
REMARK    3  A    between atoms: C_7  and  C_8
REMARK    4  A    between atoms: C_18  and  C_19
REMARK    5  A    between atoms: N_21  and  C_22
REMARK    6  A    between atoms: C_25  and  C_26
REMARK                            x       y       z     vdW  Elec       q    Type
REMARK                         _______ _______ _______ _____ _____    ______ ____
ROOT
ATOM      1  C   UNL     1       0.629   9.020  20.910  0.00  0.00    +0.000 A 
ATOM      2  C   UNL     1      -0.124   9.800  20.030  0.00  0.00    +0.000 A 
ATOM      3  C   UNL     1      -0.985  10.772  20.528  0.00  0.00    +0.000 A 
ATOM      4  C   UNL     1      -1.090  10.987  21.910  0.00  0.00    +0.000 A 
ATOM      5  C   UNL     1      -0.311  10.233  22.797  0.00  0.00    +0.000 A 
ATOM      6  C   UNL     1       0.550   9.248  22.293  0.00  0.00    +0.000 A 
ENDROOT
BRANCH   1   8
ATOM      7  O   UNL     1       1.697   6.958  20.964  0.00  0.00    +0.000 OA
ATOM      8  C   UNL     1       1.502   7.978  20.311  0.00  0.00    +0.000 C 
ATOM      9  N   UNL     1       2.074   8.300  19.094  0.00  0.00    +0.000 N 
ATOM     10  H   UNL     1       1.986   9.255  18.774  0.00  0.00    +0.000 HD
BRANCH   9  11
ATOM     11  C   UNL     1       2.908   7.457  18.327  0.00  0.00    +0.000 A 
ATOM     12  C   UNL     1       2.776   6.066  18.310  0.00  0.00    +0.000 A 
ATOM     13  C   UNL     1       3.607   5.281  17.508  0.00  0.00    +0.000 A 
ATOM     14  C   UNL     1       4.589   5.883  16.726  0.00  0.00    +0.000 A 
ATOM     15  C   UNL     1       4.742   7.271  16.741  0.00  0.00    +0.000 A 
ATOM     16  C   UNL     1       3.891   8.057  17.530  0.00  0.00    +0.000 A 
BRANCH  14  17
ATOM     17  C   UNL     1       5.416   5.042  15.833  0.00  0.00    +0.000 C 
ATOM     18  N   UNL     1       6.048   5.562  14.815  0.00  0.00    +0.000 NA
ATOM     19  C   UNL     1       6.759   4.426  14.178  0.00  0.00    +0.000 C 
ATOM     20  C   UNL     1       6.395   3.170  14.969  0.00  0.00    +0.000 C 
ATOM     21  N   UNL     1       5.567   3.691  16.033  0.00  0.00    +0.000 N 
ATOM     22  H   UNL     1       4.704   3.185  16.205  0.00  0.00    +0.000 HD
ENDBRANCH  14  17
ENDBRANCH   9  11
ENDBRANCH   1   8
BRANCH   4  23
ATOM     23  C   UNL     1      -2.139  11.931  22.356  0.00  0.00    +0.000 C 
ATOM     24  O   UNL     1      -2.481  11.854  23.535  0.00  0.00    +0.000 OA
ATOM     25  N   UNL     1      -2.678  12.784  21.405  0.00  0.00    +0.000 N 
ATOM     26  H   UNL     1      -2.477  12.609  20.430  0.00  0.00    +0.000 HD
BRANCH  25  27
ATOM     27  C   UNL     1      -3.645  13.781  21.674  0.00  0.00    +0.000 A 
ATOM     28  C   UNL     1      -4.873  13.486  22.270  0.00  0.00    +0.000 A 
ATOM     29  C   UNL     1      -5.814  14.486  22.512  0.00  0.00    +0.000 A 
ATOM     30  C   UNL     1      -5.532  15.806  22.172  0.00  0.00    +0.000 A 
ATOM     31  C   UNL     1      -4.297  16.118  21.592  0.00  0.00    +0.000 A 
ATOM     32  C   UNL     1      -3.353  15.108  21.349  0.00  0.00    +0.000 A 
BRANCH  30  33
ATOM     33  C   UNL     1      -6.525  16.863  22.474  0.00  0.00    +0.000 C 
ATOM     34  N   UNL     1      -6.748  17.267  23.703  0.00  0.00    +0.000 NA
ATOM     35  C   UNL     1      -7.839  18.274  23.568  0.00  0.00    +0.000 C 
ATOM     36  C   UNL     1      -7.915  18.629  22.082  0.00  0.00    +0.000 C 
ATOM     37  N   UNL     1      -7.269  17.481  21.495  0.00  0.00    +0.000 N 
ATOM     38  H   UNL     1      -6.845  17.597  20.582  0.00  0.00    +0.000 HD
ENDBRANCH  30  33
ENDBRANCH  25  27
ENDBRANCH   4  23
TORSDOF 6
ENDMDL
MODEL 5
REMARK VINA RESULT:      -6.0      0.691      1.202
REMARK  Name = 
REMARK  6 active torsions:
REMARK  status: ('A' for Active; 'I' for Inactive)
REMARK    1  A    between atoms: C_2  and  C_15
REMARK    2  A    between atoms: N_3  and  C_4
REMARK    3  A    between atoms: C_7  and  C_8
REMARK    4  A    between atoms: C_18  and  C_19
REMARK    5  A    between atoms: N_21  and  C_22
REMARK    6  A    between atoms: C_25  and  C_26
REMARK                            x       y       z     vdW  Elec       q    Type
REMARK                         _______ _______ _______ _____ _____    ______ ____
ROOT
ATOM      1  C   UNL     1       1.982   7.017  19.900  0.00  0.00    +0.000 A 
ATOM      2  C   UNL     1       2.308   8.372  19.798  0.00  0.00    +0.000 A 
ATOM      3  C   UNL     1       1.737   9.290  20.673  0.00  0.00    +0.000 A 
ATOM      4  C   UNL     1       0.850   8.862  21.670  0.00  0.00    +0.000 A 
ATOM      5  C   UNL     1       0.547   7.501  21.803  0.00  0.00    +0.000 A 
ATOM      6  C   UNL     1       1.117   6.578  20.914  0.00  0.00    +0.000 A 
ENDROOT
BRANCH   1   8
ATOM      7  O   UNL     1       2.319   4.907  18.990  0.00  0.00    +0.000 OA
ATOM      8  C   UNL     1       2.602   6.097  18.911  0.00  0.00    +0.000 C 
ATOM      9  N   UNL     1       3.506   6.674  18.038  0.00  0.00    +0.000 N 
ATOM     10  H   UNL     1       3.792   7.626  18.222  0.00  0.00    +0.000 HD
BRANCH   9  11
ATOM     11  C   UNL     1       4.188   6.005  16.998  0.00  0.00    +0.000 A 
ATOM     12  C   UNL     1       4.229   4.612  16.886  0.00  0.00    +0.000 A 
ATOM     13  C   UNL     1       4.892   4.002  15.820  0.00  0.00    +0.000 A 
ATOM     14  C   UNL     1       5.534   4.782  14.862  0.00  0.00    +0.000 A 
ATOM     15  C   UNL     1       5.514   6.175  14.966  0.00  0.00    +0.000 A 
ATOM     16  C   UNL     1       4.827   6.785  16.026  0.00  0.00    +0.000 A 
BRANCH  14  17
ATOM     17  C   UNL     1       6.174   4.122  13.705  0.00  0.00    +0.000 C 
ATOM     18  N   UNL     1       7.230   4.638  13.134  0.00  0.00    +0.000 NA
ATOM     19  C   UNL     1       7.577   3.702  12.036  0.00  0.00    +0.000 C 
ATOM     20  C   UNL     1       6.523   2.594  12.045  0.00  0.00    +0.000 C 
ATOM     21  N   UNL     1       5.703   2.940  13.183  0.00  0.00    +0.000 N 
ATOM     22  H   UNL     1       4.701   2.912  13.026  0.00  0.00    +0.000 HD
ENDBRANCH  14  17
ENDBRANCH   9  11
ENDBRANCH   1   8
BRANCH   4  23
ATOM     23  C   UNL     1       0.176   9.921  22.455  0.00  0.00    +0.000 C 
ATOM     24  O   UNL     1       0.263   9.836  23.679  0.00  0.00    +0.000 OA
ATOM     25  N   UNL     1      -0.531  10.885  21.753  0.00  0.00    +0.000 N 
ATOM     26  H   UNL     1      -0.715  10.730  20.771  0.00  0.00    +0.000 HD
BRANCH  25  27
ATOM     27  C   UNL     1      -1.184  11.993  22.344  0.00  0.00    +0.000 A 
ATOM     28  C   UNL     1      -2.374  11.860  23.061  0.00  0.00    +0.000 A 
ATOM     29  C   UNL     1      -3.005  12.971  23.621  0.00  0.00    +0.000 A 
ATOM     30  C   UNL     1      -2.441  14.236  23.482  0.00  0.00    +0.000 A 
ATOM     31  C   UNL     1      -1.238  14.380  22.782  0.00  0.00    +0.000 A 
ATOM     32  C   UNL     1      -0.607  13.260  22.218  0.00  0.00    +0.000 A 
BRANCH  30  33
ATOM     33  C   UNL     1      -3.101  15.400  24.119  0.00  0.00    +0.000 C 
ATOM     34  N   UNL     1      -4.384  15.398  24.396  0.00  0.00    +0.000 NA
ATOM     35  C   UNL     1      -4.641  16.753  24.961  0.00  0.00    +0.000 C 
ATOM     36  C   UNL     1      -3.271  17.347  25.297  0.00  0.00    +0.000 C 
ATOM     37  N   UNL     1      -2.415  16.544  24.459  0.00  0.00    +0.000 N 
ATOM     38  H   UNL     1      -1.444  16.450  24.733  0.00  0.00    +0.000 HD
ENDBRANCH  30  33
ENDBRANCH  25  27
ENDBRANCH   4  23
TORSDOF 6
ENDMDL
MODEL 6
REMARK VINA RESULT:      -5.8      0.838     13.728
REMARK  Name = 
REMARK  6 active torsions:
REMARK  status: ('A' for Active; 'I' for Inactive)
REMARK    1  A    between atoms: C_2  and  C_15
REMARK    2  A    between atoms: N_3  and  C_4
REMARK    3  A    between atoms: C_7  and  C_8
REMARK    4  A    between atoms: C_18  and  C_19
REMARK    5  A    between atoms: N_21  and  C_22
REMARK    6  A    between atoms: C_25  and  C_26
REMARK                            x       y       z     vdW  Elec       q    Type
REMARK                         _______ _______ _______ _____ _____    ______ ____
ROOT
ATOM      1  C   UNL     1       0.095   9.594  21.828  0.00  0.00    +0.000 A 
ATOM      2  C   UNL     1       0.549   9.995  20.569  0.00  0.00    +0.000 A 
ATOM      3  C   UNL     1       1.303   9.120  19.794  0.00  0.00    +0.000 A 
ATOM      4  C   UNL     1       1.596   7.831  20.259  0.00  0.00    +0.000 A 
ATOM      5  C   UNL     1       1.114   7.409  21.505  0.00  0.00    +0.000 A 
ATOM      6  C   UNL     1       0.360   8.295  22.289  0.00  0.00    +0.000 A 
ENDROOT
BRANCH   1   8
ATOM      7  O   UNL     1      -0.805  10.384  23.819  0.00  0.00    +0.000 OA
ATOM      8  C   UNL     1      -0.676  10.590  22.616  0.00  0.00    +0.000 C 
ATOM      9  N   UNL     1      -1.240  11.624  21.892  0.00  0.00    +0.000 N 
ATOM     10  H   UNL     1      -1.221  11.553  20.883  0.00  0.00    +0.000 HD
BRANCH   9  11
ATOM     11  C   UNL     1      -1.983  12.697  22.430  0.00  0.00    +0.000 A 
ATOM     12  C   UNL     1      -1.422  13.945  22.716  0.00  0.00    +0.000 A 
ATOM     13  C   UNL     1      -2.208  14.983  23.218  0.00  0.00    +0.000 A 
ATOM     14  C   UNL     1      -3.565  14.776  23.453  0.00  0.00    +0.000 A 
ATOM     15  C   UNL     1      -4.140  13.531  23.184  0.00  0.00    +0.000 A 
ATOM     16  C   UNL     1      -3.350  12.498  22.658  0.00  0.00    +0.000 A 
BRANCH  14  17
ATOM     17  C   UNL     1      -4.397  15.905  23.922  0.00  0.00    +0.000 C 
ATOM     18  N   UNL     1      -5.378  16.366  23.193  0.00  0.00    +0.000 NA
ATOM     19  C   UNL     1      -5.968  17.471  23.989  0.00  0.00    +0.000 C 
ATOM     20  C   UNL     1      -5.138  17.593  25.267  0.00  0.00    +0.000 C 
ATOM     21  N   UNL     1      -4.189  16.511  25.138  0.00  0.00    +0.000 N 
ATOM     22  H   UNL     1      -3.223  16.749  25.338  0.00  0.00    +0.000 HD
ENDBRANCH  14  17
ENDBRANCH   9  11
ENDBRANCH   1   8
BRANCH   4  23
ATOM     23  C   UNL     1       2.529   7.026  19.439  0.00  0.00    +0.000 C 
ATOM     24  O   UNL     1       2.991   6.015  19.966  0.00  0.00    +0.000 OA
ATOM     25  N   UNL     1       2.837   7.500  18.173  0.00  0.00    +0.000 N 
ATOM     26  H   UNL     1       2.572   8.445  17.932  0.00  0.00    +0.000 HD
BRANCH  25  27
ATOM     27  C   UNL     1       3.664   6.827  17.242  0.00  0.00    +0.000 A 
ATOM     28  C   UNL     1       3.736   5.434  17.181  0.00  0.00    +0.000 A 
ATOM     29  C   UNL     1       4.570   4.795  16.263  0.00  0.00    +0.000 A 
ATOM     30  C   UNL     1       5.339   5.548  15.380  0.00  0.00    +0.000 A 
ATOM     31  C   UNL     1       5.262   6.945  15.418  0.00  0.00    +0.000 A 
ATOM     32  C   UNL     1       4.422   7.583  16.344  0.00  0.00    +0.000 A 
BRANCH  30  33
ATOM     33  C   UNL     1       6.187   4.854  14.383  0.00  0.00    +0.000 C 
ATOM     34  N   UNL     1       5.775   3.776  13.759  0.00  0.00    +0.000 NA
ATOM     35  C   UNL     1       6.933   3.376  12.909  0.00  0.00    +0.000 C 
ATOM     36  C   UNL     1       7.877   4.579  12.874  0.00  0.00    +0.000 C 
ATOM     37  N   UNL     1       7.448   5.294  14.051  0.00  0.00    +0.000 N 
ATOM     38  H   UNL     1       7.626   6.292  14.085  0.00  0.00    +0.000 HD
ENDBRANCH  30  33
ENDBRANCH  25  27
ENDBRANCH   4  23
TORSDOF 6
ENDMDL
MODEL 7
REMARK VINA RESULT:      -5.7      1.326      1.737
REMARK  Name = 
REMARK  6 active torsions:
REMARK  status: ('A' for Active; 'I' for Inactive)
REMARK    1  A    between atoms: C_2  and  C_15
REMARK    2  A    between atoms: N_3  and  C_4
REMARK    3  A    between atoms: C_7  and  C_8
REMARK    4  A    between atoms: C_18  and  C_19
REMARK    5  A    between atoms: N_21  and  C_22
REMARK    6  A    between atoms: C_25  and  C_26
REMARK                            x       y       z     vdW  Elec       q    Type
REMARK                         _______ _______ _______ _____ _____    ______ ____
ROOT
ATOM      1  C   UNL     1       1.406   8.231  20.373  0.00  0.00    +0.000 A 
ATOM      2  C   UNL     1       1.346   9.537  19.879  0.00  0.00    +0.000 A 
ATOM      3  C   UNL     1       0.588  10.495  20.543  0.00  0.00    +0.000 A 
ATOM      4  C   UNL     1      -0.105  10.164  21.716  0.00  0.00    +0.000 A 
ATOM      5  C   UNL     1      -0.020   8.867  22.238  0.00  0.00    +0.000 A 
ATOM      6  C   UNL     1       0.739   7.900  21.563  0.00  0.00    +0.000 A 
ENDROOT
BRANCH   1   8
ATOM      7  O   UNL     1       2.294   6.111  20.039  0.00  0.00    +0.000 OA
ATOM      8  C   UNL     1       2.208   7.251  19.595  0.00  0.00    +0.000 C 
ATOM      9  N   UNL     1       2.845   7.750  18.474  0.00  0.00    +0.000 N 
ATOM     10  H   UNL     1       2.848   8.753  18.345  0.00  0.00    +0.000 HD
BRANCH   9  11
ATOM     11  C   UNL     1       3.629   7.000  17.570  0.00  0.00    +0.000 A 
ATOM     12  C   UNL     1       3.708   5.606  17.605  0.00  0.00    +0.000 A 
ATOM     13  C   UNL     1       4.473   4.911  16.667  0.00  0.00    +0.000 A 
ATOM     14  C   UNL     1       5.181   5.610  15.692  0.00  0.00    +0.000 A 
ATOM     15  C   UNL     1       5.123   7.005  15.651  0.00  0.00    +0.000 A 
ATOM     16  C   UNL     1       4.334   7.697  16.581  0.00  0.00    +0.000 A 
BRANCH  14  17
ATOM     17  C   UNL     1       5.933   4.856  14.667  0.00  0.00    +0.000 C 
ATOM     18  N   UNL     1       7.209   5.064  14.479  0.00  0.00    +0.000 NA
ATOM     19  C   UNL     1       7.600   4.132  13.393  0.00  0.00    +0.000 C 
ATOM     20  C   UNL     1       6.334   3.392  12.961  0.00  0.00    +0.000 C 
ATOM     21  N   UNL     1       5.338   3.902  13.875  0.00  0.00    +0.000 N 
ATOM     22  H   UNL     1       4.459   4.184  13.454  0.00  0.00    +0.000 HD
ENDBRANCH  14  17
ENDBRANCH   9  11
ENDBRANCH   1   8
BRANCH   4  23
ATOM     23  C   UNL     1      -1.005  11.201  22.268  0.00  0.00    +0.000 C 
ATOM     24  O   UNL     1      -0.851  11.486  23.455  0.00  0.00    +0.000 OA
ATOM     25  N   UNL     1      -1.970  11.726  21.422  0.00  0.00    +0.000 N 
ATOM     26  H   UNL     1      -2.144  11.262  20.541  0.00  0.00    +0.000 HD
BRANCH  25  27
ATOM     27  C   UNL     1      -2.871  12.759  21.773  0.00  0.00    +0.000 A 
ATOM     28  C   UNL     1      -3.414  12.870  23.055  0.00  0.00    +0.000 A 
ATOM     29  C   UNL     1      -4.311  13.890  23.371  0.00  0.00    +0.000 A 
ATOM     30  C   UNL     1      -4.668  14.828  22.405  0.00  0.00    +0.000 A 
ATOM     31  C   UNL     1      -4.116  14.739  21.122  0.00  0.00    +0.000 A 
ATOM     32  C   UNL     1      -3.215  13.710  20.808  0.00  0.00    +0.000 A 
BRANCH  30  33
ATOM     33  C   UNL     1      -5.589  15.930  22.769  0.00  0.00    +0.000 C 
ATOM     34  N   UNL     1      -6.718  16.124  22.128  0.00  0.00    +0.000 NA
ATOM     35  C   UNL     1      -7.295  17.345  22.759  0.00  0.00    +0.000 C 
ATOM     36  C   UNL     1      -6.521  17.564  24.060  0.00  0.00    +0.000 C 
ATOM     37  N   UNL     1      -5.321  16.811  23.792  0.00  0.00    +0.000 N 
ATOM     38  H   UNL     1      -4.795  16.467  24.587  0.00  0.00    +0.000 HD
ENDBRANCH  30  33
ENDBRANCH  25  27
ENDBRANCH   4  23
TORSDOF 6
ENDMDL
MODEL 8
REMARK VINA RESULT:      -5.7      1.150      1.784
REMARK  Name = 
REMARK  6 active torsions:
REMARK  status: ('A' for Active; 'I' for Inactive)
REMARK    1  A    between atoms: C_2  and  C_15
REMARK    2  A    between atoms: N_3  and  C_4
REMARK    3  A    between atoms: C_7  and  C_8
REMARK    4  A    between atoms: C_18  and  C_19
REMARK    5  A    between atoms: N_21  and  C_22
REMARK    6  A    between atoms: C_25  and  C_26
REMARK                            x       y       z     vdW  Elec       q    Type
REMARK                         _______ _______ _______ _____ _____    ______ ____
ROOT
ATOM      1  C   UNL     1       2.272   6.844  19.017  0.00  0.00    +0.000 A 
ATOM      2  C   UNL     1       2.210   8.204  18.702  0.00  0.00    +0.000 A 
ATOM      3  C   UNL     1       1.775   9.117  19.658  0.00  0.00    +0.000 A 
ATOM      4  C   UNL     1       1.415   8.684  20.941  0.00  0.00    +0.000 A 
ATOM      5  C   UNL     1       1.510   7.327  21.276  0.00  0.00    +0.000 A 
ATOM      6  C   UNL     1       1.941   6.407  20.309  0.00  0.00    +0.000 A 
ENDROOT
BRANCH   1   8
ATOM      7  O   UNL     1       1.980   4.976  17.668  0.00  0.00    +0.000 OA
ATOM      8  C   UNL     1       2.713   5.921  17.939  0.00  0.00    +0.000 C 
ATOM      9  N   UNL     1       3.957   6.183  17.395  0.00  0.00    +0.000 N 
ATOM     10  H   UNL     1       4.534   6.873  17.857  0.00  0.00    +0.000 HD
BRANCH   9  11
ATOM     11  C   UNL     1       4.563   5.463  16.341  0.00  0.00    +0.000 A 
ATOM     12  C   UNL     1       4.719   4.075  16.358  0.00  0.00    +0.000 A 
ATOM     13  C   UNL     1       5.297   3.409  15.276  0.00  0.00    +0.000 A 
ATOM     14  C   UNL     1       5.738   4.132  14.170  0.00  0.00    +0.000 A 
ATOM     15  C   UNL     1       5.601   5.522  14.143  0.00  0.00    +0.000 A 
ATOM     16  C   UNL     1       4.999   6.184  15.222  0.00  0.00    +0.000 A 
BRANCH  14  17
ATOM     17  C   UNL     1       6.287   3.405  13.005  0.00  0.00    +0.000 C 
ATOM     18  N   UNL     1       5.550   2.565  12.328  0.00  0.00    +0.000 NA
ATOM     19  C   UNL     1       6.433   2.052  11.252  0.00  0.00    +0.000 C 
ATOM     20  C   UNL     1       7.804   2.700  11.452  0.00  0.00    +0.000 C 
ATOM     21  N   UNL     1       7.580   3.581  12.575  0.00  0.00    +0.000 N 
ATOM     22  H   UNL     1       8.282   3.547  13.307  0.00  0.00    +0.000 HD
ENDBRANCH  14  17
ENDBRANCH   9  11
ENDBRANCH   1   8
BRANCH   4  23
ATOM     23  C   UNL     1       0.822   9.699  21.840  0.00  0.00    +0.000 C 
ATOM     24  O   UNL     1       1.061   9.575  23.041  0.00  0.00    +0.000 OA
ATOM     25  N   UNL     1       0.014  10.668  21.265  0.00  0.00    +0.000 N 
ATOM     26  H   UNL     1      -0.286  10.541  20.309  0.00  0.00    +0.000 HD
BRANCH  25  27
ATOM     27  C   UNL     1      -0.583  11.739  21.971  0.00  0.00    +0.000 A 
ATOM     28  C   UNL     1      -1.656  11.549  22.844  0.00  0.00    +0.000 A 
ATOM     29  C   UNL     1      -2.236  12.625  23.517  0.00  0.00    +0.000 A 
ATOM     30  C   UNL     1      -1.737  13.911  23.335  0.00  0.00    +0.000 A 
ATOM     31  C   UNL     1      -0.649  14.112  22.478  0.00  0.00    +0.000 A 
ATOM     32  C   UNL     1      -0.070  13.028  21.801  0.00  0.00    +0.000 A 
BRANCH  30  33
ATOM     33  C   UNL     1      -2.336  15.037  24.089  0.00  0.00    +0.000 C 
ATOM     34  N   UNL     1      -3.634  15.230  24.123  0.00  0.00    +0.000 NA
ATOM     35  C   UNL     1      -3.800  16.476  24.924  0.00  0.00    +0.000 C 
ATOM     36  C   UNL     1      -2.463  16.718  25.627  0.00  0.00    +0.000 C 
ATOM     37  N   UNL     1      -1.576  15.940  24.797  0.00  0.00    +0.000 N 
ATOM     38  H   UNL     1      -0.713  15.609  25.213  0.00  0.00    +0.000 HD
ENDBRANCH  30  33
ENDBRANCH  25  27
ENDBRANCH   4  23
TORSDOF 6
ENDMDL
MODEL 9
REMARK VINA RESULT:      -5.6      0.612     13.744
REMARK  Name = 
REMARK  6 active torsions:
REMARK  status: ('A' for Active; 'I' for Inactive)
REMARK    1  A    between atoms: C_2  and  C_15
REMARK    2  A    between atoms: N_3  and  C_4
REMARK    3  A    between atoms: C_7  and  C_8
REMARK    4  A    between atoms: C_18  and  C_19
REMARK    5  A    between atoms: N_21  and  C_22
REMARK    6  A    between atoms: C_25  and  C_26
REMARK                            x       y       z     vdW  Elec       q    Type
REMARK                         _______ _______ _______ _____ _____    ______ ____
ROOT
ATOM      1  C   UNL     1       0.779   9.229  21.345  0.00  0.00    +0.000 A 
ATOM      2  C   UNL     1       0.808   9.557  19.987  0.00  0.00    +0.000 A 
ATOM      3  C   UNL     1       1.293   8.637  19.062  0.00  0.00    +0.000 A 
ATOM      4  C   UNL     1       1.738   7.376  19.481  0.00  0.00    +0.000 A 
ATOM      5  C   UNL     1       1.678   7.027  20.837  0.00  0.00    +0.000 A 
ATOM      6  C   UNL     1       1.196   7.958  21.768  0.00  0.00    +0.000 A 
ENDROOT
BRANCH   1   8
ATOM      7  O   UNL     1       0.444  10.078  23.480  0.00  0.00    +0.000 OA
ATOM      8  C   UNL     1       0.280  10.270  22.280  0.00  0.00    +0.000 C 
ATOM      9  N   UNL     1      -0.393  11.328  21.698  0.00  0.00    +0.000 N 
ATOM     10  H   UNL     1      -0.629  11.251  20.717  0.00  0.00    +0.000 HD
BRANCH   9  11
ATOM     11  C   UNL     1      -0.923  12.444  22.383  0.00  0.00    +0.000 A 
ATOM     12  C   UNL     1      -0.285  13.686  22.425  0.00  0.00    +0.000 A 
ATOM     13  C   UNL     1      -0.868  14.766  23.090  0.00  0.00    +0.000 A 
ATOM     14  C   UNL     1      -2.093  14.606  23.734  0.00  0.00    +0.000 A 
ATOM     15  C   UNL     1      -2.738  13.368  23.712  0.00  0.00    +0.000 A 
ATOM     16  C   UNL     1      -2.160  12.292  23.023  0.00  0.00    +0.000 A 
BRANCH  14  17
ATOM     17  C   UNL     1      -2.727  15.776  24.377  0.00  0.00    +0.000 C 
ATOM     18  N   UNL     1      -4.026  15.853  24.502  0.00  0.00    +0.000 NA
ATOM     19  C   UNL     1      -4.274  17.145  25.189  0.00  0.00    +0.000 C 
ATOM     20  C   UNL     1      -2.913  17.811  25.395  0.00  0.00    +0.000 C 
ATOM     21  N   UNL     1      -1.993  16.825  24.878  0.00  0.00    +0.000 N 
ATOM     22  H   UNL     1      -1.274  17.179  24.255  0.00  0.00    +0.000 HD
ENDBRANCH  14  17
ENDBRANCH   9  11
ENDBRANCH   1   8
BRANCH   4  23
ATOM     23  C   UNL     1       2.377   6.524  18.454  0.00  0.00    +0.000 C 
ATOM     24  O   UNL     1       1.854   5.430  18.246  0.00  0.00    +0.000 OA
ATOM     25  N   UNL     1       3.528   7.005  17.850  0.00  0.00    +0.000 N 
ATOM     26  H   UNL     1       3.984   7.812  18.253  0.00  0.00    +0.000 HD
BRANCH  25  27
ATOM     27  C   UNL     1       4.229   6.345  16.814  0.00  0.00    +0.000 A 
ATOM     28  C   UNL     1       4.425   4.962  16.811  0.00  0.00    +0.000 A 
ATOM     29  C   UNL     1       5.132   4.337  15.783  0.00  0.00    +0.000 A 
ATOM     30  C   UNL     1       5.644   5.091  14.731  0.00  0.00    +0.000 A 
ATOM     31  C   UNL     1       5.438   6.475  14.712  0.00  0.00    +0.000 A 
ATOM     32  C   UNL     1       4.727   7.100  15.748  0.00  0.00    +0.000 A 
BRANCH  30  33
ATOM     33  C   UNL     1       6.355   4.407  13.626  0.00  0.00    +0.000 C 
ATOM     34  N   UNL     1       7.489   4.864  13.150  0.00  0.00    +0.000 NA
ATOM     35  C   UNL     1       7.823   3.934  12.034  0.00  0.00    +0.000 C 
ATOM     36  C   UNL     1       6.923   2.709  12.211  0.00  0.00    +0.000 C 
ATOM     37  N   UNL     1       5.876   3.259  13.037  0.00  0.00    +0.000 N 
ATOM     38  H   UNL     1       5.347   2.616  13.614  0.00  0.00    +0.000 HD
ENDBRANCH  30  33
ENDBRANCH  25  27
ENDBRANCH   4  23
TORSDOF 6
ENDMDL
