MODEL 1
REMARK VINA RESULT:      -7.8      0.000      0.000
REMARK  Name = 
REMARK  4 active torsions:
REMARK  status: ('A' for Active; 'I' for Inactive)
REMARK    1  A    between atoms: C_2  and  C_3
REMARK    2  A    between atoms: C_10  and  C_11
REMARK    3  A    between atoms: C_14  and  C_15
REMARK    4  A    between atoms: C_15  and  N_16
REMARK                            x       y       z     vdW  Elec       q    Type
REMARK                         _______ _______ _______ _____ _____    ______ ____
ROOT
ATOM      1  C   UNL     1       2.684   7.274  18.457  0.00  0.00    +0.000 A 
ATOM      2  C   UNL     1       2.357   7.211  19.819  0.00  0.00    +0.000 A 
ATOM      3  C   UNL     1       1.538   8.188  20.427  0.00  0.00    +0.000 A 
ATOM      4  C   UNL     1       0.969   9.222  19.672  0.00  0.00    +0.000 A 
ATOM      5  C   UNL     1       1.209   9.232  18.299  0.00  0.00    +0.000 A 
ATOM      6  C   UNL     1       2.064   8.297  17.715  0.00  0.00    +0.000 A 
ENDROOT
BRANCH   1  14
ATOM      7  C   UNL     1       2.846   3.923  18.586  0.00  0.00    +0.000 A 
ATOM      8  C   UNL     1       3.442   2.695  18.339  0.00  0.00    +0.000 A 
ATOM      9  N   UNL     1       4.548   2.915  17.571  0.00  0.00    +0.000 N 
ATOM     10  C   UNL     1       4.677   4.248  17.319  0.00  0.00    +0.000 A 
ATOM     11  N   UNL     1       5.711   4.740  16.620  0.00  0.00    +0.000 NA
ATOM     12  C   UNL     1       5.666   6.072  16.477  0.00  0.00    +0.000 A 
ATOM     13  C   UNL     1       4.665   6.887  16.976  0.00  0.00    +0.000 A 
ATOM     14  C   UNL     1       3.607   6.354  17.753  0.00  0.00    +0.000 A 
ATOM     15  C   UNL     1       3.612   4.940  17.916  0.00  0.00    +0.000 A 
ATOM     16  H   UNL     1       5.210   2.220  17.250  0.00  0.00    +0.000 HD
BRANCH   7  18
ATOM     17  N   UNL     1       0.739   4.135  20.088  0.00  0.00    +0.000 NA
ATOM     18  C   UNL     1       1.665   4.051  19.390  0.00  0.00    +0.000 C 
ENDBRANCH   7  18
ENDBRANCH   1  14
BRANCH   4  19
ATOM     19  C   UNL     1       0.053  10.269  20.267  0.00  0.00    +0.000 C 
BRANCH  19  20
ATOM     20  N   UNL     1       0.417  10.906  21.534  0.00  0.00    +0.000 NA
ATOM     21  C   UNL     1      -0.294  10.486  22.748  0.00  0.00    +0.000 C 
ATOM     22  C   UNL     1      -1.548  11.314  23.088  0.00  0.00    +0.000 C 
ATOM     23  O   UNL     1      -1.275  12.721  23.085  0.00  0.00    +0.000 OA
ATOM     24  C   UNL     1      -0.725  13.135  21.827  0.00  0.00    +0.000 C 
ATOM     25  C   UNL     1       0.561  12.363  21.504  0.00  0.00    +0.000 C 
ENDBRANCH  19  20
ENDBRANCH   4  19
TORSDOF 4
ENDMDL
MODEL 2
REMARK VINA RESULT:      -7.7      0.964      1.378
REMARK  Name = 
REMARK  4 active torsions:
REMARK  status: ('A' for Active; 'I' for Inactive)
REMARK    1  A    between atoms: C_2  and  C_3
REMARK    2  A    between atoms: C_10  and  C_11
REMARK    3  A    between atoms: C_14  and  C_15
REMARK    4  A    between atoms: C_15  and  N_16
REMARK                            x       y       z     vdW  Elec       q    Type
REMARK                         _______ _______ _______ _____ _____    ______ ____
ROOT
ATOM      1  C   UNL     1       2.889   6.837  18.242  0.00  0.00    +0.000 A 
ATOM      2  C   UNL     1       2.556   6.849  19.604  0.00  0.00    +0.000 A 
ATOM      3  C   UNL     1       1.916   7.959  20.197  0.00  0.00    +0.000 A 
ATOM      4  C   UNL     1       1.530   9.065  19.427  0.00  0.00    +0.000 A 
ATOM      5  C   UNL     1       1.768   9.014  18.055  0.00  0.00    +0.000 A 
ATOM      6  C   UNL     1       2.451   7.940  17.485  0.00  0.00    +0.000 A 
ENDROOT
BRANCH   1  14
ATOM      7  C   UNL     1       2.656   3.508  18.613  0.00  0.00    +0.000 A 
ATOM      8  C   UNL     1       3.081   2.201  18.421  0.00  0.00    +0.000 A 
ATOM      9  N   UNL     1       4.148   2.230  17.571  0.00  0.00    +0.000 N 
ATOM     10  C   UNL     1       4.417   3.516  17.212  0.00  0.00    +0.000 A 
ATOM     11  N   UNL     1       5.451   3.828  16.414  0.00  0.00    +0.000 NA
ATOM     12  C   UNL     1       5.555   5.142  16.174  0.00  0.00    +0.000 A 
ATOM     13  C   UNL     1       4.698   6.108  16.673  0.00  0.00    +0.000 A 
ATOM     14  C   UNL     1       3.642   5.764  17.553  0.00  0.00    +0.000 A 
ATOM     15  C   UNL     1       3.489   4.374  17.821  0.00  0.00    +0.000 A 
ATOM     16  H   UNL     1       4.696   1.437  17.262  0.00  0.00    +0.000 HD
BRANCH   7  18
ATOM     17  N   UNL     1       0.704   4.084  20.224  0.00  0.00    +0.000 NA
ATOM     18  C   UNL     1       1.560   3.835  19.477  0.00  0.00    +0.000 C 
ENDBRANCH   7  18
ENDBRANCH   1  14
BRANCH   4  19
ATOM     19  C   UNL     1       0.806  10.259  20.006  0.00  0.00    +0.000 C 
BRANCH  19  20
ATOM     20  N   UNL     1      -0.462  10.060  20.712  0.00  0.00    +0.000 NA
ATOM     21  C   UNL     1      -1.222  11.249  21.117  0.00  0.00    +0.000 C 
ATOM     22  C   UNL     1      -0.911  11.768  22.534  0.00  0.00    +0.000 C 
ATOM     23  O   UNL     1      -0.985  10.724  23.513  0.00  0.00    +0.000 OA
ATOM     24  C   UNL     1      -0.112   9.639  23.173  0.00  0.00    +0.000 C 
ATOM     25  C   UNL     1      -0.449   9.068  21.790  0.00  0.00    +0.000 C 
ENDBRANCH  19  20
ENDBRANCH   4  19
TORSDOF 4
ENDMDL
MODEL 3
REMARK VINA RESULT:      -7.6      1.309      1.613
REMARK  Name = 
REMARK  4 active torsions:
REMARK  status: ('A' for Active; 'I' for Inactive)
REMARK    1  A    between atoms: C_2  and  C_3
REMARK    2  A    between atoms: C_10  and  C_11
REMARK    3  A    between atoms: C_14  and  C_15
REMARK    4  A    between atoms: C_15  and  N_16
REMARK                            x       y       z     vdW  Elec       q    Type
REMARK                         _______ _______ _______ _____ _____    ______ ____
ROOT
ATOM      1  C   UNL     1       2.788   7.057  18.362  0.00  0.00    +0.000 A 
ATOM      2  C   UNL     1       2.452   7.032  19.723  0.00  0.00    +0.000 A 
ATOM      3  C   UNL     1       1.695   8.067  20.314  0.00  0.00    +0.000 A 
ATOM      4  C   UNL     1       1.196   9.126  19.543  0.00  0.00    +0.000 A 
ATOM      5  C   UNL     1       1.443   9.103  18.171  0.00  0.00    +0.000 A 
ATOM      6  C   UNL     1       2.239   8.108  17.604  0.00  0.00    +0.000 A 
ENDROOT
BRANCH   1  14
ATOM      7  C   UNL     1       2.796   3.708  18.606  0.00  0.00    +0.000 A 
ATOM      8  C   UNL     1       3.328   2.445  18.391  0.00  0.00    +0.000 A 
ATOM      9  N   UNL     1       4.429   2.587  17.596  0.00  0.00    +0.000 N 
ATOM     10  C   UNL     1       4.615   3.902  17.296  0.00  0.00    +0.000 A 
ATOM     11  N   UNL     1       5.658   4.321  16.562  0.00  0.00    +0.000 NA
ATOM     12  C   UNL     1       5.673   5.648  16.373  0.00  0.00    +0.000 A 
ATOM     13  C   UNL     1       4.721   6.526  16.861  0.00  0.00    +0.000 A 
ATOM     14  C   UNL     1       3.654   6.071  17.675  0.00  0.00    +0.000 A 
ATOM     15  C   UNL     1       3.596   4.664  17.887  0.00  0.00    +0.000 A 
ATOM     16  H   UNL     1       5.051   1.850  17.288  0.00  0.00    +0.000 HD
BRANCH   7  18
ATOM     17  N   UNL     1       0.728   4.067  20.134  0.00  0.00    +0.000 NA
ATOM     18  C   UNL     1       1.638   3.919  19.424  0.00  0.00    +0.000 C 
ENDBRANCH   7  18
ENDBRANCH   1  14
BRANCH   4  19
ATOM     19  C   UNL     1       0.347  10.237  20.120  0.00  0.00    +0.000 C 
BRANCH  19  20
ATOM     20  N   UNL     1       0.034  11.405  19.297  0.00  0.00    +0.000 NA
ATOM     21  C   UNL     1       0.583  12.705  19.703  0.00  0.00    +0.000 C 
ATOM     22  C   UNL     1      -0.330  13.538  20.623  0.00  0.00    +0.000 C 
ATOM     23  O   UNL     1      -1.656  13.658  20.093  0.00  0.00    +0.000 OA
ATOM     24  C   UNL     1      -2.230  12.367  19.851  0.00  0.00    +0.000 C 
ATOM     25  C   UNL     1      -1.366  11.547  18.886  0.00  0.00    +0.000 C 
ENDBRANCH  19  20
ENDBRANCH   4  19
TORSDOF 4
ENDMDL
MODEL 4
REMARK VINA RESULT:      -7.6      2.184      2.648
REMARK  Name = 
REMARK  4 active torsions:
REMARK  status: ('A' for Active; 'I' for Inactive)
REMARK    1  A    between atoms: C_2  and  C_3
REMARK    2  A    between atoms: C_10  and  C_11
REMARK    3  A    between atoms: C_14  and  C_15
REMARK    4  A    between atoms: C_15  and  N_16
REMARK                            x       y       z     vdW  Elec       q    Type
REMARK                         _______ _______ _______ _____ _____    ______ ____
ROOT
ATOM      1  C   UNL     1       2.904   7.242  18.591  0.00  0.00    +0.000 A 
ATOM      2  C   UNL     1       2.291   7.354  19.847  0.00  0.00    +0.000 A 
ATOM      3  C   UNL     1       1.338   8.361  20.116  0.00  0.00    +0.000 A 
ATOM      4  C   UNL     1       0.923   9.246  19.111  0.00  0.00    +0.000 A 
ATOM      5  C   UNL     1       1.454   9.074  17.834  0.00  0.00    +0.000 A 
ATOM      6  C   UNL     1       2.436   8.114  17.591  0.00  0.00    +0.000 A 
ENDROOT
BRANCH   1  14
ATOM      7  C   UNL     1       3.211   4.006  19.432  0.00  0.00    +0.000 A 
ATOM      8  C   UNL     1       3.902   2.806  19.538  0.00  0.00    +0.000 A 
ATOM      9  N   UNL     1       5.110   2.965  18.922  0.00  0.00    +0.000 N 
ATOM     10  C   UNL     1       5.211   4.229  18.424  0.00  0.00    +0.000 A 
ATOM     11  N   UNL     1       6.323   4.661  17.808  0.00  0.00    +0.000 NA
ATOM     12  C   UNL     1       6.235   5.931  17.389  0.00  0.00    +0.000 A 
ATOM     13  C   UNL     1       5.124   6.741  17.548  0.00  0.00    +0.000 A 
ATOM     14  C   UNL     1       3.978   6.283  18.244  0.00  0.00    +0.000 A 
ATOM     15  C   UNL     1       4.028   4.933  18.694  0.00  0.00    +0.000 A 
ATOM     16  H   UNL     1       5.850   2.278  18.858  0.00  0.00    +0.000 HD
BRANCH   7  18
ATOM     17  N   UNL     1       0.868   4.308  20.507  0.00  0.00    +0.000 NA
ATOM     18  C   UNL     1       1.907   4.188  19.998  0.00  0.00    +0.000 C 
ENDBRANCH   7  18
ENDBRANCH   1  14
BRANCH   4  19
ATOM     19  C   UNL     1      -0.123  10.315  19.336  0.00  0.00    +0.000 C 
BRANCH  19  20
ATOM     20  N   UNL     1      -0.829  10.885  18.187  0.00  0.00    +0.000 NA
ATOM     21  C   UNL     1      -1.603  12.115  18.392  0.00  0.00    +0.000 C 
ATOM     22  C   UNL     1      -3.085  11.898  18.757  0.00  0.00    +0.000 C 
ATOM     23  O   UNL     1      -3.733  11.001  17.846  0.00  0.00    +0.000 OA
ATOM     24  C   UNL     1      -3.042   9.746  17.783  0.00  0.00    +0.000 C 
ATOM     25  C   UNL     1      -1.580   9.939  17.359  0.00  0.00    +0.000 C 
ENDBRANCH  19  20
ENDBRANCH   4  19
TORSDOF 4
ENDMDL
MODEL 5
REMARK VINA RESULT:      -7.5      0.283      1.015
REMARK  Name = 
REMARK  4 active torsions:
REMARK  status: ('A' for Active; 'I' for Inactive)
REMARK    1  A    between atoms: C_2  and  C_3
REMARK    2  A    between atoms: C_10  and  C_11
REMARK    3  A    between atoms: C_14  and  C_15
REMARK    4  A    between atoms: C_15  and  N_16
REMARK                            x       y       z     vdW  Elec       q    Type
REMARK                         _______ _______ _______ _____ _____    ______ ____
ROOT
ATOM      1  C   UNL     1       2.841   7.218  18.256  0.00  0.00    +0.000 A 
ATOM      2  C   UNL     1       2.221   8.273  17.572  0.00  0.00    +0.000 A 
ATOM      3  C   UNL     1       1.297   9.127  18.215  0.00  0.00    +0.000 A 
ATOM      4  C   UNL     1       1.019   8.988  19.581  0.00  0.00    +0.000 A 
ATOM      5  C   UNL     1       1.709   8.004  20.288  0.00  0.00    +0.000 A 
ATOM      6  C   UNL     1       2.576   7.129  19.635  0.00  0.00    +0.000 A 
ENDROOT
BRANCH   1  14
ATOM      7  C   UNL     1       2.872   3.882  18.629  0.00  0.00    +0.000 A 
ATOM      8  C   UNL     1       3.427   2.617  18.487  0.00  0.00    +0.000 A 
ATOM      9  N   UNL     1       4.560   2.741  17.737  0.00  0.00    +0.000 N 
ATOM     10  C   UNL     1       4.746   4.047  17.394  0.00  0.00    +0.000 A 
ATOM     11  N   UNL     1       5.816   4.449  16.691  0.00  0.00    +0.000 NA
ATOM     12  C   UNL     1       5.825   5.768  16.452  0.00  0.00    +0.000 A 
ATOM     13  C   UNL     1       4.843   6.653  16.863  0.00  0.00    +0.000 A 
ATOM     14  C   UNL     1       3.746   6.216  17.646  0.00  0.00    +0.000 A 
ATOM     15  C   UNL     1       3.694   4.818  17.910  0.00  0.00    +0.000 A 
ATOM     16  H   UNL     1       5.203   2.001  17.485  0.00  0.00    +0.000 HD
BRANCH   7  18
ATOM     17  N   UNL     1       0.741   4.307  20.050  0.00  0.00    +0.000 NA
ATOM     18  C   UNL     1       1.677   4.109  19.388  0.00  0.00    +0.000 C 
ENDBRANCH   7  18
ENDBRANCH   1  14
BRANCH   4  19
ATOM     19  C   UNL     1       0.070   9.901  20.325  0.00  0.00    +0.000 C 
BRANCH  19  20
ATOM     20  N   UNL     1       0.515  10.551  21.559  0.00  0.00    +0.000 NA
ATOM     21  C   UNL     1      -0.132  10.163  22.818  0.00  0.00    +0.000 C 
ATOM     22  C   UNL     1      -1.350  11.019  23.214  0.00  0.00    +0.000 C 
ATOM     23  O   UNL     1      -1.054  12.421  23.172  0.00  0.00    +0.000 OA
ATOM     24  C   UNL     1      -0.570  12.804  21.878  0.00  0.00    +0.000 C 
ATOM     25  C   UNL     1       0.682  12.006  21.495  0.00  0.00    +0.000 C 
ENDBRANCH  19  20
ENDBRANCH   4  19
TORSDOF 4
ENDMDL
MODEL 6
REMARK VINA RESULT:      -7.4      1.391      1.768
REMARK  Name = 
REMARK  4 active torsions:
REMARK  status: ('A' for Active; 'I' for Inactive)
REMARK    1  A    between atoms: C_2  and  C_3
REMARK    2  A    between atoms: C_10  and  C_11
REMARK    3  A    between atoms: C_14  and  C_15
REMARK    4  A    between atoms: C_15  and  N_16
REMARK                            x       y       z     vdW  Elec       q    Type
REMARK                         _______ _______ _______ _____ _____    ______ ____
ROOT
ATOM      1  C   UNL     1       2.887   6.877  18.267  0.00  0.00    +0.000 A 
ATOM      2  C   UNL     1       2.507   6.869  19.617  0.00  0.00    +0.000 A 
ATOM      3  C   UNL     1       1.865   7.979  20.209  0.00  0.00    +0.000 A 
ATOM      4  C   UNL     1       1.527   9.107  19.447  0.00  0.00    +0.000 A 
ATOM      5  C   UNL     1       1.813   9.078  18.083  0.00  0.00    +0.000 A 
ATOM      6  C   UNL     1       2.497   8.003  17.517  0.00  0.00    +0.000 A 
ENDROOT
BRANCH   1  14
ATOM      7  C   UNL     1       2.668   3.550  18.654  0.00  0.00    +0.000 A 
ATOM      8  C   UNL     1       3.098   2.243  18.469  0.00  0.00    +0.000 A 
ATOM      9  N   UNL     1       4.165   2.272  17.620  0.00  0.00    +0.000 N 
ATOM     10  C   UNL     1       4.430   3.558  17.254  0.00  0.00    +0.000 A 
ATOM     11  N   UNL     1       5.463   3.869  16.456  0.00  0.00    +0.000 NA
ATOM     12  C   UNL     1       5.562   5.183  16.210  0.00  0.00    +0.000 A 
ATOM     13  C   UNL     1       4.700   6.148  16.703  0.00  0.00    +0.000 A 
ATOM     14  C   UNL     1       3.645   5.804  17.584  0.00  0.00    +0.000 A 
ATOM     15  C   UNL     1       3.498   4.415  17.859  0.00  0.00    +0.000 A 
ATOM     16  H   UNL     1       4.717   1.480  17.315  0.00  0.00    +0.000 HD
BRANCH   7  18
ATOM     17  N   UNL     1       0.696   4.199  20.213  0.00  0.00    +0.000 NA
ATOM     18  C   UNL     1       1.570   3.877  19.516  0.00  0.00    +0.000 C 
ENDBRANCH   7  18
ENDBRANCH   1  14
BRANCH   4  19
ATOM     19  C   UNL     1       0.804  10.303  20.024  0.00  0.00    +0.000 C 
BRANCH  19  20
ATOM     20  N   UNL     1      -0.659  10.317  20.048  0.00  0.00    +0.000 NA
ATOM     21  C   UNL     1      -1.372  10.357  18.766  0.00  0.00    +0.000 C 
ATOM     22  C   UNL     1      -1.710  11.771  18.254  0.00  0.00    +0.000 C 
ATOM     23  O   UNL     1      -2.364  12.559  19.256  0.00  0.00    +0.000 OA
ATOM     24  C   UNL     1      -1.572  12.633  20.448  0.00  0.00    +0.000 C 
ATOM     25  C   UNL     1      -1.279  11.236  21.007  0.00  0.00    +0.000 C 
ENDBRANCH  19  20
ENDBRANCH   4  19
TORSDOF 4
ENDMDL
MODEL 7
REMARK VINA RESULT:      -7.4      0.877      1.119
REMARK  Name = 
REMARK  4 active torsions:
REMARK  status: ('A' for Active; 'I' for Inactive)
REMARK    1  A    between atoms: C_2  and  C_3
REMARK    2  A    between atoms: C_10  and  C_11
REMARK    3  A    between atoms: C_14  and  C_15
REMARK    4  A    between atoms: C_15  and  N_16
REMARK                            x       y       z     vdW  Elec       q    Type
REMARK                         _______ _______ _______ _____ _____    ______ ____
ROOT
ATOM      1  C   UNL     1       2.598   7.330  18.559  0.00  0.00    +0.000 A 
ATOM      2  C   UNL     1       2.309   7.234  19.927  0.00  0.00    +0.000 A 
ATOM      3  C   UNL     1       1.493   8.187  20.577  0.00  0.00    +0.000 A 
ATOM      4  C   UNL     1       0.889   9.228  19.858  0.00  0.00    +0.000 A 
ATOM      5  C   UNL     1       1.092   9.269  18.480  0.00  0.00    +0.000 A 
ATOM      6  C   UNL     1       1.944   8.358  17.855  0.00  0.00    +0.000 A 
ENDROOT
BRANCH   1  14
ATOM      7  C   UNL     1       2.815   3.980  18.620  0.00  0.00    +0.000 A 
ATOM      8  C   UNL     1       3.422   2.765  18.333  0.00  0.00    +0.000 A 
ATOM      9  N   UNL     1       4.502   3.018  17.538  0.00  0.00    +0.000 N 
ATOM     10  C   UNL     1       4.604   4.357  17.308  0.00  0.00    +0.000 A 
ATOM     11  N   UNL     1       5.610   4.878  16.590  0.00  0.00    +0.000 NA
ATOM     12  C   UNL     1       5.541   6.211  16.473  0.00  0.00    +0.000 A 
ATOM     13  C   UNL     1       4.542   7.001  17.016  0.00  0.00    +0.000 A 
ATOM     14  C   UNL     1       3.515   6.437  17.812  0.00  0.00    +0.000 A 
ATOM     15  C   UNL     1       3.546   5.020  17.948  0.00  0.00    +0.000 A 
ATOM     16  H   UNL     1       5.165   2.338  17.186  0.00  0.00    +0.000 HD
BRANCH   7  18
ATOM     17  N   UNL     1       0.747   4.183  20.176  0.00  0.00    +0.000 NA
ATOM     18  C   UNL     1       1.656   4.074  19.459  0.00  0.00    +0.000 C 
ENDBRANCH   7  18
ENDBRANCH   1  14
BRANCH   4  19
ATOM     19  C   UNL     1      -0.024  10.249  20.499  0.00  0.00    +0.000 C 
BRANCH  19  20
ATOM     20  N   UNL     1       0.556  11.363  21.250  0.00  0.00    +0.000 NA
ATOM     21  C   UNL     1      -0.340  12.185  22.072  0.00  0.00    +0.000 C 
ATOM     22  C   UNL     1      -0.926  13.420  21.360  0.00  0.00    +0.000 C 
ATOM     23  O   UNL     1       0.092  14.205  20.727  0.00  0.00    +0.000 OA
ATOM     24  C   UNL     1       0.855  13.411  19.809  0.00  0.00    +0.000 C 
ATOM     25  C   UNL     1       1.499  12.212  20.515  0.00  0.00    +0.000 C 
ENDBRANCH  19  20
ENDBRANCH   4  19
TORSDOF 4
ENDMDL
MODEL 8
REMARK VINA RESULT:      -7.4      1.186      1.267
REMARK  Name = 
REMARK  4 active torsions:
REMARK  status: ('A' for Active; 'I' for Inactive)
REMARK    1  A    between atoms: C_2  and  C_3
REMARK    2  A    between atoms: C_10  and  C_11
REMARK    3  A    between atoms: C_14  and  C_15
REMARK    4  A    between atoms: C_15  and  N_16
REMARK                            x       y       z     vdW  Elec       q    Type
REMARK                         _______ _______ _______ _____ _____    ______ ____
ROOT
ATOM      1  C   UNL     1       3.454   7.157  18.167  0.00  0.00    +0.000 A 
ATOM      2  C   UNL     1       2.887   6.812  19.402  0.00  0.00    +0.000 A 
ATOM      3  C   UNL     1       1.903   7.619  20.013  0.00  0.00    +0.000 A 
ATOM      4  C   UNL     1       1.410   8.763  19.372  0.00  0.00    +0.000 A 
ATOM      5  C   UNL     1       1.898   9.056  18.100  0.00  0.00    +0.000 A 
ATOM      6  C   UNL     1       2.910   8.286  17.527  0.00  0.00    +0.000 A 
ENDROOT
BRANCH   1  14
ATOM      7  C   UNL     1       3.580   3.953  17.173  0.00  0.00    +0.000 A 
ATOM      8  C   UNL     1       4.228   2.819  16.704  0.00  0.00    +0.000 A 
ATOM      9  N   UNL     1       5.519   3.163  16.423  0.00  0.00    +0.000 N 
ATOM     10  C   UNL     1       5.715   4.483  16.697  0.00  0.00    +0.000 A 
ATOM     11  N   UNL     1       6.914   5.066  16.549  0.00  0.00    +0.000 NA
ATOM     12  C   UNL     1       6.911   6.368  16.868  0.00  0.00    +0.000 A 
ATOM     13  C   UNL     1       5.801   7.074  17.299  0.00  0.00    +0.000 A 
ATOM     14  C   UNL     1       4.555   6.429  17.495  0.00  0.00    +0.000 A 
ATOM     15  C   UNL     1       4.515   5.047  17.153  0.00  0.00    +0.000 A 
ATOM     16  H   UNL     1       6.250   2.546  16.092  0.00  0.00    +0.000 HD
BRANCH   7  18
ATOM     17  N   UNL     1       1.084   3.963  17.886  0.00  0.00    +0.000 NA
ATOM     18  C   UNL     1       2.207   3.932  17.585  0.00  0.00    +0.000 C 
ENDBRANCH   7  18
ENDBRANCH   1  14
BRANCH   4  19
ATOM     19  C   UNL     1       0.328   9.638  19.966  0.00  0.00    +0.000 C 
BRANCH  19  20
ATOM     20  N   UNL     1       0.633  10.469  21.131  0.00  0.00    +0.000 NA
ATOM     21  C   UNL     1       0.568   9.847  22.460  0.00  0.00    +0.000 C 
ATOM     22  C   UNL     1      -0.797   9.962  23.166  0.00  0.00    +0.000 C 
ATOM     23  O   UNL     1      -1.278  11.312  23.181  0.00  0.00    +0.000 OA
ATOM     24  C   UNL     1      -1.354  11.844  21.852  0.00  0.00    +0.000 C 
ATOM     25  C   UNL     1       0.012  11.796  21.156  0.00  0.00    +0.000 C 
ENDBRANCH  19  20
ENDBRANCH   4  19
TORSDOF 4
ENDMDL
MODEL 9
REMARK VINA RESULT:      -7.3      2.243      2.832
REMARK  Name = 
REMARK  4 active torsions:
REMARK  status: ('A' for Active; 'I' for Inactive)
REMARK    1  A    between atoms: C_2  and  C_3
REMARK    2  A    between atoms: C_10  and  C_11
REMARK    3  A    between atoms: C_14  and  C_15
REMARK    4  A    between atoms: C_15  and  N_16
REMARK                            x       y       z     vdW  Elec       q    Type
REMARK                         _______ _______ _______ _____ _____    ______ ____
ROOT
ATOM      1  C   UNL     1       3.098   7.179  18.535  0.00  0.00    +0.000 A 
ATOM      2  C   UNL     1       2.642   8.051  17.537  0.00  0.00    +0.000 A 
ATOM      3  C   UNL     1       1.574   8.944  17.771  0.00  0.00    +0.000 A 
ATOM      4  C   UNL     1       0.974   9.036  19.034  0.00  0.00    +0.000 A 
ATOM      5  C   UNL     1       1.491   8.242  20.057  0.00  0.00    +0.000 A 
ATOM      6  C   UNL     1       2.508   7.322  19.805  0.00  0.00    +0.000 A 
ENDROOT
BRANCH   1  14
ATOM      7  C   UNL     1       3.145   4.001  19.619  0.00  0.00    +0.000 A 
ATOM      8  C   UNL     1       3.755   2.780  19.871  0.00  0.00    +0.000 A 
ATOM      9  N   UNL     1       5.021   2.833  19.363  0.00  0.00    +0.000 N 
ATOM     10  C   UNL     1       5.238   4.051  18.793  0.00  0.00    +0.000 A 
ATOM     11  N   UNL     1       6.424   4.381  18.257  0.00  0.00    +0.000 NA
ATOM     12  C   UNL     1       6.446   5.620  17.746  0.00  0.00    +0.000 A 
ATOM     13  C   UNL     1       5.373   6.493  17.743  0.00  0.00    +0.000 A 
ATOM     14  C   UNL     1       4.144   6.145  18.358  0.00  0.00    +0.000 A 
ATOM     15  C   UNL     1       4.077   4.830  18.900  0.00  0.00    +0.000 A 
ATOM     16  H   UNL     1       5.724   2.107  19.417  0.00  0.00    +0.000 HD
BRANCH   7  18
ATOM     17  N   UNL     1       0.702   4.487  20.348  0.00  0.00    +0.000 NA
ATOM     18  C   UNL     1       1.808   4.288  20.046  0.00  0.00    +0.000 C 
ENDBRANCH   7  18
ENDBRANCH   1  14
BRANCH   4  19
ATOM     19  C   UNL     1      -0.145  10.004  19.347  0.00  0.00    +0.000 C 
BRANCH  19  20
ATOM     20  N   UNL     1      -0.782  10.743  18.256  0.00  0.00    +0.000 NA
ATOM     21  C   UNL     1      -1.438  12.018  18.574  0.00  0.00    +0.000 C 
ATOM     22  C   UNL     1      -2.936  11.911  18.917  0.00  0.00    +0.000 C 
ATOM     23  O   UNL     1      -3.659  11.169  17.926  0.00  0.00    +0.000 OA
ATOM     24  C   UNL     1      -3.091   9.865  17.747  0.00  0.00    +0.000 C 
ATOM     25  C   UNL     1      -1.614   9.954  17.343  0.00  0.00    +0.000 C 
ENDBRANCH  19  20
ENDBRANCH   4  19
TORSDOF 4
ENDMDL
