MODEL 1
REMARK VINA RESULT:      -6.4      0.000      0.000
REMARK  Name = 
REMARK  6 active torsions:
REMARK  status: ('A' for Active; 'I' for Inactive)
REMARK    1  A    between atoms: C_2  and  O_3
REMARK    2  A    between atoms: C_2  and  C_4
REMARK    3  A    between atoms: C_9  and  C_11
REMARK    4  A    between atoms: C_11  and  C_12
REMARK    5  A    between atoms: C_11  and  C_14
REMARK    6  A    between atoms: C_12  and  S_13
REMARK                            x       y       z     vdW  Elec       q    Type
REMARK                         _______ _______ _______ _____ _____    ______ ____
ROOT
ATOM      1  C   UNL     1       3.251   3.312  19.577  0.00  0.00    +0.000 C 
ATOM      2  C   UNL     1       1.870   2.687  19.305  0.00  0.00    +0.000 C 
ATOM      3  C   UNL     1       1.289   3.512  18.175  0.00  0.00    +0.000 C 
ATOM      4  C   UNL     1       2.500   3.933  17.366  0.00  0.00    +0.000 C 
ATOM      5  N   UNL     1       3.671   3.724  18.215  0.00  0.00    +0.000 N 
ATOM      6  C   UNL     1       4.920   4.220  17.903  0.00  0.00    +0.000 C 
ATOM      7  O   UNL     1       5.842   4.161  18.719  0.00  0.00    +0.000 OA
ENDROOT
BRANCH   1   9
ATOM      8  O   UNL     1       3.785   2.110  21.630  0.00  0.00    +0.000 OA
ATOM      9  C   UNL     1       4.037   2.302  20.448  0.00  0.00    +0.000 C 
BRANCH   9  10
ATOM     10  O   UNL     1       5.116   1.734  19.879  0.00  0.00    +0.000 OA
ATOM     11  H   UNL     1       5.306   2.068  18.971  0.00  0.00    +0.000 HD
ENDBRANCH   9  10
ENDBRANCH   1   9
BRANCH   6  12
ATOM     12  C   UNL     1       5.138   4.797  16.517  0.00  0.00    +0.000 C 
BRANCH  12  13
ATOM     13  C   UNL     1       5.236   6.299  16.667  0.00  0.00    +0.000 C 
ATOM     14  F   UNL     1       6.466   6.721  17.033  0.00  0.00    +0.000 F 
ATOM     15  F   UNL     1       4.903   6.965  15.541  0.00  0.00    +0.000 F 
ATOM     16  F   UNL     1       4.390   6.714  17.643  0.00  0.00    +0.000 F 
ENDBRANCH  12  13
BRANCH  12  17
ATOM     17  C   UNL     1       6.355   4.147  15.861  0.00  0.00    +0.000 C 
BRANCH  17  18
ATOM     18  S   UNL     1       6.213   4.056  14.044  0.00  0.00    +0.000 S 
ATOM     19  H   UNL     1       5.244   3.125  14.003  0.00  0.00    +0.000 HD
ENDBRANCH  17  18
ENDBRANCH  12  17
ENDBRANCH   6  12
TORSDOF 6
ENDMDL
MODEL 2
REMARK VINA RESULT:      -6.2      3.397      5.194
REMARK  Name = 
REMARK  6 active torsions:
REMARK  status: ('A' for Active; 'I' for Inactive)
REMARK    1  A    between atoms: C_2  and  O_3
REMARK    2  A    between atoms: C_2  and  C_4
REMARK    3  A    between atoms: C_9  and  C_11
REMARK    4  A    between atoms: C_11  and  C_12
REMARK    5  A    between atoms: C_11  and  C_14
REMARK    6  A    between atoms: C_12  and  S_13
REMARK                            x       y       z     vdW  Elec       q    Type
REMARK                         _______ _______ _______ _____ _____    ______ ____
ROOT
ATOM      1  C   UNL     1       5.048   5.091  16.426  0.00  0.00    +0.000 C 
ATOM      2  C   UNL     1       5.499   6.557  16.560  0.00  0.00    +0.000 C 
ATOM      3  C   UNL     1       4.332   7.259  17.224  0.00  0.00    +0.000 C 
ATOM      4  C   UNL     1       3.721   6.196  18.115  0.00  0.00    +0.000 C 
ATOM      5  N   UNL     1       4.236   4.908  17.654  0.00  0.00    +0.000 N 
ATOM      6  C   UNL     1       3.716   3.701  18.069  0.00  0.00    +0.000 C 
ATOM      7  O   UNL     1       4.070   2.646  17.538  0.00  0.00    +0.000 OA
ENDROOT
BRANCH   1   9
ATOM      8  O   UNL     1       7.448   4.695  16.253  0.00  0.00    +0.000 OA
ATOM      9  C   UNL     1       6.314   4.260  16.103  0.00  0.00    +0.000 C 
BRANCH   9  10
ATOM     10  O   UNL     1       6.113   3.068  15.512  0.00  0.00    +0.000 OA
ATOM     11  H   UNL     1       6.939   2.649  15.175  0.00  0.00    +0.000 HD
ENDBRANCH   9  10
ENDBRANCH   1   9
BRANCH   6  12
ATOM     12  C   UNL     1       2.733   3.702  19.225  0.00  0.00    +0.000 C 
BRANCH  12  13
ATOM     13  C   UNL     1       1.363   3.415  18.650  0.00  0.00    +0.000 C 
ATOM     14  F   UNL     1       1.184   2.117  18.319  0.00  0.00    +0.000 F 
ATOM     15  F   UNL     1       0.358   3.759  19.482  0.00  0.00    +0.000 F 
ATOM     16  F   UNL     1       1.195   4.122  17.504  0.00  0.00    +0.000 F 
ENDBRANCH  12  13
BRANCH  12  17
ATOM     17  C   UNL     1       3.185   2.718  20.303  0.00  0.00    +0.000 C 
BRANCH  17  18
ATOM     18  S   UNL     1       2.150   2.790  21.804  0.00  0.00    +0.000 S 
ATOM     19  H   UNL     1       1.113   2.084  21.320  0.00  0.00    +0.000 HD
ENDBRANCH  17  18
ENDBRANCH  12  17
ENDBRANCH   6  12
TORSDOF 6
ENDMDL
MODEL 3
REMARK VINA RESULT:      -6.2      2.114      2.534
REMARK  Name = 
REMARK  6 active torsions:
REMARK  status: ('A' for Active; 'I' for Inactive)
REMARK    1  A    between atoms: C_2  and  O_3
REMARK    2  A    between atoms: C_2  and  C_4
REMARK    3  A    between atoms: C_9  and  C_11
REMARK    4  A    between atoms: C_11  and  C_12
REMARK    5  A    between atoms: C_11  and  C_14
REMARK    6  A    between atoms: C_12  and  S_13
REMARK                            x       y       z     vdW  Elec       q    Type
REMARK                         _______ _______ _______ _____ _____    ______ ____
ROOT
ATOM      1  C   UNL     1       3.013   4.531  20.642  0.00  0.00    +0.000 C 
ATOM      2  C   UNL     1       1.729   5.371  20.519  0.00  0.00    +0.000 C 
ATOM      3  C   UNL     1       2.179   6.675  19.894  0.00  0.00    +0.000 C 
ATOM      4  C   UNL     1       3.337   6.276  19.002  0.00  0.00    +0.000 C 
ATOM      5  N   UNL     1       3.764   4.945  19.430  0.00  0.00    +0.000 N 
ATOM      6  C   UNL     1       4.941   4.364  19.009  0.00  0.00    +0.000 C 
ATOM      7  O   UNL     1       5.342   3.314  19.516  0.00  0.00    +0.000 OA
ENDROOT
BRANCH   1   9
ATOM      8  O   UNL     1       2.495   2.610  22.051  0.00  0.00    +0.000 OA
ATOM      9  C   UNL     1       2.572   3.074  20.921  0.00  0.00    +0.000 C 
BRANCH   9  10
ATOM     10  O   UNL     1       2.405   2.283  19.846  0.00  0.00    +0.000 OA
ATOM     11  H   UNL     1       1.499   1.902  19.772  0.00  0.00    +0.000 HD
ENDBRANCH   9  10
ENDBRANCH   1   9
BRANCH   6  12
ATOM     12  C   UNL     1       5.705   5.027  17.878  0.00  0.00    +0.000 C 
BRANCH  12  13
ATOM     13  C   UNL     1       7.055   5.433  18.425  0.00  0.00    +0.000 C 
ATOM     14  F   UNL     1       7.540   6.564  17.868  0.00  0.00    +0.000 F 
ATOM     15  F   UNL     1       7.050   5.615  19.762  0.00  0.00    +0.000 F 
ATOM     16  F   UNL     1       7.965   4.462  18.156  0.00  0.00    +0.000 F 
ENDBRANCH  12  13
BRANCH  12  17
ATOM     17  C   UNL     1       5.767   4.096  16.668  0.00  0.00    +0.000 C 
BRANCH  17  18
ATOM     18  S   UNL     1       6.260   4.960  15.138  0.00  0.00    +0.000 S 
ATOM     19  H   UNL     1       6.728   3.881  14.486  0.00  0.00    +0.000 HD
ENDBRANCH  17  18
ENDBRANCH  12  17
ENDBRANCH   6  12
TORSDOF 6
ENDMDL
MODEL 4
REMARK VINA RESULT:      -6.2      3.224      4.926
REMARK  Name = 
REMARK  6 active torsions:
REMARK  status: ('A' for Active; 'I' for Inactive)
REMARK    1  A    between atoms: C_2  and  O_3
REMARK    2  A    between atoms: C_2  and  C_4
REMARK    3  A    between atoms: C_9  and  C_11
REMARK    4  A    between atoms: C_11  and  C_12
REMARK    5  A    between atoms: C_11  and  C_14
REMARK    6  A    between atoms: C_12  and  S_13
REMARK                            x       y       z     vdW  Elec       q    Type
REMARK                         _______ _______ _______ _____ _____    ______ ____
ROOT
ATOM      1  C   UNL     1       6.871   4.657  17.732  0.00  0.00    +0.000 C 
ATOM      2  C   UNL     1       7.392   5.081  16.347  0.00  0.00    +0.000 C 
ATOM      3  C   UNL     1       6.529   4.320  15.361  0.00  0.00    +0.000 C 
ATOM      4  C   UNL     1       5.189   4.204  16.058  0.00  0.00    +0.000 C 
ATOM      5  N   UNL     1       5.419   4.491  17.473  0.00  0.00    +0.000 N 
ATOM      6  C   UNL     1       4.478   4.245  18.450  0.00  0.00    +0.000 C 
ATOM      7  O   UNL     1       4.768   4.349  19.644  0.00  0.00    +0.000 OA
ENDROOT
BRANCH   1   9
ATOM      8  O   UNL     1       7.980   6.715  18.425  0.00  0.00    +0.000 OA
ATOM      9  C   UNL     1       7.449   5.663  18.757  0.00  0.00    +0.000 C 
BRANCH   9  10
ATOM     10  O   UNL     1       7.464   5.266  20.042  0.00  0.00    +0.000 OA
ATOM     11  H   UNL     1       8.207   4.656  20.258  0.00  0.00    +0.000 HD
ENDBRANCH   9  10
ENDBRANCH   1   9
BRANCH   6  12
ATOM     12  C   UNL     1       3.068   3.888  18.016  0.00  0.00    +0.000 C 
BRANCH  12  13
ATOM     13  C   UNL     1       2.837   2.441  18.391  0.00  0.00    +0.000 C 
ATOM     14  F   UNL     1       1.794   1.880  17.739  0.00  0.00    +0.000 F 
ATOM     15  F   UNL     1       3.915   1.659  18.170  0.00  0.00    +0.000 F 
ATOM     16  F   UNL     1       2.544   2.355  19.713  0.00  0.00    +0.000 F 
ENDBRANCH  12  13
BRANCH  12  17
ATOM     17  C   UNL     1       2.066   4.867  18.624  0.00  0.00    +0.000 C 
BRANCH  17  18
ATOM     18  S   UNL     1       2.514   6.611  18.330  0.00  0.00    +0.000 S 
ATOM     19  H   UNL     1       2.854   6.474  17.036  0.00  0.00    +0.000 HD
ENDBRANCH  17  18
ENDBRANCH  12  17
ENDBRANCH   6  12
TORSDOF 6
ENDMDL
MODEL 5
REMARK VINA RESULT:      -6.2      2.093      2.571
REMARK  Name = 
REMARK  6 active torsions:
REMARK  status: ('A' for Active; 'I' for Inactive)
REMARK    1  A    between atoms: C_2  and  O_3
REMARK    2  A    between atoms: C_2  and  C_4
REMARK    3  A    between atoms: C_9  and  C_11
REMARK    4  A    between atoms: C_11  and  C_12
REMARK    5  A    between atoms: C_11  and  C_14
REMARK    6  A    between atoms: C_12  and  S_13
REMARK                            x       y       z     vdW  Elec       q    Type
REMARK                         _______ _______ _______ _____ _____    ______ ____
ROOT
ATOM      1  C   UNL     1       3.001   4.483  20.557  0.00  0.00    +0.000 C 
ATOM      2  C   UNL     1       1.734   5.350  20.453  0.00  0.00    +0.000 C 
ATOM      3  C   UNL     1       2.210   6.659  19.857  0.00  0.00    +0.000 C 
ATOM      4  C   UNL     1       3.361   6.256  18.957  0.00  0.00    +0.000 C 
ATOM      5  N   UNL     1       3.761   4.908  19.356  0.00  0.00    +0.000 N 
ATOM      6  C   UNL     1       4.927   4.314  18.923  0.00  0.00    +0.000 C 
ATOM      7  O   UNL     1       5.307   3.245  19.407  0.00  0.00    +0.000 OA
ENDROOT
BRANCH   1   9
ATOM      8  O   UNL     1       1.952   2.366  19.954  0.00  0.00    +0.000 OA
ATOM      9  C   UNL     1       2.532   3.028  20.804  0.00  0.00    +0.000 C 
BRANCH   9  10
ATOM     10  O   UNL     1       2.669   2.560  22.058  0.00  0.00    +0.000 OA
ATOM     11  H   UNL     1       2.704   1.577  22.111  0.00  0.00    +0.000 HD
ENDBRANCH   9  10
ENDBRANCH   1   9
BRANCH   6  12
ATOM     12  C   UNL     1       5.705   4.986  17.807  0.00  0.00    +0.000 C 
BRANCH  12  13
ATOM     13  C   UNL     1       7.070   5.335  18.358  0.00  0.00    +0.000 C 
ATOM     14  F   UNL     1       7.069   5.548  19.692  0.00  0.00    +0.000 F 
ATOM     15  F   UNL     1       8.000   4.391  18.103  0.00  0.00    +0.000 F 
ATOM     16  F   UNL     1       7.505   6.490  17.793  0.00  0.00    +0.000 F 
ENDBRANCH  12  13
BRANCH  12  17
ATOM     17  C   UNL     1       5.733   4.090  16.570  0.00  0.00    +0.000 C 
BRANCH  17  18
ATOM     18  S   UNL     1       6.196   4.994  15.054  0.00  0.00    +0.000 S 
ATOM     19  H   UNL     1       6.588   6.130  15.656  0.00  0.00    +0.000 HD
ENDBRANCH  17  18
ENDBRANCH  12  17
ENDBRANCH   6  12
TORSDOF 6
ENDMDL
MODEL 6
REMARK VINA RESULT:      -6.1      3.319      5.147
REMARK  Name = 
REMARK  6 active torsions:
REMARK  status: ('A' for Active; 'I' for Inactive)
REMARK    1  A    between atoms: C_2  and  O_3
REMARK    2  A    between atoms: C_2  and  C_4
REMARK    3  A    between atoms: C_9  and  C_11
REMARK    4  A    between atoms: C_11  and  C_12
REMARK    5  A    between atoms: C_11  and  C_14
REMARK    6  A    between atoms: C_12  and  S_13
REMARK                            x       y       z     vdW  Elec       q    Type
REMARK                         _______ _______ _______ _____ _____    ______ ____
ROOT
ATOM      1  C   UNL     1       6.919   5.124  17.314  0.00  0.00    +0.000 C 
ATOM      2  C   UNL     1       7.021   5.093  15.779  0.00  0.00    +0.000 C 
ATOM      3  C   UNL     1       6.075   3.989  15.353  0.00  0.00    +0.000 C 
ATOM      4  C   UNL     1       4.976   4.023  16.395  0.00  0.00    +0.000 C 
ATOM      5  N   UNL     1       5.491   4.783  17.532  0.00  0.00    +0.000 N 
ATOM      6  C   UNL     1       4.862   4.817  18.758  0.00  0.00    +0.000 C 
ATOM      7  O   UNL     1       5.411   5.335  19.733  0.00  0.00    +0.000 OA
ENDROOT
BRANCH   1   9
ATOM      8  O   UNL     1       7.671   7.429  17.049  0.00  0.00    +0.000 OA
ATOM      9  C   UNL     1       7.563   6.453  17.780  0.00  0.00    +0.000 C 
BRANCH   9  10
ATOM     10  O   UNL     1       8.132   6.447  18.998  0.00  0.00    +0.000 OA
ATOM     11  H   UNL     1       9.081   6.714  18.994  0.00  0.00    +0.000 HD
ENDBRANCH   9  10
ENDBRANCH   1   9
BRANCH   6  12
ATOM     12  C   UNL     1       3.462   4.240  18.864  0.00  0.00    +0.000 C 
BRANCH  12  13
ATOM     13  C   UNL     1       3.559   2.973  19.684  0.00  0.00    +0.000 C 
ATOM     14  F   UNL     1       4.798   2.435  19.692  0.00  0.00    +0.000 F 
ATOM     15  F   UNL     1       3.190   3.148  20.971  0.00  0.00    +0.000 F 
ATOM     16  F   UNL     1       2.742   2.028  19.157  0.00  0.00    +0.000 F 
ENDBRANCH  12  13
BRANCH  12  17
ATOM     17  C   UNL     1       2.502   5.287  19.427  0.00  0.00    +0.000 C 
BRANCH  17  18
ATOM     18  S   UNL     1       2.526   6.847  18.482  0.00  0.00    +0.000 S 
ATOM     19  H   UNL     1       1.948   7.615  19.422  0.00  0.00    +0.000 HD
ENDBRANCH  17  18
ENDBRANCH  12  17
ENDBRANCH   6  12
TORSDOF 6
ENDMDL
MODEL 7
REMARK VINA RESULT:      -6.1      3.313      4.938
REMARK  Name = 
REMARK  6 active torsions:
REMARK  status: ('A' for Active; 'I' for Inactive)
REMARK    1  A    between atoms: C_2  and  O_3
REMARK    2  A    between atoms: C_2  and  C_4
REMARK    3  A    between atoms: C_9  and  C_11
REMARK    4  A    between atoms: C_11  and  C_12
REMARK    5  A    between atoms: C_11  and  C_14
REMARK    6  A    between atoms: C_12  and  S_13
REMARK                            x       y       z     vdW  Elec       q    Type
REMARK                         _______ _______ _______ _____ _____    ______ ____
ROOT
ATOM      1  C   UNL     1       5.988   5.188  17.520  0.00  0.00    +0.000 C 
ATOM      2  C   UNL     1       5.951   6.710  17.296  0.00  0.00    +0.000 C 
ATOM      3  C   UNL     1       4.486   7.034  17.090  0.00  0.00    +0.000 C 
ATOM      4  C   UNL     1       3.759   6.017  17.946  0.00  0.00    +0.000 C 
ATOM      5  N   UNL     1       4.718   4.957  18.253  0.00  0.00    +0.000 N 
ATOM      6  C   UNL     1       4.349   3.750  18.807  0.00  0.00    +0.000 C 
ATOM      7  O   UNL     1       5.160   2.826  18.900  0.00  0.00    +0.000 OA
ENDROOT
BRANCH   1   9
ATOM      8  O   UNL     1       7.799   5.328  19.147  0.00  0.00    +0.000 OA
ATOM      9  C   UNL     1       7.384   4.852  18.098  0.00  0.00    +0.000 C 
BRANCH   9  10
ATOM     10  O   UNL     1       8.191   4.109  17.320  0.00  0.00    +0.000 OA
ATOM     11  H   UNL     1       8.038   4.237  16.355  0.00  0.00    +0.000 HD
ENDBRANCH   9  10
ENDBRANCH   1   9
BRANCH   6  12
ATOM     12  C   UNL     1       2.935   3.606  19.339  0.00  0.00    +0.000 C 
BRANCH  12  13
ATOM     13  C   UNL     1       2.082   3.077  18.208  0.00  0.00    +0.000 C 
ATOM     14  F   UNL     1       0.982   3.825  17.973  0.00  0.00    +0.000 F 
ATOM     15  F   UNL     1       2.754   2.975  17.042  0.00  0.00    +0.000 F 
ATOM     16  F   UNL     1       1.632   1.836  18.521  0.00  0.00    +0.000 F 
ENDBRANCH  12  13
BRANCH  12  17
ATOM     17  C   UNL     1       2.930   2.737  20.595  0.00  0.00    +0.000 C 
BRANCH  17  18
ATOM     18  S   UNL     1       1.416   2.944  21.591  0.00  0.00    +0.000 S 
ATOM     19  H   UNL     1       0.798   3.809  20.769  0.00  0.00    +0.000 HD
ENDBRANCH  17  18
ENDBRANCH  12  17
ENDBRANCH   6  12
TORSDOF 6
ENDMDL
MODEL 8
REMARK VINA RESULT:      -6.1      0.201      1.196
REMARK  Name = 
REMARK  6 active torsions:
REMARK  status: ('A' for Active; 'I' for Inactive)
REMARK    1  A    between atoms: C_2  and  O_3
REMARK    2  A    between atoms: C_2  and  C_4
REMARK    3  A    between atoms: C_9  and  C_11
REMARK    4  A    between atoms: C_11  and  C_12
REMARK    5  A    between atoms: C_11  and  C_14
REMARK    6  A    between atoms: C_12  and  S_13
REMARK                            x       y       z     vdW  Elec       q    Type
REMARK                         _______ _______ _______ _____ _____    ______ ____
ROOT
ATOM      1  C   UNL     1       3.156   3.458  19.631  0.00  0.00    +0.000 C 
ATOM      2  C   UNL     1       1.786   2.823  19.333  0.00  0.00    +0.000 C 
ATOM      3  C   UNL     1       1.242   3.614  18.160  0.00  0.00    +0.000 C 
ATOM      4  C   UNL     1       2.479   4.012  17.380  0.00  0.00    +0.000 C 
ATOM      5  N   UNL     1       3.622   3.831  18.273  0.00  0.00    +0.000 N 
ATOM      6  C   UNL     1       4.879   4.319  17.989  0.00  0.00    +0.000 C 
ATOM      7  O   UNL     1       5.774   4.286  18.836  0.00  0.00    +0.000 OA
ENDROOT
BRANCH   1   9
ATOM      8  O   UNL     1       4.887   1.832  20.187  0.00  0.00    +0.000 OA
ATOM      9  C   UNL     1       3.914   2.475  20.558  0.00  0.00    +0.000 C 
BRANCH   9  10
ATOM     10  O   UNL     1       3.369   2.252  21.767  0.00  0.00    +0.000 OA
ATOM     11  H   UNL     1       2.460   2.622  21.866  0.00  0.00    +0.000 HD
ENDBRANCH   9  10
ENDBRANCH   1   9
BRANCH   6  12
ATOM     12  C   UNL     1       5.144   4.856  16.594  0.00  0.00    +0.000 C 
BRANCH  12  13
ATOM     13  C   UNL     1       5.282   6.357  16.710  0.00  0.00    +0.000 C 
ATOM     14  F   UNL     1       4.497   6.894  17.668  0.00  0.00    +0.000 F 
ATOM     15  F   UNL     1       6.548   6.753  16.960  0.00  0.00    +0.000 F 
ATOM     16  F   UNL     1       4.904   6.939  15.544  0.00  0.00    +0.000 F 
ENDBRANCH  12  13
BRANCH  12  17
ATOM     17  C   UNL     1       6.354   4.154  15.980  0.00  0.00    +0.000 C 
BRANCH  17  18
ATOM     18  S   UNL     1       6.292   4.105  14.157  0.00  0.00    +0.000 S 
ATOM     19  H   UNL     1       5.330   5.031  14.003  0.00  0.00    +0.000 HD
ENDBRANCH  17  18
ENDBRANCH  12  17
ENDBRANCH   6  12
TORSDOF 6
ENDMDL
MODEL 9
REMARK VINA RESULT:      -6.0      3.430      5.189
REMARK  Name = 
REMARK  6 active torsions:
REMARK  status: ('A' for Active; 'I' for Inactive)
REMARK    1  A    between atoms: C_2  and  O_3
REMARK    2  A    between atoms: C_2  and  C_4
REMARK    3  A    between atoms: C_9  and  C_11
REMARK    4  A    between atoms: C_11  and  C_12
REMARK    5  A    between atoms: C_11  and  C_14
REMARK    6  A    between atoms: C_12  and  S_13
REMARK                            x       y       z     vdW  Elec       q    Type
REMARK                         _______ _______ _______ _____ _____    ______ ____
ROOT
ATOM      1  C   UNL     1       4.926   5.059  16.415  0.00  0.00    +0.000 C 
ATOM      2  C   UNL     1       5.390   6.521  16.538  0.00  0.00    +0.000 C 
ATOM      3  C   UNL     1       4.249   7.230  17.238  0.00  0.00    +0.000 C 
ATOM      4  C   UNL     1       3.657   6.170  18.144  0.00  0.00    +0.000 C 
ATOM      5  N   UNL     1       4.149   4.879  17.667  0.00  0.00    +0.000 N 
ATOM      6  C   UNL     1       3.633   3.675  18.095  0.00  0.00    +0.000 C 
ATOM      7  O   UNL     1       3.963   2.619  17.552  0.00  0.00    +0.000 OA
ENDROOT
BRANCH   1   9
ATOM      8  O   UNL     1       6.244   3.537  15.039  0.00  0.00    +0.000 OA
ATOM      9  C   UNL     1       6.175   4.219  16.053  0.00  0.00    +0.000 C 
BRANCH   9  10
ATOM     10  O   UNL     1       7.147   4.162  16.982  0.00  0.00    +0.000 OA
ATOM     11  H   UNL     1       7.282   5.010  17.465  0.00  0.00    +0.000 HD
ENDBRANCH   9  10
ENDBRANCH   1   9
BRANCH   6  12
ATOM     12  C   UNL     1       2.684   3.681  19.280  0.00  0.00    +0.000 C 
BRANCH  12  13
ATOM     13  C   UNL     1       1.294   3.421  18.743  0.00  0.00    +0.000 C 
ATOM     14  F   UNL     1       0.314   3.794  19.595  0.00  0.00    +0.000 F 
ATOM     15  F   UNL     1       1.059   4.038  17.566  0.00  0.00    +0.000 F 
ATOM     16  F   UNL     1       1.128   2.090  18.538  0.00  0.00    +0.000 F 
ENDBRANCH  12  13
BRANCH  12  17
ATOM     17  C   UNL     1       3.152   2.680  20.335  0.00  0.00    +0.000 C 
BRANCH  17  18
ATOM     18  S   UNL     1       2.126   2.713  21.843  0.00  0.00    +0.000 S 
ATOM     19  H   UNL     1       0.983   2.297  21.271  0.00  0.00    +0.000 HD
ENDBRANCH  17  18
ENDBRANCH  12  17
ENDBRANCH   6  12
TORSDOF 6
ENDMDL
