MODEL 1
REMARK VINA RESULT:      -7.3      0.000      0.000
REMARK  Name = 
REMARK  5 active torsions:
REMARK  status: ('A' for Active; 'I' for Inactive)
REMARK    1  A    between atoms: C_1  and  C_2
REMARK    2  A    between atoms: C_2  and  N_3
REMARK    3  A    between atoms: C_4  and  C_6
REMARK    4  A    between atoms: C_11  and  O_12
REMARK    5  A    between atoms: O_12  and  C_13
REMARK                            x       y       z     vdW  Elec       q    Type
REMARK                         _______ _______ _______ _____ _____    ______ ____
ROOT
ATOM      1  C   UNL     1       5.954   4.430  16.106  0.00  0.00    +0.000 A 
ATOM      2  C   UNL     1       6.680   4.507  17.281  0.00  0.00    +0.000 A 
ATOM      3  N   UNL     1       6.123   4.431  18.519  0.00  0.00    +0.000 NA
ATOM      4  C   UNL     1       4.789   4.260  18.605  0.00  0.00    +0.000 A 
ATOM      5  C   UNL     1       4.183   4.152  19.849  0.00  0.00    +0.000 A 
ATOM      6  C   UNL     1       2.803   3.966  19.992  0.00  0.00    +0.000 A 
ATOM      7  C   UNL     1       2.003   3.893  18.855  0.00  0.00    +0.000 A 
ATOM      8  C   UNL     1       2.583   4.000  17.592  0.00  0.00    +0.000 A 
ATOM      9  C   UNL     1       3.968   4.177  17.461  0.00  0.00    +0.000 A 
ATOM     10  C   UNL     1       4.574   4.267  16.203  0.00  0.00    +0.000 A 
ENDROOT
BRANCH   1  12
ATOM     11  N   UNL     1       6.157   3.634  13.831  0.00  0.00    +0.000 N 
ATOM     12  C   UNL     1       6.646   4.489  14.801  0.00  0.00    +0.000 C 
ATOM     13  O   UNL     1       7.581   5.257  14.633  0.00  0.00    +0.000 OA
ATOM     14  H   UNL     1       5.268   3.172  13.973  0.00  0.00    +0.000 HD
BRANCH  11  16
ATOM     15  C   UNL     1       5.970   2.623  11.613  0.00  0.00    +0.000 C 
ATOM     16  C   UNL     1       6.716   3.604  12.497  0.00  0.00    +0.000 C 
ENDBRANCH  11  16
ENDBRANCH   1  12
BRANCH   6  17
ATOM     17  O   UNL     1       2.368   3.868  21.285  0.00  0.00    +0.000 OA
ATOM     18  C   UNL     1       1.569   2.739  21.615  0.00  0.00    +0.000 C 
ENDBRANCH   6  17
TORSDOF 3
ENDMDL
MODEL 2
REMARK VINA RESULT:      -6.8      1.754      1.951
REMARK  Name = 
REMARK  5 active torsions:
REMARK  status: ('A' for Active; 'I' for Inactive)
REMARK    1  A    between atoms: C_1  and  C_2
REMARK    2  A    between atoms: C_2  and  N_3
REMARK    3  A    between atoms: C_4  and  C_6
REMARK    4  A    between atoms: C_11  and  O_12
REMARK    5  A    between atoms: O_12  and  C_13
REMARK                            x       y       z     vdW  Elec       q    Type
REMARK                         _______ _______ _______ _____ _____    ______ ____
ROOT
ATOM      1  C   UNL     1       5.411   5.202  15.703  0.00  0.00    +0.000 A 
ATOM      2  C   UNL     1       5.282   6.528  16.078  0.00  0.00    +0.000 A 
ATOM      3  N   UNL     1       4.505   6.948  17.111  0.00  0.00    +0.000 NA
ATOM      4  C   UNL     1       3.831   6.019  17.818  0.00  0.00    +0.000 A 
ATOM      5  C   UNL     1       3.047   6.402  18.897  0.00  0.00    +0.000 A 
ATOM      6  C   UNL     1       2.333   5.476  19.666  0.00  0.00    +0.000 A 
ATOM      7  C   UNL     1       2.402   4.123  19.342  0.00  0.00    +0.000 A 
ATOM      8  C   UNL     1       3.180   3.708  18.262  0.00  0.00    +0.000 A 
ATOM      9  C   UNL     1       3.897   4.645  17.504  0.00  0.00    +0.000 A 
ATOM     10  C   UNL     1       4.701   4.249  16.429  0.00  0.00    +0.000 A 
ENDROOT
BRANCH   1  12
ATOM     11  N   UNL     1       5.737   4.027  13.614  0.00  0.00    +0.000 N 
ATOM     12  C   UNL     1       6.304   4.830  14.586  0.00  0.00    +0.000 C 
ATOM     13  O   UNL     1       7.459   5.230  14.560  0.00  0.00    +0.000 OA
ATOM     14  H   UNL     1       4.734   3.896  13.597  0.00  0.00    +0.000 HD
BRANCH  11  16
ATOM     15  C   UNL     1       5.779   2.476  11.725  0.00  0.00    +0.000 C 
ATOM     16  C   UNL     1       6.483   3.609  12.447  0.00  0.00    +0.000 C 
ENDBRANCH  11  16
ENDBRANCH   1  12
BRANCH   6  17
ATOM     17  O   UNL     1       1.619   6.017  20.699  0.00  0.00    +0.000 OA
ATOM     18  C   UNL     1       1.556   7.436  20.768  0.00  0.00    +0.000 C 
ENDBRANCH   6  17
TORSDOF 3
ENDMDL
MODEL 3
REMARK VINA RESULT:      -6.7      1.715      1.860
REMARK  Name = 
REMARK  5 active torsions:
REMARK  status: ('A' for Active; 'I' for Inactive)
REMARK    1  A    between atoms: C_1  and  C_2
REMARK    2  A    between atoms: C_2  and  N_3
REMARK    3  A    between atoms: C_4  and  C_6
REMARK    4  A    between atoms: C_11  and  O_12
REMARK    5  A    between atoms: O_12  and  C_13
REMARK                            x       y       z     vdW  Elec       q    Type
REMARK                         _______ _______ _______ _____ _____    ______ ____
ROOT
ATOM      1  C   UNL     1       5.717   4.740  15.485  0.00  0.00    +0.000 A 
ATOM      2  C   UNL     1       5.421   3.612  16.229  0.00  0.00    +0.000 A 
ATOM      3  N   UNL     1       4.629   3.624  17.334  0.00  0.00    +0.000 NA
ATOM      4  C   UNL     1       4.092   4.798  17.719  0.00  0.00    +0.000 A 
ATOM      5  C   UNL     1       3.257   4.849  18.826  0.00  0.00    +0.000 A 
ATOM      6  C   UNL     1       2.670   6.043  19.262  0.00  0.00    +0.000 A 
ATOM      7  C   UNL     1       2.931   7.223  18.573  0.00  0.00    +0.000 A 
ATOM      8  C   UNL     1       3.768   7.204  17.457  0.00  0.00    +0.000 A 
ATOM      9  C   UNL     1       4.344   6.000  17.025  0.00  0.00    +0.000 A 
ATOM     10  C   UNL     1       5.170   5.954  15.897  0.00  0.00    +0.000 A 
ENDROOT
BRANCH   1  12
ATOM     11  N   UNL     1       6.164   3.680  13.357  0.00  0.00    +0.000 N 
ATOM     12  C   UNL     1       6.562   4.632  14.277  0.00  0.00    +0.000 C 
ATOM     13  O   UNL     1       7.536   5.356  14.139  0.00  0.00    +0.000 OA
ATOM     14  H   UNL     1       5.249   3.256  13.440  0.00  0.00    +0.000 HD
BRANCH  11  16
ATOM     15  C   UNL     1       6.474   2.179  11.452  0.00  0.00    +0.000 C 
ATOM     16  C   UNL     1       6.877   3.483  12.114  0.00  0.00    +0.000 C 
ENDBRANCH  11  16
ENDBRANCH   1  12
BRANCH   6  17
ATOM     17  O   UNL     1       1.866   5.918  20.361  0.00  0.00    +0.000 OA
ATOM     18  C   UNL     1       1.950   4.699  21.090  0.00  0.00    +0.000 C 
ENDBRANCH   6  17
TORSDOF 3
ENDMDL
MODEL 4
REMARK VINA RESULT:      -6.7      2.622      2.734
REMARK  Name = 
REMARK  5 active torsions:
REMARK  status: ('A' for Active; 'I' for Inactive)
REMARK    1  A    between atoms: C_1  and  C_2
REMARK    2  A    between atoms: C_2  and  N_3
REMARK    3  A    between atoms: C_4  and  C_6
REMARK    4  A    between atoms: C_11  and  O_12
REMARK    5  A    between atoms: O_12  and  C_13
REMARK                            x       y       z     vdW  Elec       q    Type
REMARK                         _______ _______ _______ _____ _____    ______ ____
ROOT
ATOM      1  C   UNL     1       5.406   5.414  16.526  0.00  0.00    +0.000 A 
ATOM      2  C   UNL     1       5.298   4.552  17.602  0.00  0.00    +0.000 A 
ATOM      3  N   UNL     1       4.487   4.776  18.670  0.00  0.00    +0.000 NA
ATOM      4  C   UNL     1       3.736   5.895  18.674  0.00  0.00    +0.000 A 
ATOM      5  C   UNL     1       2.876   6.149  19.733  0.00  0.00    +0.000 A 
ATOM      6  C   UNL     1       2.071   7.294  19.781  0.00  0.00    +0.000 A 
ATOM      7  C   UNL     1       2.135   8.217  18.740  0.00  0.00    +0.000 A 
ATOM      8  C   UNL     1       2.991   7.989  17.664  0.00  0.00    +0.000 A 
ATOM      9  C   UNL     1       3.786   6.834  17.623  0.00  0.00    +0.000 A 
ATOM     10  C   UNL     1       4.638   6.577  16.543  0.00  0.00    +0.000 A 
ENDROOT
BRANCH   1  12
ATOM     11  N   UNL     1       5.742   4.232  14.442  0.00  0.00    +0.000 N 
ATOM     12  C   UNL     1       6.290   5.076  15.391  0.00  0.00    +0.000 C 
ATOM     13  O   UNL     1       7.420   5.535  15.331  0.00  0.00    +0.000 OA
ATOM     14  H   UNL     1       4.747   4.049  14.451  0.00  0.00    +0.000 HD
BRANCH  11  16
ATOM     15  C   UNL     1       5.545   3.354  12.169  0.00  0.00    +0.000 C 
ATOM     16  C   UNL     1       6.479   3.841  13.261  0.00  0.00    +0.000 C 
ENDBRANCH  11  16
ENDBRANCH   1  12
BRANCH   6  17
ATOM     17  O   UNL     1       1.272   7.387  20.887  0.00  0.00    +0.000 OA
ATOM     18  C   UNL     1       1.322   8.606  21.619  0.00  0.00    +0.000 C 
ENDBRANCH   6  17
TORSDOF 3
ENDMDL
MODEL 5
REMARK VINA RESULT:      -6.7      2.649      3.656
REMARK  Name = 
REMARK  5 active torsions:
REMARK  status: ('A' for Active; 'I' for Inactive)
REMARK    1  A    between atoms: C_1  and  C_2
REMARK    2  A    between atoms: C_2  and  N_3
REMARK    3  A    between atoms: C_4  and  C_6
REMARK    4  A    between atoms: C_11  and  O_12
REMARK    5  A    between atoms: O_12  and  C_13
REMARK                            x       y       z     vdW  Elec       q    Type
REMARK                         _______ _______ _______ _____ _____    ______ ____
ROOT
ATOM      1  C   UNL     1       6.083   3.957  13.787  0.00  0.00    +0.000 A 
ATOM      2  C   UNL     1       7.195   4.756  13.986  0.00  0.00    +0.000 A 
ATOM      3  N   UNL     1       7.555   5.261  15.196  0.00  0.00    +0.000 NA
ATOM      4  C   UNL     1       6.792   4.955  16.264  0.00  0.00    +0.000 A 
ATOM      5  C   UNL     1       7.139   5.429  17.521  0.00  0.00    +0.000 A 
ATOM      6  C   UNL     1       6.383   5.135  18.663  0.00  0.00    +0.000 A 
ATOM      7  C   UNL     1       5.242   4.347  18.541  0.00  0.00    +0.000 A 
ATOM      8  C   UNL     1       4.867   3.858  17.290  0.00  0.00    +0.000 A 
ATOM      9  C   UNL     1       5.637   4.153  16.155  0.00  0.00    +0.000 A 
ATOM     10  C   UNL     1       5.291   3.656  14.894  0.00  0.00    +0.000 A 
ENDROOT
BRANCH   1  12
ATOM     11  N   UNL     1       4.451   3.454  12.073  0.00  0.00    +0.000 N 
ATOM     12  C   UNL     1       5.784   3.423  12.442  0.00  0.00    +0.000 C 
ATOM     13  O   UNL     1       6.682   2.995  11.734  0.00  0.00    +0.000 OA
ATOM     14  H   UNL     1       3.794   3.995  12.621  0.00  0.00    +0.000 HD
BRANCH  11  16
ATOM     15  C   UNL     1       3.193   4.055  10.065  0.00  0.00    +0.000 C 
ATOM     16  C   UNL     1       4.014   2.994  10.774  0.00  0.00    +0.000 C 
ENDBRANCH  11  16
ENDBRANCH   1  12
BRANCH   6  17
ATOM     17  O   UNL     1       6.867   5.670  19.825  0.00  0.00    +0.000 OA
ATOM     18  C   UNL     1       8.269   5.577  20.044  0.00  0.00    +0.000 C 
ENDBRANCH   6  17
TORSDOF 3
ENDMDL
MODEL 6
REMARK VINA RESULT:      -6.6      1.178      1.276
REMARK  Name = 
REMARK  5 active torsions:
REMARK  status: ('A' for Active; 'I' for Inactive)
REMARK    1  A    between atoms: C_1  and  C_2
REMARK    2  A    between atoms: C_2  and  N_3
REMARK    3  A    between atoms: C_4  and  C_6
REMARK    4  A    between atoms: C_11  and  O_12
REMARK    5  A    between atoms: O_12  and  C_13
REMARK                            x       y       z     vdW  Elec       q    Type
REMARK                         _______ _______ _______ _____ _____    ______ ____
ROOT
ATOM      1  C   UNL     1       5.105   4.806  16.244  0.00  0.00    +0.000 A 
ATOM      2  C   UNL     1       5.025   5.814  17.188  0.00  0.00    +0.000 A 
ATOM      3  N   UNL     1       4.196   5.775  18.265  0.00  0.00    +0.000 NA
ATOM      4  C   UNL     1       3.418   4.687  18.428  0.00  0.00    +0.000 A 
ATOM      5  C   UNL     1       2.577   4.595  19.528  0.00  0.00    +0.000 A 
ATOM      6  C   UNL     1       1.754   3.484  19.747  0.00  0.00    +0.000 A 
ATOM      7  C   UNL     1       1.769   2.434  18.832  0.00  0.00    +0.000 A 
ATOM      8  C   UNL     1       2.602   2.498  17.716  0.00  0.00    +0.000 A 
ATOM      9  C   UNL     1       3.428   3.614  17.513  0.00  0.00    +0.000 A 
ATOM     10  C   UNL     1       4.287   3.690  16.411  0.00  0.00    +0.000 A 
ENDROOT
BRANCH   1  12
ATOM     11  N   UNL     1       5.921   3.961  14.129  0.00  0.00    +0.000 N 
ATOM     12  C   UNL     1       6.058   4.916  15.120  0.00  0.00    +0.000 C 
ATOM     13  O   UNL     1       6.894   5.807  15.104  0.00  0.00    +0.000 OA
ATOM     14  H   UNL     1       5.094   3.379  14.107  0.00  0.00    +0.000 HD
BRANCH  11  16
ATOM     15  C   UNL     1       6.162   3.120  11.846  0.00  0.00    +0.000 C 
ATOM     16  C   UNL     1       6.765   3.963  12.954  0.00  0.00    +0.000 C 
ENDBRANCH  11  16
ENDBRANCH   1  12
BRANCH   6  17
ATOM     17  O   UNL     1       0.995   3.546  20.882  0.00  0.00    +0.000 OA
ATOM     18  C   UNL     1       1.320   2.638  21.928  0.00  0.00    +0.000 C 
ENDBRANCH   6  17
TORSDOF 3
ENDMDL
MODEL 7
REMARK VINA RESULT:      -6.5      3.100      3.896
REMARK  Name = 
REMARK  5 active torsions:
REMARK  status: ('A' for Active; 'I' for Inactive)
REMARK    1  A    between atoms: C_1  and  C_2
REMARK    2  A    between atoms: C_2  and  N_3
REMARK    3  A    between atoms: C_4  and  C_6
REMARK    4  A    between atoms: C_11  and  O_12
REMARK    5  A    between atoms: O_12  and  C_13
REMARK                            x       y       z     vdW  Elec       q    Type
REMARK                         _______ _______ _______ _____ _____    ______ ____
ROOT
ATOM      1  C   UNL     1       6.167   6.157  17.961  0.00  0.00    +0.000 A 
ATOM      2  C   UNL     1       6.585   5.183  18.850  0.00  0.00    +0.000 A 
ATOM      3  N   UNL     1       5.746   4.291  19.442  0.00  0.00    +0.000 NA
ATOM      4  C   UNL     1       4.436   4.352  19.135  0.00  0.00    +0.000 A 
ATOM      5  C   UNL     1       3.549   3.443  19.697  0.00  0.00    +0.000 A 
ATOM      6  C   UNL     1       2.180   3.461  19.405  0.00  0.00    +0.000 A 
ATOM      7  C   UNL     1       1.681   4.421  18.529  0.00  0.00    +0.000 A 
ATOM      8  C   UNL     1       2.547   5.348  17.951  0.00  0.00    +0.000 A 
ATOM      9  C   UNL     1       3.918   5.315  18.244  0.00  0.00    +0.000 A 
ATOM     10  C   UNL     1       4.808   6.223  17.659  0.00  0.00    +0.000 A 
ENDROOT
BRANCH   1  12
ATOM     11  N   UNL     1       7.327   8.280  17.977  0.00  0.00    +0.000 N 
ATOM     12  C   UNL     1       7.152   7.066  17.338  0.00  0.00    +0.000 C 
ATOM     13  O   UNL     1       7.752   6.727  16.330  0.00  0.00    +0.000 OA
ATOM     14  H   UNL     1       6.948   8.415  18.905  0.00  0.00    +0.000 HD
BRANCH  11  16
ATOM     15  C   UNL     1       8.938   9.990  18.652  0.00  0.00    +0.000 C 
ATOM     16  C   UNL     1       8.280   9.257  17.498  0.00  0.00    +0.000 C 
ENDBRANCH  11  16
ENDBRANCH   1  12
BRANCH   6  17
ATOM     17  O   UNL     1       1.448   2.491  20.034  0.00  0.00    +0.000 OA
ATOM     18  C   UNL     1       1.410   2.529  21.455  0.00  0.00    +0.000 C 
ENDBRANCH   6  17
TORSDOF 3
ENDMDL
MODEL 8
REMARK VINA RESULT:      -6.4      1.450      1.643
REMARK  Name = 
REMARK  5 active torsions:
REMARK  status: ('A' for Active; 'I' for Inactive)
REMARK    1  A    between atoms: C_1  and  C_2
REMARK    2  A    between atoms: C_2  and  N_3
REMARK    3  A    between atoms: C_4  and  C_6
REMARK    4  A    between atoms: C_11  and  O_12
REMARK    5  A    between atoms: O_12  and  C_13
REMARK                            x       y       z     vdW  Elec       q    Type
REMARK                         _______ _______ _______ _____ _____    ______ ____
ROOT
ATOM      1  C   UNL     1       5.496   4.839  16.330  0.00  0.00    +0.000 A 
ATOM      2  C   UNL     1       5.123   3.524  16.542  0.00  0.00    +0.000 A 
ATOM      3  N   UNL     1       4.182   3.143  17.446  0.00  0.00    +0.000 NA
ATOM      4  C   UNL     1       3.570   4.103  18.168  0.00  0.00    +0.000 A 
ATOM      5  C   UNL     1       2.585   3.760  19.083  0.00  0.00    +0.000 A 
ATOM      6  C   UNL     1       1.915   4.719  19.852  0.00  0.00    +0.000 A 
ATOM      7  C   UNL     1       2.246   6.064  19.705  0.00  0.00    +0.000 A 
ATOM      8  C   UNL     1       3.233   6.439  18.794  0.00  0.00    +0.000 A 
ATOM      9  C   UNL     1       3.891   5.469  18.023  0.00  0.00    +0.000 A 
ATOM     10  C   UNL     1       4.870   5.824  17.089  0.00  0.00    +0.000 A 
ENDROOT
BRANCH   1  12
ATOM     11  N   UNL     1       6.369   4.498  14.099  0.00  0.00    +0.000 N 
ATOM     12  C   UNL     1       6.507   5.167  15.302  0.00  0.00    +0.000 C 
ATOM     13  O   UNL     1       7.386   5.981  15.538  0.00  0.00    +0.000 OA
ATOM     14  H   UNL     1       5.516   3.990  13.904  0.00  0.00    +0.000 HD
BRANCH  11  16
ATOM     15  C   UNL     1       7.008   3.770  11.854  0.00  0.00    +0.000 C 
ATOM     16  C   UNL     1       7.267   4.741  12.991  0.00  0.00    +0.000 C 
ENDBRANCH  11  16
ENDBRANCH   1  12
BRANCH   6  17
ATOM     17  O   UNL     1       0.966   4.216  20.698  0.00  0.00    +0.000 OA
ATOM     18  C   UNL     1       1.214   2.932  21.258  0.00  0.00    +0.000 C 
ENDBRANCH   6  17
TORSDOF 3
ENDMDL
MODEL 9
REMARK VINA RESULT:      -6.3      1.842      6.556
REMARK  Name = 
REMARK  5 active torsions:
REMARK  status: ('A' for Active; 'I' for Inactive)
REMARK    1  A    between atoms: C_1  and  C_2
REMARK    2  A    between atoms: C_2  and  N_3
REMARK    3  A    between atoms: C_4  and  C_6
REMARK    4  A    between atoms: C_11  and  O_12
REMARK    5  A    between atoms: O_12  and  C_13
REMARK                            x       y       z     vdW  Elec       q    Type
REMARK                         _______ _______ _______ _____ _____    ______ ____
ROOT
ATOM      1  C   UNL     1       3.747   4.863  18.568  0.00  0.00    +0.000 A 
ATOM      2  C   UNL     1       4.752   5.748  18.919  0.00  0.00    +0.000 A 
ATOM      3  N   UNL     1       5.823   6.024  18.129  0.00  0.00    +0.000 NA
ATOM      4  C   UNL     1       5.905   5.412  16.932  0.00  0.00    +0.000 A 
ATOM      5  C   UNL     1       6.969   5.686  16.084  0.00  0.00    +0.000 A 
ATOM      6  C   UNL     1       7.096   5.080  14.828  0.00  0.00    +0.000 A 
ATOM      7  C   UNL     1       6.131   4.168  14.410  0.00  0.00    +0.000 A 
ATOM      8  C   UNL     1       5.052   3.871  15.241  0.00  0.00    +0.000 A 
ATOM      9  C   UNL     1       4.931   4.491  16.494  0.00  0.00    +0.000 A 
ATOM     10  C   UNL     1       3.845   4.223  17.335  0.00  0.00    +0.000 A 
ENDROOT
BRANCH   1  12
ATOM     11  N   UNL     1       2.077   3.365  19.474  0.00  0.00    +0.000 N 
ATOM     12  C   UNL     1       2.600   4.646  19.474  0.00  0.00    +0.000 C 
ATOM     13  O   UNL     1       2.175   5.561  20.162  0.00  0.00    +0.000 OA
ATOM     14  H   UNL     1       2.593   2.615  19.033  0.00  0.00    +0.000 HD
BRANCH  11  16
ATOM     15  C   UNL     1       1.467   2.514  21.683  0.00  0.00    +0.000 C 
ATOM     16  C   UNL     1       0.973   2.999  20.333  0.00  0.00    +0.000 C 
ENDBRANCH  11  16
ENDBRANCH   1  12
BRANCH   6  17
ATOM     17  O   UNL     1       8.196   5.468  14.113  0.00  0.00    +0.000 OA
ATOM     18  C   UNL     1       8.078   5.468  12.696  0.00  0.00    +0.000 C 
ENDBRANCH   6  17
TORSDOF 3
ENDMDL
