MODEL 1
REMARK VINA RESULT:      -7.4      0.000      0.000
REMARK  Name = 
REMARK  9 active torsions:
REMARK  status: ('A' for Active; 'I' for Inactive)
REMARK    1  A    between atoms: C_1  and  N_2
REMARK    2  A    between atoms: N_6  and  C_7
REMARK    3  A    between atoms: C_7  and  C_8
REMARK    4  A    between atoms: C_8  and  C_9
REMARK    5  A    between atoms: C_9  and  N_10
REMARK    6  A    between atoms: N_10  and  C_11
REMARK    7  A    between atoms: N_10  and  C_12
REMARK    8  A    between atoms: C_15  and  C_16
REMARK    9  A    between atoms: C_19  and  N_20
REMARK                            x       y       z     vdW  Elec       q    Type
REMARK                         _______ _______ _______ _____ _____    ______ ____
ROOT
ATOM      1  C   UNL     1       4.472   1.979  19.732  0.00  0.00    +0.000 C 
ATOM      2  N   UNL     1       3.171   2.477  20.125  0.00  0.00    +0.000 N 
ATOM      3  C   UNL     1       2.985   3.834  19.873  0.00  0.00    +0.000 A 
ATOM      4  N   UNL     1       3.626   4.403  18.845  0.00  0.00    +0.000 NA
ATOM      5  C   UNL     1       3.488   5.719  18.588  0.00  0.00    +0.000 A 
ATOM      6  N   UNL     1       4.215   6.321  17.561  0.00  0.00    +0.000 N 
ATOM      7  C   UNL     1       2.633   6.442  19.418  0.00  0.00    +0.000 A 
ATOM      8  S   UNL     1       2.202   8.099  19.370  0.00  0.00    +0.000 S 
ATOM      9  C   UNL     1       1.175   7.968  20.737  0.00  0.00    +0.000 A 
ATOM     10  C   UNL     1       1.172   6.672  21.222  0.00  0.00    +0.000 A 
ATOM     11  C   UNL     1       1.998   5.789  20.462  0.00  0.00    +0.000 A 
ATOM     12  N   UNL     1       2.173   4.471  20.717  0.00  0.00    +0.000 NA
ATOM     13  H   UNL     1       2.917   2.329  21.095  0.00  0.00    +0.000 HD
ATOM     14  H   UNL     1       3.902   7.261  17.352  0.00  0.00    +0.000 HD
ENDROOT
BRANCH   9  15
ATOM     15  C   UNL     1       0.477   9.157  21.260  0.00  0.00    +0.000 A 
ATOM     16  C   UNL     1       0.403  10.354  20.540  0.00  0.00    +0.000 A 
ATOM     17  C   UNL     1      -0.242  11.481  21.072  0.00  0.00    +0.000 A 
ATOM     18  C   UNL     1      -0.853  11.459  22.331  0.00  0.00    +0.000 A 
ATOM     19  C   UNL     1      -0.786  10.250  23.036  0.00  0.00    +0.000 A 
ATOM     20  C   UNL     1      -0.135   9.121  22.516  0.00  0.00    +0.000 A 
BRANCH  18  21
ATOM     21  N   UNL     1      -1.496  12.568  22.834  0.00  0.00    +0.000 N 
ATOM     22  C   UNL     1      -0.970  13.932  22.689  0.00  0.00    +0.000 C 
ATOM     23  C   UNL     1      -1.961  14.811  21.898  0.00  0.00    +0.000 C 
ATOM     24  N   UNL     1      -3.314  14.826  22.486  0.00  0.00    +0.000 NA
ATOM     25  C   UNL     1      -3.807  13.438  22.607  0.00  0.00    +0.000 C 
ATOM     26  C   UNL     1      -2.857  12.496  23.389  0.00  0.00    +0.000 C 
ATOM     27  H   UNL     1      -3.938  15.346  21.871  0.00  0.00    +0.000 HD
ENDBRANCH  18  21
ENDBRANCH   9  15
BRANCH   6  28
ATOM     28  C   UNL     1       4.541   5.491  16.406  0.00  0.00    +0.000 C 
BRANCH  28  29
ATOM     29  C   UNL     1       5.950   5.806  15.902  0.00  0.00    +0.000 C 
BRANCH  29  30
ATOM     30  C   UNL     1       7.028   5.465  16.940  0.00  0.00    +0.000 C 
BRANCH  30  31
ATOM     31  N   UNL     1       7.101   6.396  18.077  0.00  0.00    +0.000 NA
ATOM     32  C   UNL     1       7.879   5.849  19.192  0.00  0.00    +0.000 C 
ATOM     33  C   UNL     1       7.668   7.677  17.654  0.00  0.00    +0.000 C 
ENDBRANCH  30  31
ENDBRANCH  29  30
ENDBRANCH  28  29
ENDBRANCH   6  28
TORSDOF 6
ENDMDL
MODEL 2
REMARK VINA RESULT:      -7.4      2.278     10.734
REMARK  Name = 
REMARK  9 active torsions:
REMARK  status: ('A' for Active; 'I' for Inactive)
REMARK    1  A    between atoms: C_1  and  N_2
REMARK    2  A    between atoms: N_6  and  C_7
REMARK    3  A    between atoms: C_7  and  C_8
REMARK    4  A    between atoms: C_8  and  C_9
REMARK    5  A    between atoms: C_9  and  N_10
REMARK    6  A    between atoms: N_10  and  C_11
REMARK    7  A    between atoms: N_10  and  C_12
REMARK    8  A    between atoms: C_15  and  C_16
REMARK    9  A    between atoms: C_19  and  N_20
REMARK                            x       y       z     vdW  Elec       q    Type
REMARK                         _______ _______ _______ _____ _____    ______ ____
ROOT
ATOM      1  C   UNL     1      -0.750  16.177  19.756  0.00  0.00    +0.000 C 
ATOM      2  N   UNL     1      -0.767  15.050  18.847  0.00  0.00    +0.000 N 
ATOM      3  C   UNL     1      -0.445  13.835  19.446  0.00  0.00    +0.000 A 
ATOM      4  N   UNL     1      -0.737  13.644  20.738  0.00  0.00    +0.000 NA
ATOM      5  C   UNL     1      -0.416  12.489  21.355  0.00  0.00    +0.000 A 
ATOM      6  N   UNL     1      -0.658  12.324  22.719  0.00  0.00    +0.000 N 
ATOM      7  C   UNL     1       0.200  11.506  20.583  0.00  0.00    +0.000 A 
ATOM      8  S   UNL     1       0.713   9.931  21.020  0.00  0.00    +0.000 S 
ATOM      9  C   UNL     1       1.305   9.586  19.448  0.00  0.00    +0.000 A 
ATOM     10  C   UNL     1       1.115  10.668  18.608  0.00  0.00    +0.000 A 
ATOM     11  C   UNL     1       0.470  11.769  19.250  0.00  0.00    +0.000 A 
ATOM     12  N   UNL     1       0.163  12.948  18.658  0.00  0.00    +0.000 NA
ATOM     13  H   UNL     1      -0.171  15.134  18.031  0.00  0.00    +0.000 HD
ATOM     14  H   UNL     1      -0.539  11.367  23.029  0.00  0.00    +0.000 HD
ENDROOT
BRANCH   9  15
ATOM     15  C   UNL     1       1.951   8.292  19.164  0.00  0.00    +0.000 A 
ATOM     16  C   UNL     1       2.599   8.032  17.952  0.00  0.00    +0.000 A 
ATOM     17  C   UNL     1       3.180   6.781  17.693  0.00  0.00    +0.000 A 
ATOM     18  C   UNL     1       3.157   5.745  18.635  0.00  0.00    +0.000 A 
ATOM     19  C   UNL     1       2.519   6.023  19.851  0.00  0.00    +0.000 A 
ATOM     20  C   UNL     1       1.926   7.267  20.114  0.00  0.00    +0.000 A 
BRANCH  18  21
ATOM     21  N   UNL     1       3.746   4.528  18.375  0.00  0.00    +0.000 N 
ATOM     22  C   UNL     1       4.714   3.898  19.282  0.00  0.00    +0.000 C 
ATOM     23  C   UNL     1       4.183   2.537  19.777  0.00  0.00    +0.000 C 
ATOM     24  N   UNL     1       3.820   1.625  18.674  0.00  0.00    +0.000 NA
ATOM     25  C   UNL     1       2.841   2.295  17.792  0.00  0.00    +0.000 C 
ATOM     26  C   UNL     1       3.310   3.673  17.260  0.00  0.00    +0.000 C 
ATOM     27  H   UNL     1       3.394   0.786  19.064  0.00  0.00    +0.000 HD
ENDBRANCH  18  21
ENDBRANCH   9  15
BRANCH   6  28
ATOM     28  C   UNL     1      -1.802  13.034  23.280  0.00  0.00    +0.000 C 
BRANCH  28  29
ATOM     29  C   UNL     1      -3.076  12.203  23.124  0.00  0.00    +0.000 C 
BRANCH  29  30
ATOM     30  C   UNL     1      -4.153  12.594  24.145  0.00  0.00    +0.000 C 
BRANCH  30  31
ATOM     31  N   UNL     1      -5.327  13.268  23.570  0.00  0.00    +0.000 NA
ATOM     32  C   UNL     1      -5.254  14.725  23.709  0.00  0.00    +0.000 C 
ATOM     33  C   UNL     1      -5.483  12.909  22.160  0.00  0.00    +0.000 C 
ENDBRANCH  30  31
ENDBRANCH  29  30
ENDBRANCH  28  29
ENDBRANCH   6  28
TORSDOF 6
ENDMDL
MODEL 3
REMARK VINA RESULT:      -7.2      0.780      1.334
REMARK  Name = 
REMARK  9 active torsions:
REMARK  status: ('A' for Active; 'I' for Inactive)
REMARK    1  A    between atoms: C_1  and  N_2
REMARK    2  A    between atoms: N_6  and  C_7
REMARK    3  A    between atoms: C_7  and  C_8
REMARK    4  A    between atoms: C_8  and  C_9
REMARK    5  A    between atoms: C_9  and  N_10
REMARK    6  A    between atoms: N_10  and  C_11
REMARK    7  A    between atoms: N_10  and  C_12
REMARK    8  A    between atoms: C_15  and  C_16
REMARK    9  A    between atoms: C_19  and  N_20
REMARK                            x       y       z     vdW  Elec       q    Type
REMARK                         _______ _______ _______ _____ _____    ______ ____
ROOT
ATOM      1  C   UNL     1       4.489   2.229  20.145  0.00  0.00    +0.000 C 
ATOM      2  N   UNL     1       3.159   2.703  20.466  0.00  0.00    +0.000 N 
ATOM      3  C   UNL     1       2.936   4.034  20.126  0.00  0.00    +0.000 A 
ATOM      4  N   UNL     1       3.590   4.563  19.086  0.00  0.00    +0.000 NA
ATOM      5  C   UNL     1       3.416   5.855  18.745  0.00  0.00    +0.000 A 
ATOM      6  N   UNL     1       4.155   6.420  17.705  0.00  0.00    +0.000 N 
ATOM      7  C   UNL     1       2.510   6.596  19.502  0.00  0.00    +0.000 A 
ATOM      8  S   UNL     1       2.024   8.230  19.339  0.00  0.00    +0.000 S 
ATOM      9  C   UNL     1       0.958   8.145  20.680  0.00  0.00    +0.000 A 
ATOM     10  C   UNL     1       0.984   6.882  21.243  0.00  0.00    +0.000 A 
ATOM     11  C   UNL     1       1.864   5.984  20.564  0.00  0.00    +0.000 A 
ATOM     12  N   UNL     1       2.075   4.691  20.904  0.00  0.00    +0.000 NA
ATOM     13  H   UNL     1       2.879   2.604  21.436  0.00  0.00    +0.000 HD
ATOM     14  H   UNL     1       3.817   7.334  17.430  0.00  0.00    +0.000 HD
ENDROOT
BRANCH   9  15
ATOM     15  C   UNL     1       0.204   9.337  21.107  0.00  0.00    +0.000 A 
ATOM     16  C   UNL     1      -0.297  10.270  20.192  0.00  0.00    +0.000 A 
ATOM     17  C   UNL     1      -0.986  11.413  20.626  0.00  0.00    +0.000 A 
ATOM     18  C   UNL     1      -1.222  11.665  21.983  0.00  0.00    +0.000 A 
ATOM     19  C   UNL     1      -0.730  10.716  22.888  0.00  0.00    +0.000 A 
ATOM     20  C   UNL     1      -0.031   9.575  22.464  0.00  0.00    +0.000 A 
BRANCH  18  21
ATOM     21  N   UNL     1      -1.914  12.782  22.393  0.00  0.00    +0.000 N 
ATOM     22  C   UNL     1      -3.347  12.761  22.717  0.00  0.00    +0.000 C 
ATOM     23  C   UNL     1      -3.574  13.168  24.187  0.00  0.00    +0.000 C 
ATOM     24  N   UNL     1      -2.975  14.475  24.522  0.00  0.00    +0.000 NA
ATOM     25  C   UNL     1      -1.536  14.450  24.187  0.00  0.00    +0.000 C 
ATOM     26  C   UNL     1      -1.235  14.045  22.722  0.00  0.00    +0.000 C 
ATOM     27  H   UNL     1      -3.080  14.642  25.521  0.00  0.00    +0.000 HD
ENDBRANCH  18  21
ENDBRANCH   9  15
BRANCH   6  28
ATOM     28  C   UNL     1       4.547   5.534  16.614  0.00  0.00    +0.000 C 
BRANCH  28  29
ATOM     29  C   UNL     1       5.979   5.835  16.170  0.00  0.00    +0.000 C 
BRANCH  29  30
ATOM     30  C   UNL     1       6.769   6.605  17.237  0.00  0.00    +0.000 C 
BRANCH  30  31
ATOM     31  N   UNL     1       7.620   5.767  18.094  0.00  0.00    +0.000 NA
ATOM     32  C   UNL     1       7.111   5.679  19.466  0.00  0.00    +0.000 C 
ATOM     33  C   UNL     1       7.755   4.425  17.526  0.00  0.00    +0.000 C 
ENDBRANCH  30  31
ENDBRANCH  29  30
ENDBRANCH  28  29
ENDBRANCH   6  28
TORSDOF 6
ENDMDL
MODEL 4
REMARK VINA RESULT:      -7.2      1.826      4.015
REMARK  Name = 
REMARK  9 active torsions:
REMARK  status: ('A' for Active; 'I' for Inactive)
REMARK    1  A    between atoms: C_1  and  N_2
REMARK    2  A    between atoms: N_6  and  C_7
REMARK    3  A    between atoms: C_7  and  C_8
REMARK    4  A    between atoms: C_8  and  C_9
REMARK    5  A    between atoms: C_9  and  N_10
REMARK    6  A    between atoms: N_10  and  C_11
REMARK    7  A    between atoms: N_10  and  C_12
REMARK    8  A    between atoms: C_15  and  C_16
REMARK    9  A    between atoms: C_19  and  N_20
REMARK                            x       y       z     vdW  Elec       q    Type
REMARK                         _______ _______ _______ _____ _____    ______ ____
ROOT
ATOM      1  C   UNL     1       5.584   5.134  14.983  0.00  0.00    +0.000 C 
ATOM      2  N   UNL     1       5.414   6.501  15.425  0.00  0.00    +0.000 N 
ATOM      3  C   UNL     1       4.593   6.638  16.541  0.00  0.00    +0.000 A 
ATOM      4  N   UNL     1       4.535   5.644  17.436  0.00  0.00    +0.000 NA
ATOM      5  C   UNL     1       3.731   5.733  18.515  0.00  0.00    +0.000 A 
ATOM      6  N   UNL     1       3.619   4.666  19.405  0.00  0.00    +0.000 N 
ATOM      7  C   UNL     1       2.997   6.909  18.665  0.00  0.00    +0.000 A 
ATOM      8  S   UNL     1       1.915   7.373  19.909  0.00  0.00    +0.000 S 
ATOM      9  C   UNL     1       1.578   8.888  19.179  0.00  0.00    +0.000 A 
ATOM     10  C   UNL     1       2.283   9.026  17.997  0.00  0.00    +0.000 A 
ATOM     11  C   UNL     1       3.108   7.899  17.702  0.00  0.00    +0.000 A 
ATOM     12  N   UNL     1       3.902   7.776  16.612  0.00  0.00    +0.000 NA
ATOM     13  H   UNL     1       5.060   7.148  14.729  0.00  0.00    +0.000 HD
ATOM     14  H   UNL     1       3.131   4.910  20.258  0.00  0.00    +0.000 HD
ENDROOT
BRANCH   9  15
ATOM     15  C   UNL     1       0.613   9.814  19.800  0.00  0.00    +0.000 A 
ATOM     16  C   UNL     1      -0.455  10.367  19.086  0.00  0.00    +0.000 A 
ATOM     17  C   UNL     1      -1.342  11.270  19.691  0.00  0.00    +0.000 A 
ATOM     18  C   UNL     1      -1.214  11.646  21.034  0.00  0.00    +0.000 A 
ATOM     19  C   UNL     1      -0.150  11.073  21.742  0.00  0.00    +0.000 A 
ATOM     20  C   UNL     1       0.748  10.177  21.143  0.00  0.00    +0.000 A 
BRANCH  18  21
ATOM     21  N   UNL     1      -2.102  12.520  21.619  0.00  0.00    +0.000 N 
ATOM     22  C   UNL     1      -3.232  13.118  20.894  0.00  0.00    +0.000 C 
ATOM     23  C   UNL     1      -4.568  12.712  21.549  0.00  0.00    +0.000 C 
ATOM     24  N   UNL     1      -4.629  13.040  22.986  0.00  0.00    +0.000 NA
ATOM     25  C   UNL     1      -3.482  12.414  23.677  0.00  0.00    +0.000 C 
ATOM     26  C   UNL     1      -2.104  12.777  23.068  0.00  0.00    +0.000 C 
ATOM     27  H   UNL     1      -5.493  12.667  23.375  0.00  0.00    +0.000 HD
ENDBRANCH  18  21
ENDBRANCH   9  15
BRANCH   6  28
ATOM     28  C   UNL     1       4.793   3.815  19.570  0.00  0.00    +0.000 C 
BRANCH  28  29
ATOM     29  C   UNL     1       4.373   2.384  19.910  0.00  0.00    +0.000 C 
BRANCH  29  30
ATOM     30  C   UNL     1       3.069   1.980  19.209  0.00  0.00    +0.000 C 
BRANCH  30  31
ATOM     31  N   UNL     1       1.870   2.684  19.690  0.00  0.00    +0.000 NA
ATOM     32  C   UNL     1       0.678   2.351  18.903  0.00  0.00    +0.000 C 
ATOM     33  C   UNL     1       1.633   2.385  21.103  0.00  0.00    +0.000 C 
ENDBRANCH  30  31
ENDBRANCH  29  30
ENDBRANCH  28  29
ENDBRANCH   6  28
TORSDOF 6
ENDMDL
MODEL 5
REMARK VINA RESULT:      -7.2      1.869      4.198
REMARK  Name = 
REMARK  9 active torsions:
REMARK  status: ('A' for Active; 'I' for Inactive)
REMARK    1  A    between atoms: C_1  and  N_2
REMARK    2  A    between atoms: N_6  and  C_7
REMARK    3  A    between atoms: C_7  and  C_8
REMARK    4  A    between atoms: C_8  and  C_9
REMARK    5  A    between atoms: C_9  and  N_10
REMARK    6  A    between atoms: N_10  and  C_11
REMARK    7  A    between atoms: N_10  and  C_12
REMARK    8  A    between atoms: C_15  and  C_16
REMARK    9  A    between atoms: C_19  and  N_20
REMARK                            x       y       z     vdW  Elec       q    Type
REMARK                         _______ _______ _______ _____ _____    ______ ____
ROOT
ATOM      1  C   UNL     1       6.853   4.524  14.549  0.00  0.00    +0.000 C 
ATOM      2  N   UNL     1       6.801   5.654  15.451  0.00  0.00    +0.000 N 
ATOM      3  C   UNL     1       5.633   5.722  16.207  0.00  0.00    +0.000 A 
ATOM      4  N   UNL     1       4.996   4.591  16.531  0.00  0.00    +0.000 NA
ATOM      5  C   UNL     1       3.850   4.622  17.239  0.00  0.00    +0.000 A 
ATOM      6  N   UNL     1       3.152   3.446  17.511  0.00  0.00    +0.000 N 
ATOM      7  C   UNL     1       3.384   5.874  17.638  0.00  0.00    +0.000 A 
ATOM      8  S   UNL     1       2.000   6.285  18.560  0.00  0.00    +0.000 S 
ATOM      9  C   UNL     1       2.328   7.966  18.475  0.00  0.00    +0.000 A 
ATOM     10  C   UNL     1       3.478   8.202  17.745  0.00  0.00    +0.000 A 
ATOM     11  C   UNL     1       4.096   7.005  17.271  0.00  0.00    +0.000 A 
ATOM     12  N   UNL     1       5.231   6.950  16.536  0.00  0.00    +0.000 NA
ATOM     13  H   UNL     1       6.918   6.565  15.023  0.00  0.00    +0.000 HD
ATOM     14  H   UNL     1       2.412   3.572  18.190  0.00  0.00    +0.000 HD
ENDROOT
BRANCH   9  15
ATOM     15  C   UNL     1       1.408   8.935  19.099  0.00  0.00    +0.000 A 
ATOM     16  C   UNL     1       0.768   9.938  18.361  0.00  0.00    +0.000 A 
ATOM     17  C   UNL     1      -0.080  10.867  18.982  0.00  0.00    +0.000 A 
ATOM     18  C   UNL     1      -0.341  10.826  20.357  0.00  0.00    +0.000 A 
ATOM     19  C   UNL     1       0.293   9.809  21.083  0.00  0.00    +0.000 A 
ATOM     20  C   UNL     1       1.150   8.882  20.472  0.00  0.00    +0.000 A 
BRANCH  18  21
ATOM     21  N   UNL     1      -1.188  11.735  20.951  0.00  0.00    +0.000 N 
ATOM     22  C   UNL     1      -1.170  12.023  22.392  0.00  0.00    +0.000 C 
ATOM     23  C   UNL     1      -0.837  13.509  22.640  0.00  0.00    +0.000 C 
ATOM     24  N   UNL     1      -1.745  14.429  21.928  0.00  0.00    +0.000 NA
ATOM     25  C   UNL     1      -1.728  14.110  20.485  0.00  0.00    +0.000 C 
ATOM     26  C   UNL     1      -2.051  12.629  20.163  0.00  0.00    +0.000 C 
ATOM     27  H   UNL     1      -1.418  15.385  22.059  0.00  0.00    +0.000 HD
ENDBRANCH  18  21
ENDBRANCH   9  15
BRANCH   6  28
ATOM     28  C   UNL     1       3.940   2.226  17.653  0.00  0.00    +0.000 C 
BRANCH  28  29
ATOM     29  C   UNL     1       3.412   1.381  18.813  0.00  0.00    +0.000 C 
BRANCH  29  30
ATOM     30  C   UNL     1       1.951   1.708  19.152  0.00  0.00    +0.000 C 
BRANCH  30  31
ATOM     31  N   UNL     1       1.751   2.315  20.477  0.00  0.00    +0.000 NA
ATOM     32  C   UNL     1       3.015   2.721  21.098  0.00  0.00    +0.000 C 
ATOM     33  C   UNL     1       0.850   3.464  20.383  0.00  0.00    +0.000 C 
ENDBRANCH  30  31
ENDBRANCH  29  30
ENDBRANCH  28  29
ENDBRANCH   6  28
TORSDOF 6
ENDMDL
MODEL 6
REMARK VINA RESULT:      -7.1      2.268      9.797
REMARK  Name = 
REMARK  9 active torsions:
REMARK  status: ('A' for Active; 'I' for Inactive)
REMARK    1  A    between atoms: C_1  and  N_2
REMARK    2  A    between atoms: N_6  and  C_7
REMARK    3  A    between atoms: C_7  and  C_8
REMARK    4  A    between atoms: C_8  and  C_9
REMARK    5  A    between atoms: C_9  and  N_10
REMARK    6  A    between atoms: N_10  and  C_11
REMARK    7  A    between atoms: N_10  and  C_12
REMARK    8  A    between atoms: C_15  and  C_16
REMARK    9  A    between atoms: C_19  and  N_20
REMARK                            x       y       z     vdW  Elec       q    Type
REMARK                         _______ _______ _______ _____ _____    ______ ____
ROOT
ATOM      1  C   UNL     1      -2.995  13.956  22.735  0.00  0.00    +0.000 C 
ATOM      2  N   UNL     1      -1.986  13.004  23.148  0.00  0.00    +0.000 N 
ATOM      3  C   UNL     1      -1.263  12.452  22.094  0.00  0.00    +0.000 A 
ATOM      4  N   UNL     1      -1.074  13.172  20.982  0.00  0.00    +0.000 NA
ATOM      5  C   UNL     1      -0.401  12.658  19.933  0.00  0.00    +0.000 A 
ATOM      6  N   UNL     1      -0.269  13.386  18.751  0.00  0.00    +0.000 N 
ATOM      7  C   UNL     1       0.107  11.368  20.075  0.00  0.00    +0.000 A 
ATOM      8  S   UNL     1       1.023  10.425  18.977  0.00  0.00    +0.000 S 
ATOM      9  C   UNL     1       1.118   9.094  20.053  0.00  0.00    +0.000 A 
ATOM     10  C   UNL     1       0.449   9.372  21.232  0.00  0.00    +0.000 A 
ATOM     11  C   UNL     1      -0.123  10.680  21.255  0.00  0.00    +0.000 A 
ATOM     12  N   UNL     1      -0.825  11.207  22.286  0.00  0.00    +0.000 NA
ATOM     13  H   UNL     1      -2.318  12.226  23.707  0.00  0.00    +0.000 HD
ATOM     14  H   UNL     1       0.396  12.977  18.106  0.00  0.00    +0.000 HD
ENDROOT
BRANCH   9  15
ATOM     15  C   UNL     1       1.807   7.855  19.646  0.00  0.00    +0.000 A 
ATOM     16  C   UNL     1       2.521   7.759  18.446  0.00  0.00    +0.000 A 
ATOM     17  C   UNL     1       3.143   6.561  18.067  0.00  0.00    +0.000 A 
ATOM     18  C   UNL     1       3.097   5.416  18.872  0.00  0.00    +0.000 A 
ATOM     19  C   UNL     1       2.393   5.529  20.077  0.00  0.00    +0.000 A 
ATOM     20  C   UNL     1       1.759   6.720  20.460  0.00  0.00    +0.000 A 
BRANCH  18  21
ATOM     21  N   UNL     1       3.727   4.251  18.494  0.00  0.00    +0.000 N 
ATOM     22  C   UNL     1       4.780   3.614  19.298  0.00  0.00    +0.000 C 
ATOM     23  C   UNL     1       4.348   2.198  19.729  0.00  0.00    +0.000 C 
ATOM     24  N   UNL     1       3.960   1.342  18.591  0.00  0.00    +0.000 NA
ATOM     25  C   UNL     1       2.896   2.015  17.816  0.00  0.00    +0.000 C 
ATOM     26  C   UNL     1       3.263   3.447  17.352  0.00  0.00    +0.000 C 
ATOM     27  H   UNL     1       3.601   0.458  18.948  0.00  0.00    +0.000 HD
ENDBRANCH  18  21
ENDBRANCH   9  15
BRANCH   6  28
ATOM     28  C   UNL     1      -0.226  14.839  18.869  0.00  0.00    +0.000 C 
BRANCH  28  29
ATOM     29  C   UNL     1       1.187  15.305  19.221  0.00  0.00    +0.000 C 
BRANCH  29  30
ATOM     30  C   UNL     1       1.188  16.381  20.315  0.00  0.00    +0.000 C 
BRANCH  30  31
ATOM     31  N   UNL     1       1.663  15.920  21.628  0.00  0.00    +0.000 NA
ATOM     32  C   UNL     1       0.585  15.863  22.620  0.00  0.00    +0.000 C 
ATOM     33  C   UNL     1       2.301  14.608  21.510  0.00  0.00    +0.000 C 
ENDBRANCH  30  31
ENDBRANCH  29  30
ENDBRANCH  28  29
ENDBRANCH   6  28
TORSDOF 6
ENDMDL
MODEL 7
REMARK VINA RESULT:      -7.1      1.942      4.357
REMARK  Name = 
REMARK  9 active torsions:
REMARK  status: ('A' for Active; 'I' for Inactive)
REMARK    1  A    between atoms: C_1  and  N_2
REMARK    2  A    between atoms: N_6  and  C_7
REMARK    3  A    between atoms: C_7  and  C_8
REMARK    4  A    between atoms: C_8  and  C_9
REMARK    5  A    between atoms: C_9  and  N_10
REMARK    6  A    between atoms: N_10  and  C_11
REMARK    7  A    between atoms: N_10  and  C_12
REMARK    8  A    between atoms: C_15  and  C_16
REMARK    9  A    between atoms: C_19  and  N_20
REMARK                            x       y       z     vdW  Elec       q    Type
REMARK                         _______ _______ _______ _____ _____    ______ ____
ROOT
ATOM      1  C   UNL     1       6.927   4.342  14.375  0.00  0.00    +0.000 C 
ATOM      2  N   UNL     1       6.936   5.491  15.256  0.00  0.00    +0.000 N 
ATOM      3  C   UNL     1       5.787   5.619  16.032  0.00  0.00    +0.000 A 
ATOM      4  N   UNL     1       5.113   4.519  16.390  0.00  0.00    +0.000 NA
ATOM      5  C   UNL     1       3.983   4.609  17.119  0.00  0.00    +0.000 A 
ATOM      6  N   UNL     1       3.246   3.466  17.428  0.00  0.00    +0.000 N 
ATOM      7  C   UNL     1       3.574   5.885  17.502  0.00  0.00    +0.000 A 
ATOM      8  S   UNL     1       2.225   6.367  18.442  0.00  0.00    +0.000 S 
ATOM      9  C   UNL     1       2.615   8.032  18.317  0.00  0.00    +0.000 A 
ATOM     10  C   UNL     1       3.759   8.209  17.561  0.00  0.00    +0.000 A 
ATOM     11  C   UNL     1       4.321   6.980  17.099  0.00  0.00    +0.000 A 
ATOM     12  N   UNL     1       5.439   6.867  16.344  0.00  0.00    +0.000 NA
ATOM     13  H   UNL     1       7.080   6.388  14.807  0.00  0.00    +0.000 HD
ATOM     14  H   UNL     1       2.525   3.634  18.118  0.00  0.00    +0.000 HD
ENDROOT
BRANCH   9  15
ATOM     15  C   UNL     1       1.746   9.048  18.939  0.00  0.00    +0.000 A 
ATOM     16  C   UNL     1       1.091   8.826  20.156  0.00  0.00    +0.000 A 
ATOM     17  C   UNL     1       0.245   9.797  20.712  0.00  0.00    +0.000 A 
ATOM     18  C   UNL     1       0.029  11.034  20.092  0.00  0.00    +0.000 A 
ATOM     19  C   UNL     1       0.702  11.250  18.882  0.00  0.00    +0.000 A 
ATOM     20  C   UNL     1       1.542  10.281  18.313  0.00  0.00    +0.000 A 
BRANCH  18  21
ATOM     21  N   UNL     1      -0.791  11.984  20.658  0.00  0.00    +0.000 N 
ATOM     22  C   UNL     1      -1.833  12.693  19.903  0.00  0.00    +0.000 C 
ATOM     23  C   UNL     1      -3.223  12.412  20.507  0.00  0.00    +0.000 C 
ATOM     24  N   UNL     1      -3.302  12.731  21.946  0.00  0.00    +0.000 NA
ATOM     25  C   UNL     1      -2.244  11.993  22.666  0.00  0.00    +0.000 C 
ATOM     26  C   UNL     1      -0.818  12.228  22.109  0.00  0.00    +0.000 C 
ATOM     27  H   UNL     1      -4.211  12.439  22.301  0.00  0.00    +0.000 HD
ENDBRANCH  18  21
ENDBRANCH   9  15
BRANCH   6  28
ATOM     28  C   UNL     1       3.989   2.219  17.579  0.00  0.00    +0.000 C 
BRANCH  28  29
ATOM     29  C   UNL     1       3.313   1.315  18.610  0.00  0.00    +0.000 C 
BRANCH  29  30
ATOM     30  C   UNL     1       2.051   1.955  19.205  0.00  0.00    +0.000 C 
BRANCH  30  31
ATOM     31  N   UNL     1       2.302   2.903  20.301  0.00  0.00    +0.000 NA
ATOM     32  C   UNL     1       1.181   2.972  21.243  0.00  0.00    +0.000 C 
ATOM     33  C   UNL     1       3.530   2.547  21.013  0.00  0.00    +0.000 C 
ENDBRANCH  30  31
ENDBRANCH  29  30
ENDBRANCH  28  29
ENDBRANCH   6  28
TORSDOF 6
ENDMDL
MODEL 8
REMARK VINA RESULT:      -7.0      0.964      1.547
REMARK  Name = 
REMARK  9 active torsions:
REMARK  status: ('A' for Active; 'I' for Inactive)
REMARK    1  A    between atoms: C_1  and  N_2
REMARK    2  A    between atoms: N_6  and  C_7
REMARK    3  A    between atoms: C_7  and  C_8
REMARK    4  A    between atoms: C_8  and  C_9
REMARK    5  A    between atoms: C_9  and  N_10
REMARK    6  A    between atoms: N_10  and  C_11
REMARK    7  A    between atoms: N_10  and  C_12
REMARK    8  A    between atoms: C_15  and  C_16
REMARK    9  A    between atoms: C_19  and  N_20
REMARK                            x       y       z     vdW  Elec       q    Type
REMARK                         _______ _______ _______ _____ _____    ______ ____
ROOT
ATOM      1  C   UNL     1       4.577   1.744  20.298  0.00  0.00    +0.000 C 
ATOM      2  N   UNL     1       3.335   2.359  20.715  0.00  0.00    +0.000 N 
ATOM      3  C   UNL     1       3.123   3.627  20.179  0.00  0.00    +0.000 A 
ATOM      4  N   UNL     1       3.636   3.925  18.979  0.00  0.00    +0.000 NA
ATOM      5  C   UNL     1       3.471   5.151  18.443  0.00  0.00    +0.000 A 
ATOM      6  N   UNL     1       4.068   5.478  17.226  0.00  0.00    +0.000 N 
ATOM      7  C   UNL     1       2.724   6.070  19.178  0.00  0.00    +0.000 A 
ATOM      8  S   UNL     1       2.294   7.684  18.799  0.00  0.00    +0.000 S 
ATOM      9  C   UNL     1       1.441   7.902  20.271  0.00  0.00    +0.000 A 
ATOM     10  C   UNL     1       1.495   6.753  21.039  0.00  0.00    +0.000 A 
ATOM     11  C   UNL     1       2.220   5.694  20.412  0.00  0.00    +0.000 A 
ATOM     12  N   UNL     1       2.421   4.465  20.943  0.00  0.00    +0.000 NA
ATOM     13  H   UNL     1       3.201   2.445  21.716  0.00  0.00    +0.000 HD
ATOM     14  H   UNL     1       3.734   6.354  16.844  0.00  0.00    +0.000 HD
ENDROOT
BRANCH   9  15
ATOM     15  C   UNL     1       0.815   9.200  20.583  0.00  0.00    +0.000 A 
ATOM     16  C   UNL     1       0.457   9.561  21.886  0.00  0.00    +0.000 A 
ATOM     17  C   UNL     1      -0.164  10.790  22.154  0.00  0.00    +0.000 A 
ATOM     18  C   UNL     1      -0.439  11.716  21.141  0.00  0.00    +0.000 A 
ATOM     19  C   UNL     1      -0.063  11.350  19.842  0.00  0.00    +0.000 A 
ATOM     20  C   UNL     1       0.551  10.119  19.564  0.00  0.00    +0.000 A 
BRANCH  18  21
ATOM     21  N   UNL     1      -1.035  12.926  21.420  0.00  0.00    +0.000 N 
ATOM     22  C   UNL     1      -1.783  13.699  20.419  0.00  0.00    +0.000 C 
ATOM     23  C   UNL     1      -3.250  13.879  20.862  0.00  0.00    +0.000 C 
ATOM     24  N   UNL     1      -3.377  14.484  22.202  0.00  0.00    +0.000 NA
ATOM     25  C   UNL     1      -2.618  13.673  23.176  0.00  0.00    +0.000 C 
ATOM     26  C   UNL     1      -1.133  13.449  22.792  0.00  0.00    +0.000 C 
ATOM     27  H   UNL     1      -4.359  14.491  22.471  0.00  0.00    +0.000 HD
ENDBRANCH  18  21
ENDBRANCH   9  15
BRANCH   6  28
ATOM     28  C   UNL     1       4.249   4.396  16.265  0.00  0.00    +0.000 C 
BRANCH  28  29
ATOM     29  C   UNL     1       5.575   4.558  15.521  0.00  0.00    +0.000 C 
BRANCH  29  30
ATOM     30  C   UNL     1       6.206   5.938  15.753  0.00  0.00    +0.000 C 
BRANCH  30  31
ATOM     31  N   UNL     1       7.416   5.926  16.589  0.00  0.00    +0.000 NA
ATOM     32  C   UNL     1       7.424   7.016  17.568  0.00  0.00    +0.000 C 
ATOM     33  C   UNL     1       7.551   4.639  17.275  0.00  0.00    +0.000 C 
ENDBRANCH  30  31
ENDBRANCH  29  30
ENDBRANCH  28  29
ENDBRANCH   6  28
TORSDOF 6
ENDMDL
MODEL 9
REMARK VINA RESULT:      -7.0      2.455     10.823
REMARK  Name = 
REMARK  9 active torsions:
REMARK  status: ('A' for Active; 'I' for Inactive)
REMARK    1  A    between atoms: C_1  and  N_2
REMARK    2  A    between atoms: N_6  and  C_7
REMARK    3  A    between atoms: C_7  and  C_8
REMARK    4  A    between atoms: C_8  and  C_9
REMARK    5  A    between atoms: C_9  and  N_10
REMARK    6  A    between atoms: N_10  and  C_11
REMARK    7  A    between atoms: N_10  and  C_12
REMARK    8  A    between atoms: C_15  and  C_16
REMARK    9  A    between atoms: C_19  and  N_20
REMARK                            x       y       z     vdW  Elec       q    Type
REMARK                         _______ _______ _______ _____ _____    ______ ____
ROOT
ATOM      1  C   UNL     1      -0.270  16.404  19.548  0.00  0.00    +0.000 C 
ATOM      2  N   UNL     1      -0.084  15.288  18.645  0.00  0.00    +0.000 N 
ATOM      3  C   UNL     1      -0.137  14.043  19.264  0.00  0.00    +0.000 A 
ATOM      4  N   UNL     1      -0.894  13.887  20.357  0.00  0.00    +0.000 NA
ATOM      5  C   UNL     1      -0.947  12.701  20.996  0.00  0.00    +0.000 A 
ATOM      6  N   UNL     1      -1.680  12.564  22.175  0.00  0.00    +0.000 N 
ATOM      7  C   UNL     1      -0.209  11.652  20.452  0.00  0.00    +0.000 A 
ATOM      8  S   UNL     1      -0.066  10.027  20.973  0.00  0.00    +0.000 S 
ATOM      9  C   UNL     1       1.009   9.615  19.703  0.00  0.00    +0.000 A 
ATOM     10  C   UNL     1       1.256  10.713  18.899  0.00  0.00    +0.000 A 
ATOM     11  C   UNL     1       0.551  11.882  19.316  0.00  0.00    +0.000 A 
ATOM     12  N   UNL     1       0.610  13.090  18.707  0.00  0.00    +0.000 NA
ATOM     13  H   UNL     1       0.770  15.301  18.100  0.00  0.00    +0.000 HD
ATOM     14  H   UNL     1      -1.789  11.600  22.465  0.00  0.00    +0.000 HD
ENDROOT
BRANCH   9  15
ATOM     15  C   UNL     1       1.565   8.252  19.611  0.00  0.00    +0.000 A 
ATOM     16  C   UNL     1       2.212   7.787  18.461  0.00  0.00    +0.000 A 
ATOM     17  C   UNL     1       2.706   6.476  18.388  0.00  0.00    +0.000 A 
ATOM     18  C   UNL     1       2.594   5.581  19.459  0.00  0.00    +0.000 A 
ATOM     19  C   UNL     1       1.958   6.064  20.610  0.00  0.00    +0.000 A 
ATOM     20  C   UNL     1       1.452   7.370  20.689  0.00  0.00    +0.000 A 
BRANCH  18  21
ATOM     21  N   UNL     1       3.098   4.302  19.378  0.00  0.00    +0.000 N 
ATOM     22  C   UNL     1       2.546   3.175  20.142  0.00  0.00    +0.000 C 
ATOM     23  C   UNL     1       2.027   2.080  19.187  0.00  0.00    +0.000 C 
ATOM     24  N   UNL     1       3.050   1.619  18.228  0.00  0.00    +0.000 NA
ATOM     25  C   UNL     1       3.573   2.781  17.479  0.00  0.00    +0.000 C 
ATOM     26  C   UNL     1       4.109   3.923  18.378  0.00  0.00    +0.000 C 
ATOM     27  H   UNL     1       2.621   0.968  17.573  0.00  0.00    +0.000 HD
ENDBRANCH  18  21
ENDBRANCH   9  15
BRANCH   6  28
ATOM     28  C   UNL     1      -2.862  13.406  22.322  0.00  0.00    +0.000 C 
BRANCH  28  29
ATOM     29  C   UNL     1      -4.095  12.699  21.758  0.00  0.00    +0.000 C 
BRANCH  29  30
ATOM     30  C   UNL     1      -5.397  13.203  22.397  0.00  0.00    +0.000 C 
BRANCH  30  31
ATOM     31  N   UNL     1      -6.448  12.183  22.533  0.00  0.00    +0.000 NA
ATOM     32  C   UNL     1      -7.378  12.487  23.624  0.00  0.00    +0.000 C 
ATOM     33  C   UNL     1      -7.185  12.038  21.276  0.00  0.00    +0.000 C 
ENDBRANCH  30  31
ENDBRANCH  29  30
ENDBRANCH  28  29
ENDBRANCH   6  28
TORSDOF 6
ENDMDL
