MODEL 1
REMARK VINA RESULT:      -8.1      0.000      0.000
REMARK  Name = 
REMARK  7 active torsions:
REMARK  status: ('A' for Active; 'I' for Inactive)
REMARK    1  A    between atoms: C_1  and  C_2
REMARK    2  A    between atoms: C_2  and  N_3
REMARK    3  A    between atoms: C_5  and  C_6
REMARK    4  A    between atoms: N_10  and  C_11
REMARK    5  A    between atoms: C_11  and  C_12
REMARK    6  A    between atoms: N_14  and  C_15
REMARK    7  A    between atoms: C_18  and  C_19
REMARK                            x       y       z     vdW  Elec       q    Type
REMARK                         _______ _______ _______ _____ _____    ______ ____
ROOT
ATOM      1  N   UNL     1       6.989   5.714  17.090  0.00  0.00    +0.000 N 
ATOM      2  N   UNL     1       7.287   5.428  15.796  0.00  0.00    +0.000 NA
ATOM      3  C   UNL     1       6.274   4.641  15.390  0.00  0.00    +0.000 A 
ATOM      4  C   UNL     1       6.223   4.123  14.004  0.00  0.00    +0.000 C 
ATOM      5  C   UNL     1       5.364   4.440  16.436  0.00  0.00    +0.000 A 
ATOM      6  N   UNL     1       4.179   3.717  16.487  0.00  0.00    +0.000 NA
ATOM      7  N   UNL     1       3.544   3.689  17.578  0.00  0.00    +0.000 NA
ATOM      8  N   UNL     1       3.991   4.375  18.701  0.00  0.00    +0.000 N 
ATOM      9  C   UNL     1       5.143   5.155  18.733  0.00  0.00    +0.000 A 
ATOM     10  O   UNL     1       5.484   5.809  19.712  0.00  0.00    +0.000 OA
ATOM     11  C   UNL     1       5.835   5.132  17.503  0.00  0.00    +0.000 A 
ENDROOT
BRANCH   1  13
ATOM     12  C   UNL     1       7.621   8.054  17.549  0.00  0.00    +0.000 C 
ATOM     13  C   UNL     1       7.867   6.587  17.847  0.00  0.00    +0.000 C 
ENDBRANCH   1  13
BRANCH   8  14
ATOM     14  C   UNL     1       3.210   4.200  19.910  0.00  0.00    +0.000 C 
BRANCH  14  15
ATOM     15  C   UNL     1       2.119   5.250  20.079  0.00  0.00    +0.000 C 
ATOM     16  O   UNL     1       0.986   4.884  20.394  0.00  0.00    +0.000 OA
ATOM     17  N   UNL     1       2.536   6.569  19.963  0.00  0.00    +0.000 N 
ATOM     18  H   UNL     1       3.480   6.738  19.632  0.00  0.00    +0.000 HD
BRANCH  17  19
ATOM     19  C   UNL     1       1.753   7.717  20.235  0.00  0.00    +0.000 A 
ATOM     20  C   UNL     1       1.217   7.991  21.496  0.00  0.00    +0.000 A 
ATOM     21  C   UNL     1       0.454   9.138  21.723  0.00  0.00    +0.000 A 
ATOM     22  C   UNL     1       0.206  10.042  20.690  0.00  0.00    +0.000 A 
ATOM     23  C   UNL     1      -0.625  11.266  20.937  0.00  0.00    +0.000 C 
ATOM     24  C   UNL     1       0.745   9.781  19.426  0.00  0.00    +0.000 A 
ATOM     25  C   UNL     1       1.523   8.634  19.203  0.00  0.00    +0.000 A 
ENDBRANCH  17  19
ENDBRANCH  14  15
ENDBRANCH   8  14
TORSDOF 4
ENDMDL
MODEL 2
REMARK VINA RESULT:      -7.1      3.766      6.586
REMARK  Name = 
REMARK  7 active torsions:
REMARK  status: ('A' for Active; 'I' for Inactive)
REMARK    1  A    between atoms: C_1  and  C_2
REMARK    2  A    between atoms: C_2  and  N_3
REMARK    3  A    between atoms: C_5  and  C_6
REMARK    4  A    between atoms: N_10  and  C_11
REMARK    5  A    between atoms: C_11  and  C_12
REMARK    6  A    between atoms: N_14  and  C_15
REMARK    7  A    between atoms: C_18  and  C_19
REMARK                            x       y       z     vdW  Elec       q    Type
REMARK                         _______ _______ _______ _____ _____    ______ ____
ROOT
ATOM      1  N   UNL     1       4.840   3.972  17.315  0.00  0.00    +0.000 N 
ATOM      2  N   UNL     1       4.515   3.589  16.052  0.00  0.00    +0.000 NA
ATOM      3  C   UNL     1       5.390   4.250  15.271  0.00  0.00    +0.000 A 
ATOM      4  C   UNL     1       5.371   4.082  13.800  0.00  0.00    +0.000 C 
ATOM      5  C   UNL     1       6.242   5.040  16.054  0.00  0.00    +0.000 A 
ATOM      6  N   UNL     1       7.291   5.878  15.698  0.00  0.00    +0.000 NA
ATOM      7  N   UNL     1       7.899   6.494  16.616  0.00  0.00    +0.000 NA
ATOM      8  N   UNL     1       7.558   6.334  17.954  0.00  0.00    +0.000 N 
ATOM      9  C   UNL     1       6.550   5.490  18.408  0.00  0.00    +0.000 A 
ATOM     10  O   UNL     1       6.308   5.309  19.596  0.00  0.00    +0.000 OA
ATOM     11  C   UNL     1       5.878   4.846  17.346  0.00  0.00    +0.000 A 
ENDROOT
BRANCH   1  13
ATOM     12  C   UNL     1       2.684   3.934  18.512  0.00  0.00    +0.000 C 
ATOM     13  C   UNL     1       4.109   3.417  18.438  0.00  0.00    +0.000 C 
ENDBRANCH   1  13
BRANCH   8  14
ATOM     14  C   UNL     1       8.284   7.157  18.902  0.00  0.00    +0.000 C 
BRANCH  14  15
ATOM     15  C   UNL     1       8.368   8.621  18.487  0.00  0.00    +0.000 C 
ATOM     16  O   UNL     1       7.562   9.052  17.663  0.00  0.00    +0.000 OA
ATOM     17  N   UNL     1       9.304   9.384  19.173  0.00  0.00    +0.000 N 
ATOM     18  H   UNL     1       9.957   8.897  19.779  0.00  0.00    +0.000 HD
BRANCH  17  19
ATOM     19  C   UNL     1       9.460  10.788  19.085  0.00  0.00    +0.000 A 
ATOM     20  C   UNL     1       9.754  11.447  17.889  0.00  0.00    +0.000 A 
ATOM     21  C   UNL     1       9.895  12.836  17.845  0.00  0.00    +0.000 A 
ATOM     22  C   UNL     1       9.746  13.602  19.001  0.00  0.00    +0.000 A 
ATOM     23  C   UNL     1       9.911  15.092  18.949  0.00  0.00    +0.000 C 
ATOM     24  C   UNL     1       9.443  12.953  20.202  0.00  0.00    +0.000 A 
ATOM     25  C   UNL     1       9.289  11.558  20.241  0.00  0.00    +0.000 A 
ENDBRANCH  17  19
ENDBRANCH  14  15
ENDBRANCH   8  14
TORSDOF 4
ENDMDL
MODEL 3
REMARK VINA RESULT:      -7.0      3.993      6.835
REMARK  Name = 
REMARK  7 active torsions:
REMARK  status: ('A' for Active; 'I' for Inactive)
REMARK    1  A    between atoms: C_1  and  C_2
REMARK    2  A    between atoms: C_2  and  N_3
REMARK    3  A    between atoms: C_5  and  C_6
REMARK    4  A    between atoms: N_10  and  C_11
REMARK    5  A    between atoms: C_11  and  C_12
REMARK    6  A    between atoms: N_14  and  C_15
REMARK    7  A    between atoms: C_18  and  C_19
REMARK                            x       y       z     vdW  Elec       q    Type
REMARK                         _______ _______ _______ _____ _____    ______ ____
ROOT
ATOM      1  N   UNL     1       5.284   4.021  17.911  0.00  0.00    +0.000 N 
ATOM      2  N   UNL     1       4.845   3.572  16.707  0.00  0.00    +0.000 NA
ATOM      3  C   UNL     1       5.520   4.314  15.810  0.00  0.00    +0.000 A 
ATOM      4  C   UNL     1       5.328   4.110  14.356  0.00  0.00    +0.000 C 
ATOM      5  C   UNL     1       6.363   5.222  16.465  0.00  0.00    +0.000 A 
ATOM      6  N   UNL     1       7.244   6.173  15.965  0.00  0.00    +0.000 NA
ATOM      7  N   UNL     1       7.887   6.880  16.788  0.00  0.00    +0.000 NA
ATOM      8  N   UNL     1       7.748   6.713  18.161  0.00  0.00    +0.000 N 
ATOM      9  C   UNL     1       6.921   5.763  18.752  0.00  0.00    +0.000 A 
ATOM     10  O   UNL     1       6.863   5.583  19.964  0.00  0.00    +0.000 OA
ATOM     11  C   UNL     1       6.200   5.016  17.795  0.00  0.00    +0.000 A 
ENDROOT
BRANCH   1  13
ATOM     12  C   UNL     1       3.272   3.504  19.240  0.00  0.00    +0.000 C 
ATOM     13  C   UNL     1       4.782   3.409  19.126  0.00  0.00    +0.000 C 
ENDBRANCH   1  13
BRANCH   8  14
ATOM     14  C   UNL     1       8.485   7.641  18.997  0.00  0.00    +0.000 C 
BRANCH  14  15
ATOM     15  C   UNL     1       8.518   9.058  18.437  0.00  0.00    +0.000 C 
ATOM     16  O   UNL     1       7.612   9.422  17.688  0.00  0.00    +0.000 OA
ATOM     17  N   UNL     1       9.538   9.867  18.919  0.00  0.00    +0.000 N 
ATOM     18  H   UNL     1      10.264   9.429  19.479  0.00  0.00    +0.000 HD
BRANCH  17  19
ATOM     19  C   UNL     1       9.685  11.255  18.679  0.00  0.00    +0.000 A 
ATOM     20  C   UNL     1       9.042  12.231  19.442  0.00  0.00    +0.000 A 
ATOM     21  C   UNL     1       9.218  13.591  19.174  0.00  0.00    +0.000 A 
ATOM     22  C   UNL     1      10.044  14.007  18.130  0.00  0.00    +0.000 A 
ATOM     23  C   UNL     1      10.219  15.468  17.839  0.00  0.00    +0.000 C 
ATOM     24  C   UNL     1      10.699  13.037  17.365  0.00  0.00    +0.000 A 
ATOM     25  C   UNL     1      10.531  11.672  17.644  0.00  0.00    +0.000 A 
ENDBRANCH  17  19
ENDBRANCH  14  15
ENDBRANCH   8  14
TORSDOF 4
ENDMDL
MODEL 4
REMARK VINA RESULT:      -6.9      2.286      4.124
REMARK  Name = 
REMARK  7 active torsions:
REMARK  status: ('A' for Active; 'I' for Inactive)
REMARK    1  A    between atoms: C_1  and  C_2
REMARK    2  A    between atoms: C_2  and  N_3
REMARK    3  A    between atoms: C_5  and  C_6
REMARK    4  A    between atoms: N_10  and  C_11
REMARK    5  A    between atoms: C_11  and  C_12
REMARK    6  A    between atoms: N_14  and  C_15
REMARK    7  A    between atoms: C_18  and  C_19
REMARK                            x       y       z     vdW  Elec       q    Type
REMARK                         _______ _______ _______ _____ _____    ______ ____
ROOT
ATOM      1  N   UNL     1       4.058   4.188  18.627  0.00  0.00    +0.000 N 
ATOM      2  N   UNL     1       4.778   4.310  17.482  0.00  0.00    +0.000 NA
ATOM      3  C   UNL     1       4.571   5.582  17.095  0.00  0.00    +0.000 A 
ATOM      4  C   UNL     1       5.213   6.119  15.873  0.00  0.00    +0.000 C 
ATOM      5  C   UNL     1       3.718   6.233  17.996  0.00  0.00    +0.000 A 
ATOM      6  N   UNL     1       3.233   7.535  18.015  0.00  0.00    +0.000 NA
ATOM      7  N   UNL     1       2.457   7.868  18.953  0.00  0.00    +0.000 NA
ATOM      8  N   UNL     1       2.104   6.977  19.961  0.00  0.00    +0.000 N 
ATOM      9  C   UNL     1       2.569   5.670  20.046  0.00  0.00    +0.000 A 
ATOM     10  O   UNL     1       2.302   4.921  20.978  0.00  0.00    +0.000 OA
ATOM     11  C   UNL     1       3.409   5.332  18.962  0.00  0.00    +0.000 A 
ENDROOT
BRANCH   1  13
ATOM     12  C   UNL     1       3.311   1.837  18.631  0.00  0.00    +0.000 C 
ATOM     13  C   UNL     1       4.078   2.931  19.351  0.00  0.00    +0.000 C 
ENDBRANCH   1  13
BRANCH   8  14
ATOM     14  C   UNL     1       1.145   7.462  20.935  0.00  0.00    +0.000 C 
BRANCH  14  15
ATOM     15  C   UNL     1       1.038   8.983  20.968  0.00  0.00    +0.000 C 
ATOM     16  O   UNL     1       1.625   9.600  21.857  0.00  0.00    +0.000 OA
ATOM     17  N   UNL     1       0.358   9.557  19.903  0.00  0.00    +0.000 N 
ATOM     18  H   UNL     1      -0.141   8.937  19.272  0.00  0.00    +0.000 HD
BRANCH  17  19
ATOM     19  C   UNL     1       0.264  10.942  19.624  0.00  0.00    +0.000 A 
ATOM     20  C   UNL     1       1.254  11.649  18.940  0.00  0.00    +0.000 A 
ATOM     21  C   UNL     1       1.119  13.015  18.681  0.00  0.00    +0.000 A 
ATOM     22  C   UNL     1      -0.014  13.709  19.104  0.00  0.00    +0.000 A 
ATOM     23  C   UNL     1      -0.147  15.179  18.834  0.00  0.00    +0.000 C 
ATOM     24  C   UNL     1      -1.016  13.008  19.783  0.00  0.00    +0.000 A 
ATOM     25  C   UNL     1      -0.884  11.633  20.030  0.00  0.00    +0.000 A 
ENDBRANCH  17  19
ENDBRANCH  14  15
ENDBRANCH   8  14
TORSDOF 4
ENDMDL
MODEL 5
REMARK VINA RESULT:      -6.8      2.198      4.033
REMARK  Name = 
REMARK  7 active torsions:
REMARK  status: ('A' for Active; 'I' for Inactive)
REMARK    1  A    between atoms: C_1  and  C_2
REMARK    2  A    between atoms: C_2  and  N_3
REMARK    3  A    between atoms: C_5  and  C_6
REMARK    4  A    between atoms: N_10  and  C_11
REMARK    5  A    between atoms: C_11  and  C_12
REMARK    6  A    between atoms: N_14  and  C_15
REMARK    7  A    between atoms: C_18  and  C_19
REMARK                            x       y       z     vdW  Elec       q    Type
REMARK                         _______ _______ _______ _____ _____    ______ ____
ROOT
ATOM      1  N   UNL     1       4.921   4.512  18.194  0.00  0.00    +0.000 N 
ATOM      2  N   UNL     1       4.713   3.472  19.042  0.00  0.00    +0.000 NA
ATOM      3  C   UNL     1       3.632   3.839  19.756  0.00  0.00    +0.000 A 
ATOM      4  C   UNL     1       3.070   2.946  20.795  0.00  0.00    +0.000 C 
ATOM      5  C   UNL     1       3.187   5.104  19.351  0.00  0.00    +0.000 A 
ATOM      6  N   UNL     1       2.119   5.878  19.787  0.00  0.00    +0.000 NA
ATOM      7  N   UNL     1       1.943   7.007  19.251  0.00  0.00    +0.000 NA
ATOM      8  N   UNL     1       2.771   7.471  18.236  0.00  0.00    +0.000 N 
ATOM      9  C   UNL     1       3.839   6.752  17.709  0.00  0.00    +0.000 A 
ATOM     10  O   UNL     1       4.515   7.147  16.766  0.00  0.00    +0.000 OA
ATOM     11  C   UNL     1       4.016   5.510  18.358  0.00  0.00    +0.000 A 
ENDROOT
BRANCH   1  13
ATOM     12  C   UNL     1       5.561   3.887  15.896  0.00  0.00    +0.000 C 
ATOM     13  C   UNL     1       6.008   4.443  17.235  0.00  0.00    +0.000 C 
ENDBRANCH   1  13
BRANCH   8  14
ATOM     14  C   UNL     1       2.507   8.815  17.759  0.00  0.00    +0.000 C 
BRANCH  14  15
ATOM     15  C   UNL     1       1.320   9.475  18.451  0.00  0.00    +0.000 C 
ATOM     16  O   UNL     1       0.223   9.458  17.894  0.00  0.00    +0.000 OA
ATOM     17  N   UNL     1       1.567   9.958  19.729  0.00  0.00    +0.000 N 
ATOM     18  H   UNL     1       2.530   9.976  20.049  0.00  0.00    +0.000 HD
BRANCH  17  19
ATOM     19  C   UNL     1       0.598  10.463  20.630  0.00  0.00    +0.000 A 
ATOM     20  C   UNL     1      -0.047  11.687  20.444  0.00  0.00    +0.000 A 
ATOM     21  C   UNL     1      -1.001  12.146  21.356  0.00  0.00    +0.000 A 
ATOM     22  C   UNL     1      -1.332  11.389  22.480  0.00  0.00    +0.000 A 
ATOM     23  C   UNL     1      -2.348  11.894  23.461  0.00  0.00    +0.000 C 
ATOM     24  C   UNL     1      -0.698  10.157  22.670  0.00  0.00    +0.000 A 
ATOM     25  C   UNL     1       0.251   9.692  21.746  0.00  0.00    +0.000 A 
ENDBRANCH  17  19
ENDBRANCH  14  15
ENDBRANCH   8  14
TORSDOF 4
ENDMDL
MODEL 6
REMARK VINA RESULT:      -6.8      2.550      4.642
REMARK  Name = 
REMARK  7 active torsions:
REMARK  status: ('A' for Active; 'I' for Inactive)
REMARK    1  A    between atoms: C_1  and  C_2
REMARK    2  A    between atoms: C_2  and  N_3
REMARK    3  A    between atoms: C_5  and  C_6
REMARK    4  A    between atoms: N_10  and  C_11
REMARK    5  A    between atoms: C_11  and  C_12
REMARK    6  A    between atoms: N_14  and  C_15
REMARK    7  A    between atoms: C_18  and  C_19
REMARK                            x       y       z     vdW  Elec       q    Type
REMARK                         _______ _______ _______ _____ _____    ______ ____
ROOT
ATOM      1  N   UNL     1       3.926   4.307  18.998  0.00  0.00    +0.000 N 
ATOM      2  N   UNL     1       3.614   3.301  19.857  0.00  0.00    +0.000 NA
ATOM      3  C   UNL     1       2.655   3.824  20.643  0.00  0.00    +0.000 A 
ATOM      4  C   UNL     1       2.030   3.018  21.716  0.00  0.00    +0.000 C 
ATOM      5  C   UNL     1       2.388   5.148  20.272  0.00  0.00    +0.000 A 
ATOM      6  N   UNL     1       1.487   6.074  20.781  0.00  0.00    +0.000 NA
ATOM      7  N   UNL     1       1.455   7.223  20.261  0.00  0.00    +0.000 NA
ATOM      8  N   UNL     1       2.276   7.565  19.192  0.00  0.00    +0.000 N 
ATOM      9  C   UNL     1       3.179   6.694  18.592  0.00  0.00    +0.000 A 
ATOM     10  O   UNL     1       3.845   6.991  17.606  0.00  0.00    +0.000 OA
ATOM     11  C   UNL     1       3.202   5.432  19.225  0.00  0.00    +0.000 A 
ENDROOT
BRANCH   1  13
ATOM     12  C   UNL     1       4.297   3.731  16.629  0.00  0.00    +0.000 C 
ATOM     13  C   UNL     1       4.922   4.080  17.967  0.00  0.00    +0.000 C 
ENDBRANCH   1  13
BRANCH   8  14
ATOM     14  C   UNL     1       2.194   8.939  18.737  0.00  0.00    +0.000 C 
BRANCH  14  15
ATOM     15  C   UNL     1       0.963   9.673  19.256  0.00  0.00    +0.000 C 
ATOM     16  O   UNL     1      -0.072   9.638  18.591  0.00  0.00    +0.000 OA
ATOM     17  N   UNL     1       1.092  10.240  20.516  0.00  0.00    +0.000 N 
ATOM     18  H   UNL     1       2.019  10.261  20.931  0.00  0.00    +0.000 HD
BRANCH  17  19
ATOM     19  C   UNL     1       0.052  10.828  21.275  0.00  0.00    +0.000 A 
ATOM     20  C   UNL     1      -0.377  10.316  22.502  0.00  0.00    +0.000 A 
ATOM     21  C   UNL     1      -1.405  10.931  23.222  0.00  0.00    +0.000 A 
ATOM     22  C   UNL     1      -2.030  12.076  22.729  0.00  0.00    +0.000 A 
ATOM     23  C   UNL     1      -3.142  12.724  23.501  0.00  0.00    +0.000 C 
ATOM     24  C   UNL     1      -1.602  12.602  21.506  0.00  0.00    +0.000 A 
ATOM     25  C   UNL     1      -0.560  11.990  20.790  0.00  0.00    +0.000 A 
ENDBRANCH  17  19
ENDBRANCH  14  15
ENDBRANCH   8  14
TORSDOF 4
ENDMDL
MODEL 7
REMARK VINA RESULT:      -6.8      3.749      8.517
REMARK  Name = 
REMARK  7 active torsions:
REMARK  status: ('A' for Active; 'I' for Inactive)
REMARK    1  A    between atoms: C_1  and  C_2
REMARK    2  A    between atoms: C_2  and  N_3
REMARK    3  A    between atoms: C_5  and  C_6
REMARK    4  A    between atoms: N_10  and  C_11
REMARK    5  A    between atoms: C_11  and  C_12
REMARK    6  A    between atoms: N_14  and  C_15
REMARK    7  A    between atoms: C_18  and  C_19
REMARK                            x       y       z     vdW  Elec       q    Type
REMARK                         _______ _______ _______ _____ _____    ______ ____
ROOT
ATOM      1  N   UNL     1      -1.734  12.285  20.216  0.00  0.00    +0.000 N 
ATOM      2  N   UNL     1      -3.024  12.406  19.809  0.00  0.00    +0.000 NA
ATOM      3  C   UNL     1      -3.114  11.585  18.747  0.00  0.00    +0.000 A 
ATOM      4  C   UNL     1      -4.393  11.422  18.019  0.00  0.00    +0.000 C 
ATOM      5  C   UNL     1      -1.880  10.969  18.500  0.00  0.00    +0.000 A 
ATOM      6  N   UNL     1      -1.495  10.052  17.531  0.00  0.00    +0.000 NA
ATOM      7  N   UNL     1      -0.296   9.659  17.525  0.00  0.00    +0.000 NA
ATOM      8  N   UNL     1       0.624  10.103  18.468  0.00  0.00    +0.000 N 
ATOM      9  C   UNL     1       0.322  10.989  19.496  0.00  0.00    +0.000 A 
ATOM     10  O   UNL     1       1.128  11.316  20.360  0.00  0.00    +0.000 OA
ATOM     11  C   UNL     1      -1.021  11.425  19.446  0.00  0.00    +0.000 A 
ENDROOT
BRANCH   1  13
ATOM     12  C   UNL     1      -1.446  12.225  22.665  0.00  0.00    +0.000 C 
ATOM     13  C   UNL     1      -1.283  13.020  21.383  0.00  0.00    +0.000 C 
ENDBRANCH   1  13
BRANCH   8  14
ATOM     14  C   UNL     1       1.986   9.633  18.303  0.00  0.00    +0.000 C 
BRANCH  14  15
ATOM     15  C   UNL     1       2.184   8.192  18.759  0.00  0.00    +0.000 C 
ATOM     16  O   UNL     1       1.734   7.847  19.851  0.00  0.00    +0.000 OA
ATOM     17  N   UNL     1       2.779   7.349  17.830  0.00  0.00    +0.000 N 
ATOM     18  H   UNL     1       3.170   7.769  16.992  0.00  0.00    +0.000 HD
BRANCH  17  19
ATOM     19  C   UNL     1       2.923   5.946  17.952  0.00  0.00    +0.000 A 
ATOM     20  C   UNL     1       1.844   5.061  17.882  0.00  0.00    +0.000 A 
ATOM     21  C   UNL     1       2.032   3.682  18.003  0.00  0.00    +0.000 A 
ATOM     22  C   UNL     1       3.308   3.153  18.199  0.00  0.00    +0.000 A 
ATOM     23  C   UNL     1       3.500   1.672  18.341  0.00  0.00    +0.000 C 
ATOM     24  C   UNL     1       4.395   4.030  18.262  0.00  0.00    +0.000 A 
ATOM     25  C   UNL     1       4.207   5.414  18.127  0.00  0.00    +0.000 A 
ENDBRANCH  17  19
ENDBRANCH  14  15
ENDBRANCH   8  14
TORSDOF 4
ENDMDL
MODEL 8
REMARK VINA RESULT:      -6.7      2.670      3.800
REMARK  Name = 
REMARK  7 active torsions:
REMARK  status: ('A' for Active; 'I' for Inactive)
REMARK    1  A    between atoms: C_1  and  C_2
REMARK    2  A    between atoms: C_2  and  N_3
REMARK    3  A    between atoms: C_5  and  C_6
REMARK    4  A    between atoms: N_10  and  C_11
REMARK    5  A    between atoms: C_11  and  C_12
REMARK    6  A    between atoms: N_14  and  C_15
REMARK    7  A    between atoms: C_18  and  C_19
REMARK                            x       y       z     vdW  Elec       q    Type
REMARK                         _______ _______ _______ _____ _____    ______ ____
ROOT
ATOM      1  N   UNL     1       5.222   4.389  17.088  0.00  0.00    +0.000 N 
ATOM      2  N   UNL     1       4.775   3.110  17.182  0.00  0.00    +0.000 NA
ATOM      3  C   UNL     1       3.486   3.237  17.549  0.00  0.00    +0.000 A 
ATOM      4  C   UNL     1       2.631   2.044  17.742  0.00  0.00    +0.000 C 
ATOM      5  C   UNL     1       3.150   4.590  17.688  0.00  0.00    +0.000 A 
ATOM      6  N   UNL     1       1.952   5.200  18.037  0.00  0.00    +0.000 NA
ATOM      7  N   UNL     1       1.922   6.461  18.101  0.00  0.00    +0.000 NA
ATOM      8  N   UNL     1       3.040   7.234  17.810  0.00  0.00    +0.000 N 
ATOM      9  C   UNL     1       4.268   6.714  17.415  0.00  0.00    +0.000 A 
ATOM     10  O   UNL     1       5.222   7.414  17.096  0.00  0.00    +0.000 OA
ATOM     11  C   UNL     1       4.264   5.302  17.387  0.00  0.00    +0.000 A 
ENDROOT
BRANCH   1  13
ATOM     12  C   UNL     1       7.529   4.815  17.852  0.00  0.00    +0.000 C 
ATOM     13  C   UNL     1       6.590   4.637  16.673  0.00  0.00    +0.000 C 
ENDBRANCH   1  13
BRANCH   8  14
ATOM     14  C   UNL     1       2.893   8.665  17.994  0.00  0.00    +0.000 C 
BRANCH  14  15
ATOM     15  C   UNL     1       1.530   9.063  18.550  0.00  0.00    +0.000 C 
ATOM     16  O   UNL     1       1.331   8.966  19.761  0.00  0.00    +0.000 OA
ATOM     17  N   UNL     1       0.647   9.612  17.630  0.00  0.00    +0.000 N 
ATOM     18  H   UNL     1       0.903   9.572  16.648  0.00  0.00    +0.000 HD
BRANCH  17  19
ATOM     19  C   UNL     1      -0.605  10.201  17.928  0.00  0.00    +0.000 A 
ATOM     20  C   UNL     1      -1.803   9.771  17.353  0.00  0.00    +0.000 A 
ATOM     21  C   UNL     1      -3.019  10.378  17.678  0.00  0.00    +0.000 A 
ATOM     22  C   UNL     1      -3.065  11.434  18.588  0.00  0.00    +0.000 A 
ATOM     23  C   UNL     1      -4.373  12.089  18.923  0.00  0.00    +0.000 C 
ATOM     24  C   UNL     1      -1.872  11.866  19.176  0.00  0.00    +0.000 A 
ATOM     25  C   UNL     1      -0.653  11.247  18.858  0.00  0.00    +0.000 A 
ENDBRANCH  17  19
ENDBRANCH  14  15
ENDBRANCH   8  14
TORSDOF 4
ENDMDL
MODEL 9
REMARK VINA RESULT:      -6.7      2.336      4.366
REMARK  Name = 
REMARK  7 active torsions:
REMARK  status: ('A' for Active; 'I' for Inactive)
REMARK    1  A    between atoms: C_1  and  C_2
REMARK    2  A    between atoms: C_2  and  N_3
REMARK    3  A    between atoms: C_5  and  C_6
REMARK    4  A    between atoms: N_10  and  C_11
REMARK    5  A    between atoms: C_11  and  C_12
REMARK    6  A    between atoms: N_14  and  C_15
REMARK    7  A    between atoms: C_18  and  C_19
REMARK                            x       y       z     vdW  Elec       q    Type
REMARK                         _______ _______ _______ _____ _____    ______ ____
ROOT
ATOM      1  N   UNL     1       3.469   4.190  18.650  0.00  0.00    +0.000 N 
ATOM      2  N   UNL     1       4.233   4.291  17.532  0.00  0.00    +0.000 NA
ATOM      3  C   UNL     1       4.195   5.600  17.222  0.00  0.00    +0.000 A 
ATOM      4  C   UNL     1       4.934   6.125  16.051  0.00  0.00    +0.000 C 
ATOM      5  C   UNL     1       3.403   6.296  18.144  0.00  0.00    +0.000 A 
ATOM      6  N   UNL     1       3.081   7.644  18.235  0.00  0.00    +0.000 NA
ATOM      7  N   UNL     1       2.324   8.014  19.175  0.00  0.00    +0.000 NA
ATOM      8  N   UNL     1       1.834   7.115  20.115  0.00  0.00    +0.000 N 
ATOM      9  C   UNL     1       2.132   5.757  20.127  0.00  0.00    +0.000 A 
ATOM     10  O   UNL     1       1.747   4.992  21.004  0.00  0.00    +0.000 OA
ATOM     11  C   UNL     1       2.956   5.384  19.042  0.00  0.00    +0.000 A 
ENDROOT
BRANCH   1  13
ATOM     12  C   UNL     1       2.035   2.196  18.872  0.00  0.00    +0.000 C 
ATOM     13  C   UNL     1       3.312   2.899  19.293  0.00  0.00    +0.000 C 
ENDBRANCH   1  13
BRANCH   8  14
ATOM     14  C   UNL     1       0.914   7.656  21.097  0.00  0.00    +0.000 C 
BRANCH  14  15
ATOM     15  C   UNL     1       0.851   9.179  21.088  0.00  0.00    +0.000 C 
ATOM     16  O   UNL     1       1.524   9.806  21.905  0.00  0.00    +0.000 OA
ATOM     17  N   UNL     1       0.102   9.739  20.063  0.00  0.00    +0.000 N 
ATOM     18  H   UNL     1      -0.464   9.115  19.495  0.00  0.00    +0.000 HD
BRANCH  17  19
ATOM     19  C   UNL     1       0.022  11.117  19.746  0.00  0.00    +0.000 A 
ATOM     20  C   UNL     1      -0.990  11.950  20.227  0.00  0.00    +0.000 A 
ATOM     21  C   UNL     1      -1.029  13.307  19.894  0.00  0.00    +0.000 A 
ATOM     22  C   UNL     1      -0.053  13.863  19.068  0.00  0.00    +0.000 A 
ATOM     23  C   UNL     1      -0.107  15.317  18.704  0.00  0.00    +0.000 C 
ATOM     24  C   UNL     1       0.970  13.039  18.588  0.00  0.00    +0.000 A 
ATOM     25  C   UNL     1       1.015  11.679  18.934  0.00  0.00    +0.000 A 
ENDBRANCH  17  19
ENDBRANCH  14  15
ENDBRANCH   8  14
TORSDOF 4
ENDMDL
