MODEL 1
REMARK VINA RESULT:      -7.2      0.000      0.000
REMARK  Name = 
REMARK  4 active torsions:
REMARK  status: ('A' for Active; 'I' for Inactive)
REMARK    1  A    between atoms: C_2  and  C_3
REMARK    2  A    between atoms: C_6  and  N_7
REMARK    3  A    between atoms: N_11  and  C_12
REMARK    4  A    between atoms: C_18  and  C_19
REMARK                            x       y       z     vdW  Elec       q    Type
REMARK                         _______ _______ _______ _____ _____    ______ ____
ROOT
ATOM      1  N   UNL     1      -0.729  12.921  20.529  0.00  0.00    +0.000 N 
ATOM      2  C   UNL     1      -1.127  12.138  19.477  0.00  0.00    +0.000 A 
ATOM      3  N   UNL     1      -0.149  11.257  19.047  0.00  0.00    +0.000 NA
ATOM      4  C   UNL     1      -0.408  10.421  18.080  0.00  0.00    +0.000 A 
ATOM      5  N   UNL     1       0.476   9.479  17.592  0.00  0.00    +0.000 N 
ATOM      6  N   UNL     1      -1.674  10.474  17.490  0.00  0.00    +0.000 N 
ATOM      7  N   UNL     1      -2.077   9.679  16.469  0.00  0.00    +0.000 NA
ATOM      8  C   UNL     1      -3.325  10.114  16.247  0.00  0.00    +0.000 A 
ATOM      9  C   UNL     1      -3.729  11.125  17.154  0.00  0.00    +0.000 A 
ATOM     10  C   UNL     1      -2.613  11.360  17.926  0.00  0.00    +0.000 A 
ATOM     11  N   UNL     1      -2.320  12.199  18.945  0.00  0.00    +0.000 NA
ATOM     12  H   UNL     1       0.207  12.698  20.837  0.00  0.00    +0.000 HD
ATOM     13  H   UNL     1       0.085   8.787  16.954  0.00  0.00    +0.000 HD
ENDROOT
BRANCH   9  14
ATOM     14  C   UNL     1      -4.971  11.808  17.300  0.00  0.00    +0.000 C 
ATOM     15  C   UNL     1      -5.920  11.562  18.209  0.00  0.00    +0.000 C 
ATOM     16  N   UNL     1      -5.921  10.632  19.207  0.00  0.00    +0.000 N 
ATOM     17  C   UNL     1      -7.070  10.752  19.965  0.00  0.00    +0.000 C 
ATOM     18  O   UNL     1      -7.346  10.083  20.944  0.00  0.00    +0.000 OA
ATOM     19  N   UNL     1      -7.823  11.761  19.426  0.00  0.00    +0.000 N 
ATOM     20  C   UNL     1      -7.197  12.333  18.353  0.00  0.00    +0.000 C 
ATOM     21  O   UNL     1      -7.578  13.265  17.673  0.00  0.00    +0.000 OA
ATOM     22  H   UNL     1      -5.182   9.990  19.443  0.00  0.00    +0.000 HD
ATOM     23  H   UNL     1      -8.701  12.067  19.807  0.00  0.00    +0.000 HD
ENDBRANCH   9  14
BRANCH   1  27
ATOM     24  C   UNL     1      -3.044  15.122  23.303  0.00  0.00    +0.000 A 
ATOM     25  C   UNL     1      -2.601  15.703  22.114  0.00  0.00    +0.000 A 
ATOM     26  C   UNL     1      -1.857  14.949  21.200  0.00  0.00    +0.000 A 
ATOM     27  C   UNL     1      -1.529  13.608  21.457  0.00  0.00    +0.000 A 
ATOM     28  C   UNL     1      -2.009  13.038  22.643  0.00  0.00    +0.000 A 
ATOM     29  C   UNL     1      -2.753  13.785  23.563  0.00  0.00    +0.000 A 
BRANCH  24  31
ATOM     30  N   UNL     1      -4.397  16.514  25.020  0.00  0.00    +0.000 NA
ATOM     31  C   UNL     1      -3.791  15.893  24.251  0.00  0.00    +0.000 C 
ENDBRANCH  24  31
ENDBRANCH   1  27
BRANCH   5  32
ATOM     32  C   UNL     1       1.765   9.291  18.236  0.00  0.00    +0.000 C 
ATOM     33  C   UNL     1       2.041   8.102  19.111  0.00  0.00    +0.000 C 
ATOM     34  C   UNL     1       2.682   8.200  17.759  0.00  0.00    +0.000 C 
ENDBRANCH   5  32
TORSDOF 4
ENDMDL
MODEL 2
REMARK VINA RESULT:      -7.0      3.845      8.363
REMARK  Name = 
REMARK  4 active torsions:
REMARK  status: ('A' for Active; 'I' for Inactive)
REMARK    1  A    between atoms: C_2  and  C_3
REMARK    2  A    between atoms: C_6  and  N_7
REMARK    3  A    between atoms: N_11  and  C_12
REMARK    4  A    between atoms: C_18  and  C_19
REMARK                            x       y       z     vdW  Elec       q    Type
REMARK                         _______ _______ _______ _____ _____    ______ ____
ROOT
ATOM      1  N   UNL     1      -3.046  12.063  18.847  0.00  0.00    +0.000 N 
ATOM      2  C   UNL     1      -2.233  11.641  19.868  0.00  0.00    +0.000 A 
ATOM      3  N   UNL     1      -2.636  12.092  21.113  0.00  0.00    +0.000 NA
ATOM      4  C   UNL     1      -1.978  11.730  22.179  0.00  0.00    +0.000 A 
ATOM      5  N   UNL     1      -2.307  12.090  23.471  0.00  0.00    +0.000 N 
ATOM      6  N   UNL     1      -0.856  10.914  22.010  0.00  0.00    +0.000 N 
ATOM      7  N   UNL     1      -0.069  10.473  23.021  0.00  0.00    +0.000 NA
ATOM      8  C   UNL     1       0.862   9.764  22.368  0.00  0.00    +0.000 A 
ATOM      9  C   UNL     1       0.633   9.703  20.972  0.00  0.00    +0.000 A 
ATOM     10  C   UNL     1      -0.475  10.496  20.770  0.00  0.00    +0.000 A 
ATOM     11  N   UNL     1      -1.192  10.871  19.687  0.00  0.00    +0.000 NA
ATOM     12  H   UNL     1      -3.828  12.607  19.184  0.00  0.00    +0.000 HD
ATOM     13  H   UNL     1      -1.806  11.601  24.212  0.00  0.00    +0.000 HD
ENDROOT
BRANCH   9  14
ATOM     14  C   UNL     1       1.338   9.020  19.938  0.00  0.00    +0.000 C 
ATOM     15  C   UNL     1       1.792   7.763  19.971  0.00  0.00    +0.000 C 
ATOM     16  N   UNL     1       1.676   6.844  20.972  0.00  0.00    +0.000 N 
ATOM     17  C   UNL     1       2.231   5.642  20.577  0.00  0.00    +0.000 C 
ATOM     18  O   UNL     1       2.255   4.620  21.240  0.00  0.00    +0.000 OA
ATOM     19  N   UNL     1       2.728   5.806  19.312  0.00  0.00    +0.000 N 
ATOM     20  C   UNL     1       2.494   7.070  18.845  0.00  0.00    +0.000 C 
ATOM     21  O   UNL     1       2.778   7.530  17.756  0.00  0.00    +0.000 OA
ATOM     22  H   UNL     1       1.195   6.955  21.850  0.00  0.00    +0.000 HD
ATOM     23  H   UNL     1       3.164   5.071  18.783  0.00  0.00    +0.000 HD
ENDBRANCH   9  14
BRANCH   1  27
ATOM     24  C   UNL     1      -3.338  10.427  14.957  0.00  0.00    +0.000 A 
ATOM     25  C   UNL     1      -2.222  10.182  15.758  0.00  0.00    +0.000 A 
ATOM     26  C   UNL     1      -2.158  10.713  17.051  0.00  0.00    +0.000 A 
ATOM     27  C   UNL     1      -3.196  11.508  17.565  0.00  0.00    +0.000 A 
ATOM     28  C   UNL     1      -4.318  11.716  16.753  0.00  0.00    +0.000 A 
ATOM     29  C   UNL     1      -4.390  11.190  15.459  0.00  0.00    +0.000 A 
BRANCH  24  31
ATOM     30  N   UNL     1      -3.452   9.473  12.550  0.00  0.00    +0.000 NA
ATOM     31  C   UNL     1      -3.403   9.901  13.627  0.00  0.00    +0.000 C 
ENDBRANCH  24  31
ENDBRANCH   1  27
BRANCH   5  32
ATOM     32  C   UNL     1      -3.525  12.838  23.728  0.00  0.00    +0.000 C 
ATOM     33  C   UNL     1      -4.400  12.534  24.910  0.00  0.00    +0.000 C 
ATOM     34  C   UNL     1      -3.582  13.790  24.890  0.00  0.00    +0.000 C 
ENDBRANCH   5  32
TORSDOF 4
ENDMDL
MODEL 3
REMARK VINA RESULT:      -7.0      4.671      9.175
REMARK  Name = 
REMARK  4 active torsions:
REMARK  status: ('A' for Active; 'I' for Inactive)
REMARK    1  A    between atoms: C_2  and  C_3
REMARK    2  A    between atoms: C_6  and  N_7
REMARK    3  A    between atoms: N_11  and  C_12
REMARK    4  A    between atoms: C_18  and  C_19
REMARK                            x       y       z     vdW  Elec       q    Type
REMARK                         _______ _______ _______ _____ _____    ______ ____
ROOT
ATOM      1  N   UNL     1      -0.481  10.333  20.267  0.00  0.00    +0.000 N 
ATOM      2  C   UNL     1      -0.359  11.545  20.895  0.00  0.00    +0.000 A 
ATOM      3  N   UNL     1      -1.430  11.850  21.716  0.00  0.00    +0.000 NA
ATOM      4  C   UNL     1      -1.424  12.955  22.410  0.00  0.00    +0.000 A 
ATOM      5  N   UNL     1      -2.420  13.345  23.283  0.00  0.00    +0.000 N 
ATOM      6  N   UNL     1      -0.331  13.813  22.264  0.00  0.00    +0.000 N 
ATOM      7  N   UNL     1      -0.196  14.998  22.907  0.00  0.00    +0.000 NA
ATOM      8  C   UNL     1       0.976  15.445  22.435  0.00  0.00    +0.000 A 
ATOM      9  C   UNL     1       1.604  14.529  21.556  0.00  0.00    +0.000 A 
ATOM     10  C   UNL     1       0.705  13.493  21.439  0.00  0.00    +0.000 A 
ATOM     11  N   UNL     1       0.678  12.329  20.751  0.00  0.00    +0.000 NA
ATOM     12  H   UNL     1      -1.324   9.847  20.539  0.00  0.00    +0.000 HD
ATOM     13  H   UNL     1      -2.205  14.145  23.877  0.00  0.00    +0.000 HD
ENDROOT
BRANCH   9  14
ATOM     14  C   UNL     1       2.862  14.587  20.887  0.00  0.00    +0.000 C 
ATOM     15  C   UNL     1       3.153  15.285  19.784  0.00  0.00    +0.000 C 
ATOM     16  N   UNL     1       2.341  16.106  19.058  0.00  0.00    +0.000 N 
ATOM     17  C   UNL     1       3.053  16.683  18.025  0.00  0.00    +0.000 C 
ATOM     18  O   UNL     1       2.613  17.486  17.222  0.00  0.00    +0.000 OA
ATOM     19  N   UNL     1       4.335  16.203  18.081  0.00  0.00    +0.000 N 
ATOM     20  C   UNL     1       4.502  15.349  19.136  0.00  0.00    +0.000 C 
ATOM     21  O   UNL     1       5.517  14.778  19.483  0.00  0.00    +0.000 OA
ATOM     22  H   UNL     1       1.384  16.348  19.257  0.00  0.00    +0.000 HD
ATOM     23  H   UNL     1       5.065  16.487  17.452  0.00  0.00    +0.000 HD
ENDBRANCH   9  14
BRANCH   1  27
ATOM     24  C   UNL     1       2.476   7.918  18.445  0.00  0.00    +0.000 A 
ATOM     25  C   UNL     1       1.849   8.945  17.738  0.00  0.00    +0.000 A 
ATOM     26  C   UNL     1       0.892   9.747  18.368  0.00  0.00    +0.000 A 
ATOM     27  C   UNL     1       0.530   9.533  19.708  0.00  0.00    +0.000 A 
ATOM     28  C   UNL     1       1.193   8.516  20.406  0.00  0.00    +0.000 A 
ATOM     29  C   UNL     1       2.151   7.709  19.783  0.00  0.00    +0.000 A 
BRANCH  24  31
ATOM     30  N   UNL     1       4.231   6.409  17.280  0.00  0.00    +0.000 NA
ATOM     31  C   UNL     1       3.444   7.082  17.801  0.00  0.00    +0.000 C 
ENDBRANCH  24  31
ENDBRANCH   1  27
BRANCH   5  32
ATOM     32  C   UNL     1      -3.527  12.448  23.569  0.00  0.00    +0.000 C 
ATOM     33  C   UNL     1      -4.310  12.548  24.847  0.00  0.00    +0.000 C 
ATOM     34  C   UNL     1      -4.934  12.976  23.552  0.00  0.00    +0.000 C 
ENDBRANCH   5  32
TORSDOF 4
ENDMDL
MODEL 4
REMARK VINA RESULT:      -6.7      2.689      7.030
REMARK  Name = 
REMARK  4 active torsions:
REMARK  status: ('A' for Active; 'I' for Inactive)
REMARK    1  A    between atoms: C_2  and  C_3
REMARK    2  A    between atoms: C_6  and  N_7
REMARK    3  A    between atoms: N_11  and  C_12
REMARK    4  A    between atoms: C_18  and  C_19
REMARK                            x       y       z     vdW  Elec       q    Type
REMARK                         _______ _______ _______ _____ _____    ______ ____
ROOT
ATOM      1  N   UNL     1      -1.545  12.526  23.454  0.00  0.00    +0.000 N 
ATOM      2  C   UNL     1      -2.704  13.195  23.162  0.00  0.00    +0.000 A 
ATOM      3  N   UNL     1      -2.849  14.378  23.867  0.00  0.00    +0.000 NA
ATOM      4  C   UNL     1      -3.887  15.138  23.654  0.00  0.00    +0.000 A 
ATOM      5  N   UNL     1      -4.119  16.350  24.273  0.00  0.00    +0.000 N 
ATOM      6  N   UNL     1      -4.840  14.702  22.729  0.00  0.00    +0.000 N 
ATOM      7  N   UNL     1      -5.972  15.378  22.418  0.00  0.00    +0.000 NA
ATOM      8  C   UNL     1      -6.551  14.565  21.524  0.00  0.00    +0.000 A 
ATOM      9  C   UNL     1      -5.769  13.423  21.225  0.00  0.00    +0.000 A 
ATOM     10  C   UNL     1      -4.677  13.527  22.058  0.00  0.00    +0.000 A 
ATOM     11  N   UNL     1      -3.578  12.772  22.286  0.00  0.00    +0.000 NA
ATOM     12  H   UNL     1      -0.971  13.030  24.115  0.00  0.00    +0.000 HD
ATOM     13  H   UNL     1      -4.879  16.910  23.889  0.00  0.00    +0.000 HD
ENDROOT
BRANCH   9  14
ATOM     14  C   UNL     1      -5.985  12.355  20.306  0.00  0.00    +0.000 C 
ATOM     15  C   UNL     1      -5.147  11.935  19.352  0.00  0.00    +0.000 C 
ATOM     16  N   UNL     1      -3.902  12.403  19.048  0.00  0.00    +0.000 N 
ATOM     17  C   UNL     1      -3.348  11.647  18.032  0.00  0.00    +0.000 C 
ATOM     18  O   UNL     1      -2.235  11.800  17.562  0.00  0.00    +0.000 OA
ATOM     19  N   UNL     1      -4.265  10.698  17.669  0.00  0.00    +0.000 N 
ATOM     20  C   UNL     1      -5.398  10.781  18.432  0.00  0.00    +0.000 C 
ATOM     21  O   UNL     1      -6.384  10.072  18.386  0.00  0.00    +0.000 OA
ATOM     22  H   UNL     1      -3.392  13.132  19.520  0.00  0.00    +0.000 HD
ATOM     23  H   UNL     1      -4.099  10.001  16.964  0.00  0.00    +0.000 HD
ENDBRANCH   9  14
BRANCH   1  27
ATOM     24  C   UNL     1       0.514   9.535  21.284  0.00  0.00    +0.000 A 
ATOM     25  C   UNL     1      -0.155   9.231  22.469  0.00  0.00    +0.000 A 
ATOM     26  C   UNL     1      -0.851  10.231  23.158  0.00  0.00    +0.000 A 
ATOM     27  C   UNL     1      -0.880  11.554  22.687  0.00  0.00    +0.000 A 
ATOM     28  C   UNL     1      -0.225  11.829  21.480  0.00  0.00    +0.000 A 
ATOM     29  C   UNL     1       0.473  10.835  20.785  0.00  0.00    +0.000 A 
BRANCH  24  31
ATOM     30  N   UNL     1       1.831   7.695  20.019  0.00  0.00    +0.000 NA
ATOM     31  C   UNL     1       1.242   8.520  20.583  0.00  0.00    +0.000 C 
ENDBRANCH  24  31
ENDBRANCH   1  27
BRANCH   5  32
ATOM     32  C   UNL     1      -3.114  16.918  25.156  0.00  0.00    +0.000 C 
ATOM     33  C   UNL     1      -1.990  17.762  24.629  0.00  0.00    +0.000 C 
ATOM     34  C   UNL     1      -3.100  18.399  25.410  0.00  0.00    +0.000 C 
ENDBRANCH   5  32
TORSDOF 4
ENDMDL
MODEL 5
REMARK VINA RESULT:      -6.7      2.253      6.688
REMARK  Name = 
REMARK  4 active torsions:
REMARK  status: ('A' for Active; 'I' for Inactive)
REMARK    1  A    between atoms: C_2  and  C_3
REMARK    2  A    between atoms: C_6  and  N_7
REMARK    3  A    between atoms: N_11  and  C_12
REMARK    4  A    between atoms: C_18  and  C_19
REMARK                            x       y       z     vdW  Elec       q    Type
REMARK                         _______ _______ _______ _____ _____    ______ ____
ROOT
ATOM      1  N   UNL     1      -0.557  12.378  22.337  0.00  0.00    +0.000 N 
ATOM      2  C   UNL     1      -1.721  13.101  22.382  0.00  0.00    +0.000 A 
ATOM      3  N   UNL     1      -1.740  14.050  23.389  0.00  0.00    +0.000 NA
ATOM      4  C   UNL     1      -2.771  14.839  23.518  0.00  0.00    +0.000 A 
ATOM      5  N   UNL     1      -2.886  15.840  24.462  0.00  0.00    +0.000 N 
ATOM      6  N   UNL     1      -3.842  14.666  22.638  0.00  0.00    +0.000 N 
ATOM      7  N   UNL     1      -4.980  15.400  22.663  0.00  0.00    +0.000 NA
ATOM      8  C   UNL     1      -5.690  14.857  21.664  0.00  0.00    +0.000 A 
ATOM      9  C   UNL     1      -4.988  13.838  20.976  0.00  0.00    +0.000 A 
ATOM     10  C   UNL     1      -3.800  13.715  21.663  0.00  0.00    +0.000 A 
ATOM     11  N   UNL     1      -2.708  12.928  21.542  0.00  0.00    +0.000 NA
ATOM     12  H   UNL     1       0.109  12.686  23.032  0.00  0.00    +0.000 HD
ATOM     13  H   UNL     1      -3.668  16.482  24.340  0.00  0.00    +0.000 HD
ENDROOT
BRANCH   9  14
ATOM     14  C   UNL     1      -5.349  13.055  19.840  0.00  0.00    +0.000 C 
ATOM     15  C   UNL     1      -6.050  11.916  19.841  0.00  0.00    +0.000 C 
ATOM     16  N   UNL     1      -6.592  11.252  20.902  0.00  0.00    +0.000 N 
ATOM     17  C   UNL     1      -7.293  10.147  20.459  0.00  0.00    +0.000 C 
ATOM     18  O   UNL     1      -7.913   9.372  21.165  0.00  0.00    +0.000 OA
ATOM     19  N   UNL     1      -7.174  10.094  19.097  0.00  0.00    +0.000 N 
ATOM     20  C   UNL     1      -6.442  11.146  18.618  0.00  0.00    +0.000 C 
ATOM     21  O   UNL     1      -6.178  11.409  17.462  0.00  0.00    +0.000 OA
ATOM     22  H   UNL     1      -6.579  11.533  21.869  0.00  0.00    +0.000 HD
ATOM     23  H   UNL     1      -7.614   9.395  18.524  0.00  0.00    +0.000 HD
ENDBRANCH   9  14
BRANCH   1  27
ATOM     24  C   UNL     1       1.111  10.072  19.208  0.00  0.00    +0.000 A 
ATOM     25  C   UNL     1       0.477   9.462  20.291  0.00  0.00    +0.000 A 
ATOM     26  C   UNL     1      -0.090  10.246  21.303  0.00  0.00    +0.000 A 
ATOM     27  C   UNL     1      -0.023  11.648  21.262  0.00  0.00    +0.000 A 
ATOM     28  C   UNL     1       0.593  12.237  20.151  0.00  0.00    +0.000 A 
ATOM     29  C   UNL     1       1.162  11.462  19.135  0.00  0.00    +0.000 A 
BRANCH  24  31
ATOM     30  N   UNL     1       2.191   8.629  17.346  0.00  0.00    +0.000 NA
ATOM     31  C   UNL     1       1.707   9.276  18.177  0.00  0.00    +0.000 C 
ENDBRANCH  24  31
ENDBRANCH   1  27
BRANCH   5  32
ATOM     32  C   UNL     1      -1.764  16.151  25.332  0.00  0.00    +0.000 C 
ATOM     33  C   UNL     1      -0.755  17.202  24.969  0.00  0.00    +0.000 C 
ATOM     34  C   UNL     1      -1.737  17.458  26.073  0.00  0.00    +0.000 C 
ENDBRANCH   5  32
TORSDOF 4
ENDMDL
MODEL 6
REMARK VINA RESULT:      -6.6      2.944      6.475
REMARK  Name = 
REMARK  4 active torsions:
REMARK  status: ('A' for Active; 'I' for Inactive)
REMARK    1  A    between atoms: C_2  and  C_3
REMARK    2  A    between atoms: C_6  and  N_7
REMARK    3  A    between atoms: N_11  and  C_12
REMARK    4  A    between atoms: C_18  and  C_19
REMARK                            x       y       z     vdW  Elec       q    Type
REMARK                         _______ _______ _______ _____ _____    ______ ____
ROOT
ATOM      1  N   UNL     1      -2.416  13.152  21.301  0.00  0.00    +0.000 N 
ATOM      2  C   UNL     1      -3.655  12.778  20.850  0.00  0.00    +0.000 A 
ATOM      3  N   UNL     1      -4.651  12.913  21.803  0.00  0.00    +0.000 NA
ATOM      4  C   UNL     1      -5.887  12.634  21.495  0.00  0.00    +0.000 A 
ATOM      5  N   UNL     1      -6.963  12.762  22.351  0.00  0.00    +0.000 N 
ATOM      6  N   UNL     1      -6.151  12.173  20.202  0.00  0.00    +0.000 N 
ATOM      7  N   UNL     1      -7.381  11.831  19.747  0.00  0.00    +0.000 NA
ATOM      8  C   UNL     1      -7.121  11.442  18.491  0.00  0.00    +0.000 A 
ATOM      9  C   UNL     1      -5.758  11.595  18.136  0.00  0.00    +0.000 A 
ATOM     10  C   UNL     1      -5.149  12.038  19.289  0.00  0.00    +0.000 A 
ATOM     11  N   UNL     1      -3.882  12.357  19.633  0.00  0.00    +0.000 NA
ATOM     12  H   UNL     1      -2.445  13.498  22.250  0.00  0.00    +0.000 HD
ATOM     13  H   UNL     1      -7.885  12.668  21.927  0.00  0.00    +0.000 HD
ENDROOT
BRANCH   9  14
ATOM     14  C   UNL     1      -5.081  11.356  16.904  0.00  0.00    +0.000 C 
ATOM     15  C   UNL     1      -3.833  10.901  16.750  0.00  0.00    +0.000 C 
ATOM     16  N   UNL     1      -2.933  10.545  17.712  0.00  0.00    +0.000 N 
ATOM     17  C   UNL     1      -1.778  10.066  17.124  0.00  0.00    +0.000 C 
ATOM     18  O   UNL     1      -0.803   9.643  17.719  0.00  0.00    +0.000 OA
ATOM     19  N   UNL     1      -1.937  10.141  15.766  0.00  0.00    +0.000 N 
ATOM     20  C   UNL     1      -3.172  10.626  15.435  0.00  0.00    +0.000 C 
ATOM     21  O   UNL     1      -3.639  10.788  14.325  0.00  0.00    +0.000 OA
ATOM     22  H   UNL     1      -3.076  10.537  18.708  0.00  0.00    +0.000 HD
ATOM     23  H   UNL     1      -1.247   9.830  15.105  0.00  0.00    +0.000 HD
ENDBRANCH   9  14
BRANCH   1  27
ATOM     24  C   UNL     1       1.063  14.173  19.122  0.00  0.00    +0.000 A 
ATOM     25  C   UNL     1       0.770  12.843  19.428  0.00  0.00    +0.000 A 
ATOM     26  C   UNL     1      -0.399  12.527  20.129  0.00  0.00    +0.000 A 
ATOM     27  C   UNL     1      -1.290  13.527  20.549  0.00  0.00    +0.000 A 
ATOM     28  C   UNL     1      -0.990  14.851  20.205  0.00  0.00    +0.000 A 
ATOM     29  C   UNL     1       0.177  15.177  19.506  0.00  0.00    +0.000 A 
BRANCH  24  31
ATOM     30  N   UNL     1       3.242  14.774  17.855  0.00  0.00    +0.000 NA
ATOM     31  C   UNL     1       2.266  14.505  18.420  0.00  0.00    +0.000 C 
ENDBRANCH  24  31
ENDBRANCH   1  27
BRANCH   5  32
ATOM     32  C   UNL     1      -6.776  13.345  23.669  0.00  0.00    +0.000 C 
ATOM     33  C   UNL     1      -6.711  14.832  23.869  0.00  0.00    +0.000 C 
ATOM     34  C   UNL     1      -7.917  14.068  24.329  0.00  0.00    +0.000 C 
ENDBRANCH   5  32
TORSDOF 4
ENDMDL
MODEL 7
REMARK VINA RESULT:      -6.6      2.492      6.927
REMARK  Name = 
REMARK  4 active torsions:
REMARK  status: ('A' for Active; 'I' for Inactive)
REMARK    1  A    between atoms: C_2  and  C_3
REMARK    2  A    between atoms: C_6  and  N_7
REMARK    3  A    between atoms: N_11  and  C_12
REMARK    4  A    between atoms: C_18  and  C_19
REMARK                            x       y       z     vdW  Elec       q    Type
REMARK                         _______ _______ _______ _____ _____    ______ ____
ROOT
ATOM      1  N   UNL     1      -0.609  12.063  22.632  0.00  0.00    +0.000 N 
ATOM      2  C   UNL     1      -1.821  12.689  22.772  0.00  0.00    +0.000 A 
ATOM      3  N   UNL     1      -1.838  13.634  23.783  0.00  0.00    +0.000 NA
ATOM      4  C   UNL     1      -2.916  14.336  23.997  0.00  0.00    +0.000 A 
ATOM      5  N   UNL     1      -3.038  15.326  24.953  0.00  0.00    +0.000 N 
ATOM      6  N   UNL     1      -4.036  14.075  23.203  0.00  0.00    +0.000 N 
ATOM      7  N   UNL     1      -5.225  14.714  23.322  0.00  0.00    +0.000 NA
ATOM      8  C   UNL     1      -5.965  14.113  22.379  0.00  0.00    +0.000 A 
ATOM      9  C   UNL     1      -5.238  13.154  21.632  0.00  0.00    +0.000 A 
ATOM     10  C   UNL     1      -3.994  13.130  22.223  0.00  0.00    +0.000 A 
ATOM     11  N   UNL     1      -2.854  12.434  22.011  0.00  0.00    +0.000 NA
ATOM     12  H   UNL     1       0.082  12.426  23.273  0.00  0.00    +0.000 HD
ATOM     13  H   UNL     1      -3.877  15.901  24.896  0.00  0.00    +0.000 HD
ENDROOT
BRANCH   9  14
ATOM     14  C   UNL     1      -5.623  12.344  20.524  0.00  0.00    +0.000 C 
ATOM     15  C   UNL     1      -4.872  12.024  19.465  0.00  0.00    +0.000 C 
ATOM     16  N   UNL     1      -3.579  12.372  19.203  0.00  0.00    +0.000 N 
ATOM     17  C   UNL     1      -3.159  11.780  18.028  0.00  0.00    +0.000 C 
ATOM     18  O   UNL     1      -2.045  11.876  17.545  0.00  0.00    +0.000 OA
ATOM     19  N   UNL     1      -4.210  11.062  17.522  0.00  0.00    +0.000 N 
ATOM     20  C   UNL     1      -5.304  11.136  18.339  0.00  0.00    +0.000 C 
ATOM     21  O   UNL     1      -6.382  10.593  18.197  0.00  0.00    +0.000 OA
ATOM     22  H   UNL     1      -2.962  12.909  19.790  0.00  0.00    +0.000 HD
ATOM     23  H   UNL     1      -4.158  10.514  16.681  0.00  0.00    +0.000 HD
ENDBRANCH   9  14
BRANCH   1  27
ATOM     24  C   UNL     1       0.999   9.907  19.367  0.00  0.00    +0.000 A 
ATOM     25  C   UNL     1       0.590   9.253  20.530  0.00  0.00    +0.000 A 
ATOM     26  C   UNL     1       0.038   9.984  21.588  0.00  0.00    +0.000 A 
ATOM     27  C   UNL     1      -0.104  11.379  21.514  0.00  0.00    +0.000 A 
ATOM     28  C   UNL     1       0.287  12.010  20.326  0.00  0.00    +0.000 A 
ATOM     29  C   UNL     1       0.840  11.287  19.264  0.00  0.00    +0.000 A 
BRANCH  24  31
ATOM     30  N   UNL     1       2.050   8.571  17.411  0.00  0.00    +0.000 NA
ATOM     31  C   UNL     1       1.580   9.167  18.287  0.00  0.00    +0.000 C 
ENDBRANCH  24  31
ENDBRANCH   1  27
BRANCH   5  32
ATOM     32  C   UNL     1      -1.880  15.728  25.732  0.00  0.00    +0.000 C 
ATOM     33  C   UNL     1      -0.744  16.494  25.116  0.00  0.00    +0.000 C 
ATOM     34  C   UNL     1      -1.678  17.179  26.069  0.00  0.00    +0.000 C 
ENDBRANCH   5  32
TORSDOF 4
ENDMDL
MODEL 8
REMARK VINA RESULT:      -6.6      2.365      6.906
REMARK  Name = 
REMARK  4 active torsions:
REMARK  status: ('A' for Active; 'I' for Inactive)
REMARK    1  A    between atoms: C_2  and  C_3
REMARK    2  A    between atoms: C_6  and  N_7
REMARK    3  A    between atoms: N_11  and  C_12
REMARK    4  A    between atoms: C_18  and  C_19
REMARK                            x       y       z     vdW  Elec       q    Type
REMARK                         _______ _______ _______ _____ _____    ______ ____
ROOT
ATOM      1  N   UNL     1      -1.032  12.251  22.787  0.00  0.00    +0.000 N 
ATOM      2  C   UNL     1      -2.280  12.805  22.910  0.00  0.00    +0.000 A 
ATOM      3  N   UNL     1      -2.342  13.816  23.853  0.00  0.00    +0.000 NA
ATOM      4  C   UNL     1      -3.460  14.461  24.041  0.00  0.00    +0.000 A 
ATOM      5  N   UNL     1      -3.631  15.505  24.928  0.00  0.00    +0.000 N 
ATOM      6  N   UNL     1      -4.574  14.072  23.292  0.00  0.00    +0.000 N 
ATOM      7  N   UNL     1      -5.801  14.639  23.392  0.00  0.00    +0.000 NA
ATOM      8  C   UNL     1      -6.516  13.926  22.510  0.00  0.00    +0.000 A 
ATOM      9  C   UNL     1      -5.740  12.966  21.816  0.00  0.00    +0.000 A 
ATOM     10  C   UNL     1      -4.487  13.064  22.379  0.00  0.00    +0.000 A 
ATOM     11  N   UNL     1      -3.307  12.431  22.192  0.00  0.00    +0.000 NA
ATOM     12  H   UNL     1      -0.355  12.702  23.386  0.00  0.00    +0.000 HD
ATOM     13  H   UNL     1      -4.507  16.020  24.850  0.00  0.00    +0.000 HD
ENDROOT
BRANCH   9  14
ATOM     14  C   UNL     1      -6.090  12.056  20.776  0.00  0.00    +0.000 C 
ATOM     15  C   UNL     1      -6.359  12.360  19.502  0.00  0.00    +0.000 C 
ATOM     16  N   UNL     1      -6.347  13.583  18.898  0.00  0.00    +0.000 N 
ATOM     17  C   UNL     1      -6.624  13.449  17.551  0.00  0.00    +0.000 C 
ATOM     18  O   UNL     1      -6.655  14.357  16.740  0.00  0.00    +0.000 OA
ATOM     19  N   UNL     1      -6.839  12.120  17.299  0.00  0.00    +0.000 N 
ATOM     20  C   UNL     1      -6.685  11.366  18.429  0.00  0.00    +0.000 C 
ATOM     21  O   UNL     1      -6.776  10.160  18.543  0.00  0.00    +0.000 OA
ATOM     22  H   UNL     1      -6.098  14.466  19.314  0.00  0.00    +0.000 HD
ATOM     23  H   UNL     1      -7.037  11.750  16.386  0.00  0.00    +0.000 HD
ENDBRANCH   9  14
BRANCH   1  27
ATOM     24  C   UNL     1       0.680  10.001  19.640  0.00  0.00    +0.000 A 
ATOM     25  C   UNL     1       0.547   9.462  20.921  0.00  0.00    +0.000 A 
ATOM     26  C   UNL     1      -0.045  10.216  21.940  0.00  0.00    +0.000 A 
ATOM     27  C   UNL     1      -0.502  11.523  21.708  0.00  0.00    +0.000 A 
ATOM     28  C   UNL     1      -0.385  12.032  20.409  0.00  0.00    +0.000 A 
ATOM     29  C   UNL     1       0.206  11.286  19.384  0.00  0.00    +0.000 A 
BRANCH  24  31
ATOM     30  N   UNL     1       1.799   8.628  17.749  0.00  0.00    +0.000 NA
ATOM     31  C   UNL     1       1.299   9.241  18.597  0.00  0.00    +0.000 C 
ENDBRANCH  24  31
ENDBRANCH   1  27
BRANCH   5  32
ATOM     32  C   UNL     1      -2.488  16.036  25.653  0.00  0.00    +0.000 C 
ATOM     33  C   UNL     1      -1.328  16.667  24.938  0.00  0.00    +0.000 C 
ATOM     34  C   UNL     1      -2.278  17.522  25.722  0.00  0.00    +0.000 C 
ENDBRANCH   5  32
TORSDOF 4
ENDMDL
MODEL 9
REMARK VINA RESULT:      -6.5      8.576     11.935
REMARK  Name = 
REMARK  4 active torsions:
REMARK  status: ('A' for Active; 'I' for Inactive)
REMARK    1  A    between atoms: C_2  and  C_3
REMARK    2  A    between atoms: C_6  and  N_7
REMARK    3  A    between atoms: N_11  and  C_12
REMARK    4  A    between atoms: C_18  and  C_19
REMARK                            x       y       z     vdW  Elec       q    Type
REMARK                         _______ _______ _______ _____ _____    ______ ____
ROOT
ATOM      1  N   UNL     1       8.553  11.411  22.279  0.00  0.00    +0.000 N 
ATOM      2  C   UNL     1       7.593  12.205  22.850  0.00  0.00    +0.000 A 
ATOM      3  N   UNL     1       7.320  11.877  24.167  0.00  0.00    +0.000 NA
ATOM      4  C   UNL     1       6.457  12.581  24.846  0.00  0.00    +0.000 A 
ATOM      5  N   UNL     1       6.130  12.367  26.170  0.00  0.00    +0.000 N 
ATOM      6  N   UNL     1       5.812  13.634  24.192  0.00  0.00    +0.000 N 
ATOM      7  N   UNL     1       4.884  14.438  24.765  0.00  0.00    +0.000 NA
ATOM      8  C   UNL     1       4.556  15.257  23.755  0.00  0.00    +0.000 A 
ATOM      9  C   UNL     1       5.310  15.017  22.581  0.00  0.00    +0.000 A 
ATOM     10  C   UNL     1       6.092  13.926  22.891  0.00  0.00    +0.000 A 
ATOM     11  N   UNL     1       7.008  13.191  22.221  0.00  0.00    +0.000 NA
ATOM     12  H   UNL     1       8.927  10.736  22.932  0.00  0.00    +0.000 HD
ATOM     13  H   UNL     1       5.569  13.092  26.615  0.00  0.00    +0.000 HD
ENDROOT
BRANCH   9  14
ATOM     14  C   UNL     1       5.315  15.683  21.320  0.00  0.00    +0.000 C 
ATOM     15  C   UNL     1       4.343  15.671  20.402  0.00  0.00    +0.000 C 
ATOM     16  N   UNL     1       3.130  15.049  20.457  0.00  0.00    +0.000 N 
ATOM     17  C   UNL     1       2.397  15.343  19.323  0.00  0.00    +0.000 C 
ATOM     18  O   UNL     1       1.264  14.960  19.093  0.00  0.00    +0.000 OA
ATOM     19  N   UNL     1       3.165  16.147  18.524  0.00  0.00    +0.000 N 
ATOM     20  C   UNL     1       4.373  16.419  19.105  0.00  0.00    +0.000 C 
ATOM     21  O   UNL     1       5.268  17.121  18.677  0.00  0.00    +0.000 OA
ATOM     22  H   UNL     1       2.752  14.514  21.222  0.00  0.00    +0.000 HD
ATOM     23  H   UNL     1       2.853  16.524  17.647  0.00  0.00    +0.000 HD
ENDBRANCH   9  14
BRANCH   1  27
ATOM     24  C   UNL     1      10.924  12.375  18.911  0.00  0.00    +0.000 A 
ATOM     25  C   UNL     1      10.940  13.175  20.055  0.00  0.00    +0.000 A 
ATOM     26  C   UNL     1      10.166  12.823  21.166  0.00  0.00    +0.000 A 
ATOM     27  C   UNL     1       9.353  11.678  21.155  0.00  0.00    +0.000 A 
ATOM     28  C   UNL     1       9.376  10.876  20.007  0.00  0.00    +0.000 A 
ATOM     29  C   UNL     1      10.145  11.220  18.891  0.00  0.00    +0.000 A 
BRANCH  24  31
ATOM     30  N   UNL     1      12.332  13.033  16.837  0.00  0.00    +0.000 NA
ATOM     31  C   UNL     1      11.700  12.739  17.764  0.00  0.00    +0.000 C 
ENDBRANCH  24  31
ENDBRANCH   1  27
BRANCH   5  32
ATOM     32  C   UNL     1       6.847  11.366  26.942  0.00  0.00    +0.000 C 
ATOM     33  C   UNL     1       6.980  11.469  28.434  0.00  0.00    +0.000 C 
ATOM     34  C   UNL     1       6.083  10.428  27.834  0.00  0.00    +0.000 C 
ENDBRANCH   5  32
TORSDOF 4
ENDMDL
