MODEL 1
REMARK VINA RESULT:      -9.0      0.000      0.000
REMARK  Name = 
REMARK  8 active torsions:
REMARK  status: ('A' for Active; 'I' for Inactive)
REMARK    1  A    between atoms: C_1  and  O_2
REMARK    2  A    between atoms: O_2  and  C_3
REMARK    3  A    between atoms: C_7  and  N_8
REMARK    4  A    between atoms: N_8  and  C_9
REMARK    5  A    between atoms: C_9  and  C_10
REMARK    6  A    between atoms: C_9  and  C_21
REMARK    7  A    between atoms: C_10  and  C_12
REMARK    8  A    between atoms: C_23  and  C_24
REMARK                            x       y       z     vdW  Elec       q    Type
REMARK                         _______ _______ _______ _____ _____    ______ ____
ROOT
ATOM      1  C   UNL     1       6.082   6.180  16.623  0.00  0.00    +0.000 C 
ENDROOT
BRANCH   1   2
ATOM      2  C   UNL     1       7.210   6.893  17.339  0.00  0.00    +0.000 A 
ATOM      3  C   UNL     1       7.549   8.269  17.235  0.00  0.00    +0.000 A 
ATOM      4  C   UNL     1       8.358   8.509  18.317  0.00  0.00    +0.000 A 
ATOM      5  C   UNL     1       8.973   9.722  18.886  0.00  0.00    +0.000 C 
ATOM      6  O   UNL     1       8.557   7.345  18.990  0.00  0.00    +0.000 OA
ATOM      7  N   UNL     1       7.836   6.329  18.381  0.00  0.00    +0.000 NA
ENDBRANCH   1   2
BRANCH   1   8
ATOM      8  N   UNL     1       6.516   4.918  15.981  0.00  0.00    +0.000 N 
ATOM      9  H   UNL     1       7.427   4.680  16.393  0.00  0.00    +0.000 HD
BRANCH   8  14
ATOM     10  C   UNL     1       6.103   3.584  12.599  0.00  0.00    +0.000 A 
ATOM     11  C   UNL     1       7.122   4.228  11.894  0.00  0.00    +0.000 A 
ATOM     12  C   UNL     1       7.911   5.181  12.513  0.00  0.00    +0.000 A 
ATOM     13  C   UNL     1       7.718   5.495  13.872  0.00  0.00    +0.000 A 
ATOM     14  C   UNL     1       6.713   4.840  14.609  0.00  0.00    +0.000 A 
ATOM     15  C   UNL     1       5.923   3.893  13.942  0.00  0.00    +0.000 A 
BRANCH  10  17
ATOM     16  C   UNL     1       4.199   3.088  11.309  0.00  0.00    +0.000 C 
ATOM     17  O   UNL     1       5.399   2.635  11.926  0.00  0.00    +0.000 OA
ENDBRANCH  10  17
ENDBRANCH   8  14
ENDBRANCH   1   8
BRANCH   1  18
ATOM     18  C   UNL     1       4.798   6.032  17.446  0.00  0.00    +0.000 C 
ATOM     19  O   UNL     1       4.104   7.052  17.592  0.00  0.00    +0.000 OA
BRANCH  18  20
ATOM     20  C   UNL     1       4.365   4.800  18.160  0.00  0.00    +0.000 A 
ATOM     21  C   UNL     1       5.232   4.251  19.082  0.00  0.00    +0.000 A 
ATOM     22  N   UNL     1       4.824   2.982  19.345  0.00  0.00    +0.000 N 
ATOM     23  C   UNL     1       3.485   2.898  19.074  0.00  0.00    +0.000 A 
ATOM     24  C   UNL     1       2.583   1.928  19.510  0.00  0.00    +0.000 A 
ATOM     25  C   UNL     1       1.234   2.122  19.195  0.00  0.00    +0.000 A 
ATOM     26  C   UNL     1       0.850   3.195  18.401  0.00  0.00    +0.000 A 
ATOM     27  C   UNL     1       1.798   4.129  17.903  0.00  0.00    +0.000 A 
ATOM     28  C   UNL     1       3.157   4.017  18.279  0.00  0.00    +0.000 A 
ATOM     29  H   UNL     1       5.367   2.276  19.823  0.00  0.00    +0.000 HD
ENDBRANCH  18  20
ENDBRANCH   1  18
TORSDOF 6
ENDMDL
MODEL 2
REMARK VINA RESULT:      -8.6      2.139      2.793
REMARK  Name = 
REMARK  8 active torsions:
REMARK  status: ('A' for Active; 'I' for Inactive)
REMARK    1  A    between atoms: C_1  and  O_2
REMARK    2  A    between atoms: O_2  and  C_3
REMARK    3  A    between atoms: C_7  and  N_8
REMARK    4  A    between atoms: N_8  and  C_9
REMARK    5  A    between atoms: C_9  and  C_10
REMARK    6  A    between atoms: C_9  and  C_21
REMARK    7  A    between atoms: C_10  and  C_12
REMARK    8  A    between atoms: C_23  and  C_24
REMARK                            x       y       z     vdW  Elec       q    Type
REMARK                         _______ _______ _______ _____ _____    ______ ____
ROOT
ATOM      1  C   UNL     1       5.600   4.923  16.829  0.00  0.00    +0.000 C 
ENDROOT
BRANCH   1   2
ATOM      2  C   UNL     1       6.743   5.704  17.445  0.00  0.00    +0.000 A 
ATOM      3  C   UNL     1       7.108   7.046  17.159  0.00  0.00    +0.000 A 
ATOM      4  C   UNL     1       7.923   7.413  18.200  0.00  0.00    +0.000 A 
ATOM      5  C   UNL     1       8.561   8.680  18.603  0.00  0.00    +0.000 C 
ATOM      6  O   UNL     1       8.101   6.346  19.022  0.00  0.00    +0.000 OA
ATOM      7  N   UNL     1       7.360   5.272  18.554  0.00  0.00    +0.000 NA
ENDBRANCH   1   2
BRANCH   1   8
ATOM      8  N   UNL     1       6.063   3.842  15.929  0.00  0.00    +0.000 N 
ATOM      9  H   UNL     1       6.946   3.493  16.321  0.00  0.00    +0.000 HD
BRANCH   8  14
ATOM     10  C   UNL     1       5.848   3.360  12.307  0.00  0.00    +0.000 A 
ATOM     11  C   UNL     1       6.908   4.138  11.836  0.00  0.00    +0.000 A 
ATOM     12  C   UNL     1       7.661   4.903  12.709  0.00  0.00    +0.000 A 
ATOM     13  C   UNL     1       7.388   4.887  14.091  0.00  0.00    +0.000 A 
ATOM     14  C   UNL     1       6.341   4.090  14.591  0.00  0.00    +0.000 A 
ATOM     15  C   UNL     1       5.590   3.343  13.673  0.00  0.00    +0.000 A 
BRANCH  10  17
ATOM     16  C   UNL     1       3.874   3.062  11.064  0.00  0.00    +0.000 C 
ATOM     17  O   UNL     1       5.184   2.610  11.388  0.00  0.00    +0.000 OA
ENDBRANCH  10  17
ENDBRANCH   8  14
ENDBRANCH   1   8
BRANCH   1  18
ATOM     18  C   UNL     1       4.531   4.466  17.827  0.00  0.00    +0.000 C 
ATOM     19  O   UNL     1       4.294   3.247  17.877  0.00  0.00    +0.000 OA
BRANCH  18  20
ATOM     20  C   UNL     1       3.693   5.362  18.668  0.00  0.00    +0.000 A 
ATOM     21  C   UNL     1       3.583   5.068  20.012  0.00  0.00    +0.000 A 
ATOM     22  N   UNL     1       2.526   5.760  20.513  0.00  0.00    +0.000 N 
ATOM     23  C   UNL     1       2.320   6.857  19.721  0.00  0.00    +0.000 A 
ATOM     24  C   UNL     1       1.600   8.011  20.028  0.00  0.00    +0.000 A 
ATOM     25  C   UNL     1       1.629   9.051  19.092  0.00  0.00    +0.000 A 
ATOM     26  C   UNL     1       2.277   8.877  17.876  0.00  0.00    +0.000 A 
ATOM     27  C   UNL     1       2.938   7.662  17.553  0.00  0.00    +0.000 A 
ATOM     28  C   UNL     1       3.010   6.625  18.511  0.00  0.00    +0.000 A 
ATOM     29  H   UNL     1       2.086   5.597  21.408  0.00  0.00    +0.000 HD
ENDBRANCH  18  20
ENDBRANCH   1  18
TORSDOF 6
ENDMDL
MODEL 3
REMARK VINA RESULT:      -8.4      1.006      1.082
REMARK  Name = 
REMARK  8 active torsions:
REMARK  status: ('A' for Active; 'I' for Inactive)
REMARK    1  A    between atoms: C_1  and  O_2
REMARK    2  A    between atoms: O_2  and  C_3
REMARK    3  A    between atoms: C_7  and  N_8
REMARK    4  A    between atoms: N_8  and  C_9
REMARK    5  A    between atoms: C_9  and  C_10
REMARK    6  A    between atoms: C_9  and  C_21
REMARK    7  A    between atoms: C_10  and  C_12
REMARK    8  A    between atoms: C_23  and  C_24
REMARK                            x       y       z     vdW  Elec       q    Type
REMARK                         _______ _______ _______ _____ _____    ______ ____
ROOT
ATOM      1  C   UNL     1       5.623   6.461  16.484  0.00  0.00    +0.000 C 
ENDROOT
BRANCH   1   2
ATOM      2  C   UNL     1       6.854   6.949  17.219  0.00  0.00    +0.000 A 
ATOM      3  C   UNL     1       7.362   8.275  17.242  0.00  0.00    +0.000 A 
ATOM      4  C   UNL     1       8.228   8.297  18.306  0.00  0.00    +0.000 A 
ATOM      5  C   UNL     1       9.009   9.357  18.970  0.00  0.00    +0.000 C 
ATOM      6  O   UNL     1       8.297   7.052  18.848  0.00  0.00    +0.000 OA
ATOM      7  N   UNL     1       7.435   6.204  18.170  0.00  0.00    +0.000 NA
ENDBRANCH   1   2
BRANCH   1   8
ATOM      8  N   UNL     1       5.786   5.096  15.935  0.00  0.00    +0.000 N 
ATOM      9  H   UNL     1       6.479   4.623  16.529  0.00  0.00    +0.000 HD
BRANCH   8  14
ATOM     10  C   UNL     1       5.876   3.546  12.621  0.00  0.00    +0.000 A 
ATOM     11  C   UNL     1       7.075   4.031  12.094  0.00  0.00    +0.000 A 
ATOM     12  C   UNL     1       7.833   4.948  12.800  0.00  0.00    +0.000 A 
ATOM     13  C   UNL     1       7.421   5.386  14.074  0.00  0.00    +0.000 A 
ATOM     14  C   UNL     1       6.230   4.891  14.635  0.00  0.00    +0.000 A 
ATOM     15  C   UNL     1       5.480   3.976  13.882  0.00  0.00    +0.000 A 
BRANCH  10  17
ATOM     16  C   UNL     1       4.067   3.102  11.184  0.00  0.00    +0.000 C 
ATOM     17  O   UNL     1       5.212   2.620  11.879  0.00  0.00    +0.000 OA
ENDBRANCH  10  17
ENDBRANCH   8  14
ENDBRANCH   1   8
BRANCH   1  18
ATOM     18  C   UNL     1       4.308   6.657  17.244  0.00  0.00    +0.000 C 
ATOM     19  O   UNL     1       3.717   7.737  17.076  0.00  0.00    +0.000 OA
BRANCH  18  20
ATOM     20  C   UNL     1       3.731   5.708  18.234  0.00  0.00    +0.000 A 
ATOM     21  C   UNL     1       3.366   6.206  19.468  0.00  0.00    +0.000 A 
ATOM     22  N   UNL     1       3.209   5.158  20.319  0.00  0.00    +0.000 N 
ATOM     23  C   UNL     1       2.920   4.044  19.578  0.00  0.00    +0.000 A 
ATOM     24  C   UNL     1       2.349   2.849  20.015  0.00  0.00    +0.000 A 
ATOM     25  C   UNL     1       2.043   1.894  19.040  0.00  0.00    +0.000 A 
ATOM     26  C   UNL     1       2.388   2.114  17.713  0.00  0.00    +0.000 A 
ATOM     27  C   UNL     1       3.040   3.307  17.303  0.00  0.00    +0.000 A 
ATOM     28  C   UNL     1       3.281   4.335  18.244  0.00  0.00    +0.000 A 
ATOM     29  H   UNL     1       3.140   5.222  21.325  0.00  0.00    +0.000 HD
ENDBRANCH  18  20
ENDBRANCH   1  18
TORSDOF 6
ENDMDL
MODEL 4
REMARK VINA RESULT:      -8.3      2.918      7.417
REMARK  Name = 
REMARK  8 active torsions:
REMARK  status: ('A' for Active; 'I' for Inactive)
REMARK    1  A    between atoms: C_1  and  O_2
REMARK    2  A    between atoms: O_2  and  C_3
REMARK    3  A    between atoms: C_7  and  N_8
REMARK    4  A    between atoms: N_8  and  C_9
REMARK    5  A    between atoms: C_9  and  C_10
REMARK    6  A    between atoms: C_9  and  C_21
REMARK    7  A    between atoms: C_10  and  C_12
REMARK    8  A    between atoms: C_23  and  C_24
REMARK                            x       y       z     vdW  Elec       q    Type
REMARK                         _______ _______ _______ _____ _____    ______ ____
ROOT
ATOM      1  C   UNL     1       3.437   4.494  17.496  0.00  0.00    +0.000 C 
ENDROOT
BRANCH   1   2
ATOM      2  C   UNL     1       2.570   3.704  18.455  0.00  0.00    +0.000 A 
ATOM      3  C   UNL     1       2.907   3.302  19.774  0.00  0.00    +0.000 A 
ATOM      4  C   UNL     1       1.709   2.964  20.351  0.00  0.00    +0.000 A 
ATOM      5  C   UNL     1       1.303   2.573  21.714  0.00  0.00    +0.000 C 
ATOM      6  O   UNL     1       0.721   3.081  19.425  0.00  0.00    +0.000 OA
ATOM      7  N   UNL     1       1.257   3.548  18.234  0.00  0.00    +0.000 NA
ENDBRANCH   1   2
BRANCH   1   8
ATOM      8  N   UNL     1       3.911   5.773  18.073  0.00  0.00    +0.000 N 
ATOM      9  H   UNL     1       4.501   5.529  18.878  0.00  0.00    +0.000 HD
BRANCH   8  14
ATOM     10  C   UNL     1       2.076   8.938  18.139  0.00  0.00    +0.000 A 
ATOM     11  C   UNL     1       1.524   8.940  19.422  0.00  0.00    +0.000 A 
ATOM     12  C   UNL     1       1.684   7.849  20.257  0.00  0.00    +0.000 A 
ATOM     13  C   UNL     1       2.430   6.731  19.837  0.00  0.00    +0.000 A 
ATOM     14  C   UNL     1       3.017   6.718  18.558  0.00  0.00    +0.000 A 
ATOM     15  C   UNL     1       2.817   7.835  17.734  0.00  0.00    +0.000 A 
BRANCH  10  17
ATOM     16  C   UNL     1       2.148  11.289  18.080  0.00  0.00    +0.000 C 
ATOM     17  O   UNL     1       1.903  10.065  17.397  0.00  0.00    +0.000 OA
ENDBRANCH  10  17
ENDBRANCH   8  14
ENDBRANCH   1   8
BRANCH   1  18
ATOM     18  C   UNL     1       4.549   3.681  16.826  0.00  0.00    +0.000 C 
ATOM     19  O   UNL     1       4.618   2.475  17.118  0.00  0.00    +0.000 OA
BRANCH  18  20
ATOM     20  C   UNL     1       5.604   4.230  15.932  0.00  0.00    +0.000 A 
ATOM     21  C   UNL     1       6.689   4.848  16.520  0.00  0.00    +0.000 A 
ATOM     22  N   UNL     1       7.331   5.575  15.567  0.00  0.00    +0.000 N 
ATOM     23  C   UNL     1       7.048   5.024  14.346  0.00  0.00    +0.000 A 
ATOM     24  C   UNL     1       7.737   5.202  13.147  0.00  0.00    +0.000 A 
ATOM     25  C   UNL     1       7.321   4.437  12.052  0.00  0.00    +0.000 A 
ATOM     26  C   UNL     1       6.209   3.613  12.158  0.00  0.00    +0.000 A 
ATOM     27  C   UNL     1       5.474   3.507  13.370  0.00  0.00    +0.000 A 
ATOM     28  C   UNL     1       5.921   4.193  14.523  0.00  0.00    +0.000 A 
ATOM     29  H   UNL     1       8.033   6.281  15.739  0.00  0.00    +0.000 HD
ENDBRANCH  18  20
ENDBRANCH   1  18
TORSDOF 6
ENDMDL
MODEL 5
REMARK VINA RESULT:      -8.1      1.715      2.021
REMARK  Name = 
REMARK  8 active torsions:
REMARK  status: ('A' for Active; 'I' for Inactive)
REMARK    1  A    between atoms: C_1  and  O_2
REMARK    2  A    between atoms: O_2  and  C_3
REMARK    3  A    between atoms: C_7  and  N_8
REMARK    4  A    between atoms: N_8  and  C_9
REMARK    5  A    between atoms: C_9  and  C_10
REMARK    6  A    between atoms: C_9  and  C_21
REMARK    7  A    between atoms: C_10  and  C_12
REMARK    8  A    between atoms: C_23  and  C_24
REMARK                            x       y       z     vdW  Elec       q    Type
REMARK                         _______ _______ _______ _____ _____    ______ ____
ROOT
ATOM      1  C   UNL     1       5.196   6.345  16.754  0.00  0.00    +0.000 C 
ENDROOT
BRANCH   1   2
ATOM      2  C   UNL     1       6.273   6.442  17.815  0.00  0.00    +0.000 A 
ATOM      3  C   UNL     1       6.480   5.551  18.902  0.00  0.00    +0.000 A 
ATOM      4  C   UNL     1       7.751   5.826  19.338  0.00  0.00    +0.000 A 
ATOM      5  C   UNL     1       8.643   5.217  20.342  0.00  0.00    +0.000 C 
ATOM      6  O   UNL     1       8.255   6.862  18.616  0.00  0.00    +0.000 OA
ATOM      7  N   UNL     1       7.331   7.250  17.658  0.00  0.00    +0.000 NA
ENDBRANCH   1   2
BRANCH   1   8
ATOM      8  N   UNL     1       5.188   5.036  16.063  0.00  0.00    +0.000 N 
ATOM      9  H   UNL     1       5.651   4.370  16.693  0.00  0.00    +0.000 HD
BRANCH   8  14
ATOM     10  C   UNL     1       5.751   3.597  12.745  0.00  0.00    +0.000 A 
ATOM     11  C   UNL     1       7.023   4.075  12.421  0.00  0.00    +0.000 A 
ATOM     12  C   UNL     1       7.679   4.953  13.265  0.00  0.00    +0.000 A 
ATOM     13  C   UNL     1       7.088   5.356  14.478  0.00  0.00    +0.000 A 
ATOM     14  C   UNL     1       5.818   4.866  14.837  0.00  0.00    +0.000 A 
ATOM     15  C   UNL     1       5.177   3.992  13.948  0.00  0.00    +0.000 A 
BRANCH  10  17
ATOM     16  C   UNL     1       4.049   3.182  11.176  0.00  0.00    +0.000 C 
ATOM     17  O   UNL     1       5.192   2.709  11.880  0.00  0.00    +0.000 OA
ENDBRANCH  10  17
ENDBRANCH   8  14
ENDBRANCH   1   8
BRANCH   1  18
ATOM     18  C   UNL     1       3.807   6.798  17.214  0.00  0.00    +0.000 C 
ATOM     19  O   UNL     1       3.341   7.817  16.676  0.00  0.00    +0.000 OA
BRANCH  18  20
ATOM     20  C   UNL     1       3.014   6.179  18.311  0.00  0.00    +0.000 A 
ATOM     21  C   UNL     1       2.598   6.993  19.345  0.00  0.00    +0.000 A 
ATOM     22  N   UNL     1       2.220   6.201  20.382  0.00  0.00    +0.000 N 
ATOM     23  C   UNL     1       1.861   4.980  19.880  0.00  0.00    +0.000 A 
ATOM     24  C   UNL     1       1.097   3.991  20.499  0.00  0.00    +0.000 A 
ATOM     25  C   UNL     1       0.764   2.868  19.733  0.00  0.00    +0.000 A 
ATOM     26  C   UNL     1       1.266   2.727  18.446  0.00  0.00    +0.000 A 
ATOM     27  C   UNL     1       2.108   3.712  17.864  0.00  0.00    +0.000 A 
ATOM     28  C   UNL     1       2.388   4.903  18.572  0.00  0.00    +0.000 A 
ATOM     29  H   UNL     1       2.060   6.510  21.331  0.00  0.00    +0.000 HD
ENDBRANCH  18  20
ENDBRANCH   1  18
TORSDOF 6
ENDMDL
MODEL 6
REMARK VINA RESULT:      -8.0      2.373      2.956
REMARK  Name = 
REMARK  8 active torsions:
REMARK  status: ('A' for Active; 'I' for Inactive)
REMARK    1  A    between atoms: C_1  and  O_2
REMARK    2  A    between atoms: O_2  and  C_3
REMARK    3  A    between atoms: C_7  and  N_8
REMARK    4  A    between atoms: N_8  and  C_9
REMARK    5  A    between atoms: C_9  and  C_10
REMARK    6  A    between atoms: C_9  and  C_21
REMARK    7  A    between atoms: C_10  and  C_12
REMARK    8  A    between atoms: C_23  and  C_24
REMARK                            x       y       z     vdW  Elec       q    Type
REMARK                         _______ _______ _______ _____ _____    ______ ____
ROOT
ATOM      1  C   UNL     1       4.787   5.037  16.517  0.00  0.00    +0.000 C 
ENDROOT
BRANCH   1   2
ATOM      2  C   UNL     1       5.642   6.187  17.006  0.00  0.00    +0.000 A 
ATOM      3  C   UNL     1       6.553   6.169  18.096  0.00  0.00    +0.000 A 
ATOM      4  C   UNL     1       7.338   7.278  17.911  0.00  0.00    +0.000 A 
ATOM      5  C   UNL     1       8.535   7.810  18.589  0.00  0.00    +0.000 C 
ATOM      6  O   UNL     1       6.889   7.964  16.827  0.00  0.00    +0.000 OA
ATOM      7  N   UNL     1       5.827   7.282  16.254  0.00  0.00    +0.000 NA
ENDBRANCH   1   2
BRANCH   1   8
ATOM      8  N   UNL     1       5.576   3.978  15.848  0.00  0.00    +0.000 N 
ATOM      9  H   UNL     1       6.438   3.866  16.396  0.00  0.00    +0.000 HD
BRANCH   8  14
ATOM     10  C   UNL     1       5.654   3.326  12.248  0.00  0.00    +0.000 A 
ATOM     11  C   UNL     1       6.833   3.961  11.851  0.00  0.00    +0.000 A 
ATOM     12  C   UNL     1       7.579   4.689  12.761  0.00  0.00    +0.000 A 
ATOM     13  C   UNL     1       7.176   4.777  14.108  0.00  0.00    +0.000 A 
ATOM     14  C   UNL     1       6.005   4.123  14.534  0.00  0.00    +0.000 A 
ATOM     15  C   UNL     1       5.267   3.410  13.580  0.00  0.00    +0.000 A 
BRANCH  10  17
ATOM     16  C   UNL     1       3.727   3.106  10.916  0.00  0.00    +0.000 C 
ATOM     17  O   UNL     1       5.001   2.600  11.300  0.00  0.00    +0.000 OA
ENDBRANCH  10  17
ENDBRANCH   8  14
ENDBRANCH   1   8
BRANCH   1  18
ATOM     18  C   UNL     1       3.799   4.493  17.555  0.00  0.00    +0.000 C 
ATOM     19  O   UNL     1       3.446   3.308  17.428  0.00  0.00    +0.000 OA
BRANCH  18  20
ATOM     20  C   UNL     1       3.158   5.286  18.638  0.00  0.00    +0.000 A 
ATOM     21  C   UNL     1       3.272   4.820  19.932  0.00  0.00    +0.000 A 
ATOM     22  N   UNL     1       2.348   5.460  20.697  0.00  0.00    +0.000 N 
ATOM     23  C   UNL     1       2.052   6.655  20.099  0.00  0.00    +0.000 A 
ATOM     24  C   UNL     1       1.445   7.771  20.673  0.00  0.00    +0.000 A 
ATOM     25  C   UNL     1       1.353   8.924  19.885  0.00  0.00    +0.000 A 
ATOM     26  C   UNL     1       1.772   8.900  18.562  0.00  0.00    +0.000 A 
ATOM     27  C   UNL     1       2.316   7.727  17.974  0.00  0.00    +0.000 A 
ATOM     28  C   UNL     1       2.511   6.571  18.766  0.00  0.00    +0.000 A 
ATOM     29  H   UNL     1       2.065   5.188  21.628  0.00  0.00    +0.000 HD
ENDBRANCH  18  20
ENDBRANCH   1  18
TORSDOF 6
ENDMDL
MODEL 7
REMARK VINA RESULT:      -8.0      1.785      1.996
REMARK  Name = 
REMARK  8 active torsions:
REMARK  status: ('A' for Active; 'I' for Inactive)
REMARK    1  A    between atoms: C_1  and  O_2
REMARK    2  A    between atoms: O_2  and  C_3
REMARK    3  A    between atoms: C_7  and  N_8
REMARK    4  A    between atoms: N_8  and  C_9
REMARK    5  A    between atoms: C_9  and  C_10
REMARK    6  A    between atoms: C_9  and  C_21
REMARK    7  A    between atoms: C_10  and  C_12
REMARK    8  A    between atoms: C_23  and  C_24
REMARK                            x       y       z     vdW  Elec       q    Type
REMARK                         _______ _______ _______ _____ _____    ______ ____
ROOT
ATOM      1  C   UNL     1       5.649   5.796  16.295  0.00  0.00    +0.000 C 
ENDROOT
BRANCH   1   2
ATOM      2  C   UNL     1       6.791   5.561  17.262  0.00  0.00    +0.000 A 
ATOM      3  C   UNL     1       7.017   6.233  18.492  0.00  0.00    +0.000 A 
ATOM      4  C   UNL     1       7.915   5.440  19.162  0.00  0.00    +0.000 A 
ATOM      5  C   UNL     1       8.496   5.470  20.517  0.00  0.00    +0.000 C 
ATOM      6  O   UNL     1       8.266   4.397  18.364  0.00  0.00    +0.000 OA
ATOM      7  N   UNL     1       7.561   4.467  17.173  0.00  0.00    +0.000 NA
ENDBRANCH   1   2
BRANCH   1   8
ATOM      8  N   UNL     1       5.351   4.611  15.460  0.00  0.00    +0.000 N 
ATOM      9  H   UNL     1       5.685   3.792  15.984  0.00  0.00    +0.000 HD
BRANCH   8  14
ATOM     10  C   UNL     1       5.825   3.117  12.153  0.00  0.00    +0.000 A 
ATOM     11  C   UNL     1       6.996   3.734  11.708  0.00  0.00    +0.000 A 
ATOM     12  C   UNL     1       7.602   4.720  12.466  0.00  0.00    +0.000 A 
ATOM     13  C   UNL     1       7.063   5.097  13.711  0.00  0.00    +0.000 A 
ATOM     14  C   UNL     1       5.898   4.469  14.191  0.00  0.00    +0.000 A 
ATOM     15  C   UNL     1       5.303   3.487  13.386  0.00  0.00    +0.000 A 
BRANCH  10  17
ATOM     16  C   UNL     1       6.183   1.030  11.128  0.00  0.00    +0.000 C 
ATOM     17  O   UNL     1       5.315   2.132  11.365  0.00  0.00    +0.000 OA
ENDBRANCH  10  17
ENDBRANCH   8  14
ENDBRANCH   1   8
BRANCH   1  18
ATOM     18  C   UNL     1       4.401   6.424  16.925  0.00  0.00    +0.000 C 
ATOM     19  O   UNL     1       4.107   7.575  16.561  0.00  0.00    +0.000 OA
BRANCH  18  20
ATOM     20  C   UNL     1       3.572   5.812  17.998  0.00  0.00    +0.000 A 
ATOM     21  C   UNL     1       3.110   6.636  19.004  0.00  0.00    +0.000 A 
ATOM     22  N   UNL     1       2.699   5.854  20.037  0.00  0.00    +0.000 N 
ATOM     23  C   UNL     1       2.369   4.623  19.537  0.00  0.00    +0.000 A 
ATOM     24  C   UNL     1       1.589   3.636  20.139  0.00  0.00    +0.000 A 
ATOM     25  C   UNL     1       1.296   2.501  19.376  0.00  0.00    +0.000 A 
ATOM     26  C   UNL     1       1.848   2.348  18.111  0.00  0.00    +0.000 A 
ATOM     27  C   UNL     1       2.704   3.332  17.549  0.00  0.00    +0.000 A 
ATOM     28  C   UNL     1       2.947   4.535  18.252  0.00  0.00    +0.000 A 
ATOM     29  H   UNL     1       2.500   6.174  20.975  0.00  0.00    +0.000 HD
ENDBRANCH  18  20
ENDBRANCH   1  18
TORSDOF 6
ENDMDL
MODEL 8
REMARK VINA RESULT:      -8.0      4.521      8.465
REMARK  Name = 
REMARK  8 active torsions:
REMARK  status: ('A' for Active; 'I' for Inactive)
REMARK    1  A    between atoms: C_1  and  O_2
REMARK    2  A    between atoms: O_2  and  C_3
REMARK    3  A    between atoms: C_7  and  N_8
REMARK    4  A    between atoms: N_8  and  C_9
REMARK    5  A    between atoms: C_9  and  C_10
REMARK    6  A    between atoms: C_9  and  C_21
REMARK    7  A    between atoms: C_10  and  C_12
REMARK    8  A    between atoms: C_23  and  C_24
REMARK                            x       y       z     vdW  Elec       q    Type
REMARK                         _______ _______ _______ _____ _____    ______ ____
ROOT
ATOM      1  C   UNL     1       2.134   6.691  19.406  0.00  0.00    +0.000 C 
ENDROOT
BRANCH   1   2
ATOM      2  C   UNL     1       2.052   5.225  19.778  0.00  0.00    +0.000 A 
ATOM      3  C   UNL     1       2.183   4.667  21.077  0.00  0.00    +0.000 A 
ATOM      4  C   UNL     1       1.671   3.400  20.964  0.00  0.00    +0.000 A 
ATOM      5  C   UNL     1       1.393   2.317  21.927  0.00  0.00    +0.000 C 
ATOM      6  O   UNL     1       1.319   3.176  19.670  0.00  0.00    +0.000 OA
ATOM      7  N   UNL     1       1.554   4.320  18.923  0.00  0.00    +0.000 NA
ENDBRANCH   1   2
BRANCH   1   8
ATOM      8  N   UNL     1       2.131   7.583  20.588  0.00  0.00    +0.000 N 
ATOM      9  H   UNL     1       1.831   7.010  21.386  0.00  0.00    +0.000 HD
BRANCH   8  14
ATOM     10  C   UNL     1      -0.113  10.048  22.100  0.00  0.00    +0.000 A 
ATOM     11  C   UNL     1      -0.596  10.739  20.987  0.00  0.00    +0.000 A 
ATOM     12  C   UNL     1      -0.119  10.452  19.721  0.00  0.00    +0.000 A 
ATOM     13  C   UNL     1       0.840   9.439  19.531  0.00  0.00    +0.000 A 
ATOM     14  C   UNL     1       1.322   8.712  20.635  0.00  0.00    +0.000 A 
ATOM     15  C   UNL     1       0.828   9.043  21.905  0.00  0.00    +0.000 A 
BRANCH  10  17
ATOM     16  C   UNL     1      -1.598  11.438  23.282  0.00  0.00    +0.000 C 
ATOM     17  O   UNL     1      -0.661  10.366  23.304  0.00  0.00    +0.000 OA
ENDBRANCH  10  17
ENDBRANCH   8  14
ENDBRANCH   1   8
BRANCH   1  18
ATOM     18  C   UNL     1       3.231   7.030  18.392  0.00  0.00    +0.000 C 
ATOM     19  O   UNL     1       3.033   8.013  17.658  0.00  0.00    +0.000 OA
BRANCH  18  20
ATOM     20  C   UNL     1       4.463   6.231  18.151  0.00  0.00    +0.000 A 
ATOM     21  C   UNL     1       5.032   5.582  19.227  0.00  0.00    +0.000 A 
ATOM     22  N   UNL     1       6.297   5.224  18.886  0.00  0.00    +0.000 N 
ATOM     23  C   UNL     1       6.360   5.120  17.523  0.00  0.00    +0.000 A 
ATOM     24  C   UNL     1       7.321   4.459  16.758  0.00  0.00    +0.000 A 
ATOM     25  C   UNL     1       7.105   4.394  15.378  0.00  0.00    +0.000 A 
ATOM     26  C   UNL     1       6.021   5.048  14.809  0.00  0.00    +0.000 A 
ATOM     27  C   UNL     1       5.096   5.782  15.601  0.00  0.00    +0.000 A 
ATOM     28  C   UNL     1       5.230   5.791  17.008  0.00  0.00    +0.000 A 
ATOM     29  H   UNL     1       7.015   4.915  19.528  0.00  0.00    +0.000 HD
ENDBRANCH  18  20
ENDBRANCH   1  18
TORSDOF 6
ENDMDL
MODEL 9
REMARK VINA RESULT:      -8.0      1.499      1.677
REMARK  Name = 
REMARK  8 active torsions:
REMARK  status: ('A' for Active; 'I' for Inactive)
REMARK    1  A    between atoms: C_1  and  O_2
REMARK    2  A    between atoms: O_2  and  C_3
REMARK    3  A    between atoms: C_7  and  N_8
REMARK    4  A    between atoms: N_8  and  C_9
REMARK    5  A    between atoms: C_9  and  C_10
REMARK    6  A    between atoms: C_9  and  C_21
REMARK    7  A    between atoms: C_10  and  C_12
REMARK    8  A    between atoms: C_23  and  C_24
REMARK                            x       y       z     vdW  Elec       q    Type
REMARK                         _______ _______ _______ _____ _____    ______ ____
ROOT
ATOM      1  C   UNL     1       6.320   5.455  17.010  0.00  0.00    +0.000 C 
ENDROOT
BRANCH   1   2
ATOM      2  C   UNL     1       6.768   6.845  17.414  0.00  0.00    +0.000 A 
ATOM      3  C   UNL     1       7.800   7.173  18.332  0.00  0.00    +0.000 A 
ATOM      4  C   UNL     1       8.078   8.494  18.084  0.00  0.00    +0.000 A 
ATOM      5  C   UNL     1       9.098   9.436  18.581  0.00  0.00    +0.000 C 
ATOM      6  O   UNL     1       7.225   8.956  17.133  0.00  0.00    +0.000 OA
ATOM      7  N   UNL     1       6.402   7.924  16.708  0.00  0.00    +0.000 NA
ENDBRANCH   1   2
BRANCH   1   8
ATOM      8  N   UNL     1       7.299   4.768  16.138  0.00  0.00    +0.000 N 
ATOM      9  H   UNL     1       8.211   5.205  16.321  0.00  0.00    +0.000 HD
BRANCH   8  14
ATOM     10  C   UNL     1       6.145   3.625  12.858  0.00  0.00    +0.000 A 
ATOM     11  C   UNL     1       6.942   4.366  11.983  0.00  0.00    +0.000 A 
ATOM     12  C   UNL     1       7.819   5.320  12.468  0.00  0.00    +0.000 A 
ATOM     13  C   UNL     1       7.942   5.539  13.854  0.00  0.00    +0.000 A 
ATOM     14  C   UNL     1       7.167   4.786  14.755  0.00  0.00    +0.000 A 
ATOM     15  C   UNL     1       6.277   3.841  14.225  0.00  0.00    +0.000 A 
BRANCH  10  17
ATOM     16  C   UNL     1       4.348   3.179  11.407  0.00  0.00    +0.000 C 
ATOM     17  O   UNL     1       5.337   2.683  12.302  0.00  0.00    +0.000 OA
ENDBRANCH  10  17
ENDBRANCH   8  14
ENDBRANCH   1   8
BRANCH   1  18
ATOM     18  C   UNL     1       5.822   4.585  18.168  0.00  0.00    +0.000 C 
ATOM     19  O   UNL     1       6.594   3.701  18.579  0.00  0.00    +0.000 OA
BRANCH  18  20
ATOM     20  C   UNL     1       4.466   4.647  18.777  0.00  0.00    +0.000 A 
ATOM     21  C   UNL     1       4.036   5.861  19.272  0.00  0.00    +0.000 A 
ATOM     22  N   UNL     1       2.967   5.635  20.080  0.00  0.00    +0.000 N 
ATOM     23  C   UNL     1       2.380   4.461  19.694  0.00  0.00    +0.000 A 
ATOM     24  C   UNL     1       1.092   4.011  19.987  0.00  0.00    +0.000 A 
ATOM     25  C   UNL     1       0.677   2.822  19.379  0.00  0.00    +0.000 A 
ATOM     26  C   UNL     1       1.562   2.092  18.596  0.00  0.00    +0.000 A 
ATOM     27  C   UNL     1       2.895   2.530  18.375  0.00  0.00    +0.000 A 
ATOM     28  C   UNL     1       3.321   3.774  18.897  0.00  0.00    +0.000 A 
ATOM     29  H   UNL     1       2.570   6.299  20.730  0.00  0.00    +0.000 HD
ENDBRANCH  18  20
ENDBRANCH   1  18
TORSDOF 6
ENDMDL
