MODEL 1
REMARK VINA RESULT:      -9.3      0.000      0.000
REMARK  Name = 
REMARK  6 active torsions:
REMARK  status: ('A' for Active; 'I' for Inactive)
REMARK    1  A    between atoms: C_1  and  O_2
REMARK    2  A    between atoms: O_2  and  C_3
REMARK    3  A    between atoms: C_11  and  N_12
REMARK    4  A    between atoms: N_15  and  C_16
REMARK    5  A    between atoms: C_26  and  C_27
REMARK    6  A    between atoms: C_27  and  C_28
REMARK                            x       y       z     vdW  Elec       q    Type
REMARK                         _______ _______ _______ _____ _____    ______ ____
ROOT
ATOM      1  C   UNL     1      -1.830  13.430  22.539  0.00  0.00    +0.000 A 
ATOM      2  C   UNL     1      -2.211  13.703  21.228  0.00  0.00    +0.000 A 
ATOM      3  C   UNL     1      -1.810  12.868  20.178  0.00  0.00    +0.000 A 
ATOM      4  C   UNL     1      -1.027  11.722  20.427  0.00  0.00    +0.000 A 
ATOM      5  C   UNL     1      -0.690  11.421  21.765  0.00  0.00    +0.000 A 
ATOM      6  C   UNL     1      -1.095  12.284  22.805  0.00  0.00    +0.000 A 
ATOM      7  C   UNL     1       0.170  10.249  22.146  0.00  0.00    +0.000 C 
ATOM      8  C   UNL     1       0.347   9.237  21.022  0.00  0.00    +0.000 C 
ATOM      9  C   UNL     1       0.674   9.990  19.730  0.00  0.00    +0.000 C 
ATOM     10  C   UNL     1      -0.571  10.811  19.274  0.00  0.00    +0.000 C 
ENDROOT
BRANCH   9  11
ATOM     11  N   UNL     1       1.252   9.097  18.722  0.00  0.00    +0.000 N 
ATOM     12  C   UNL     1       1.969   7.975  19.095  0.00  0.00    +0.000 C 
ATOM     13  O   UNL     1       2.152   7.694  20.269  0.00  0.00    +0.000 OA
ATOM     14  N   UNL     1       2.396   7.248  17.995  0.00  0.00    +0.000 N 
ATOM     15  H   UNL     1       1.374   9.448  17.787  0.00  0.00    +0.000 HD
ATOM     16  H   UNL     1       2.421   7.753  17.132  0.00  0.00    +0.000 HD
BRANCH  14  17
ATOM     17  C   UNL     1       3.083   5.998  18.042  0.00  0.00    +0.000 A 
ATOM     18  C   UNL     1       2.393   4.818  18.348  0.00  0.00    +0.000 A 
ATOM     19  C   UNL     1       3.064   3.612  18.538  0.00  0.00    +0.000 A 
ATOM     20  C   UNL     1       4.446   3.565  18.420  0.00  0.00    +0.000 A 
ATOM     21  C   UNL     1       5.160   4.713  18.046  0.00  0.00    +0.000 A 
ATOM     22  C   UNL     1       6.551   4.674  17.910  0.00  0.00    +0.000 A 
ATOM     23  N   UNL     1       7.317   5.718  17.529  0.00  0.00    +0.000 NA
ATOM     24  C   UNL     1       6.667   6.863  17.259  0.00  0.00    +0.000 A 
ATOM     25  C   UNL     1       5.293   7.024  17.382  0.00  0.00    +0.000 A 
ATOM     26  C   UNL     1       4.490   5.941  17.809  0.00  0.00    +0.000 A 
ENDBRANCH  14  17
ENDBRANCH   9  11
BRANCH   1  28
ATOM     27  C   UNL     1      -3.222  13.786  24.407  0.00  0.00    +0.000 C 
ATOM     28  O   UNL     1      -2.252  14.314  23.503  0.00  0.00    +0.000 OA
ENDBRANCH   1  28
BRANCH  10  29
ATOM     29  C   UNL     1      -1.784   9.958  18.806  0.00  0.00    +0.000 C 
BRANCH  29  30
ATOM     30  C   UNL     1      -2.580  10.472  17.625  0.00  0.00    +0.000 A 
ATOM     31  C   UNL     1      -3.674  11.323  17.826  0.00  0.00    +0.000 A 
ATOM     32  C   UNL     1      -4.548  11.620  16.779  0.00  0.00    +0.000 A 
ATOM     33  C   UNL     1      -4.311  11.107  15.504  0.00  0.00    +0.000 A 
ATOM     34  C   UNL     1      -3.164  10.356  15.270  0.00  0.00    +0.000 A 
ATOM     35 CL   UNL     1      -2.808   9.827  13.672  0.00  0.00    +0.000 Cl
ATOM     36  C   UNL     1      -2.302  10.029  16.320  0.00  0.00    +0.000 A 
ENDBRANCH  29  30
ENDBRANCH  10  29
TORSDOF 5
ENDMDL
MODEL 2
REMARK VINA RESULT:      -9.2      4.177      9.250
REMARK  Name = 
REMARK  6 active torsions:
REMARK  status: ('A' for Active; 'I' for Inactive)
REMARK    1  A    between atoms: C_1  and  O_2
REMARK    2  A    between atoms: O_2  and  C_3
REMARK    3  A    between atoms: C_11  and  N_12
REMARK    4  A    between atoms: N_15  and  C_16
REMARK    5  A    between atoms: C_26  and  C_27
REMARK    6  A    between atoms: C_27  and  C_28
REMARK                            x       y       z     vdW  Elec       q    Type
REMARK                         _______ _______ _______ _____ _____    ______ ____
ROOT
ATOM      1  C   UNL     1       1.911   3.614  19.785  0.00  0.00    +0.000 A 
ATOM      2  C   UNL     1       2.487   3.660  18.518  0.00  0.00    +0.000 A 
ATOM      3  C   UNL     1       2.732   4.887  17.889  0.00  0.00    +0.000 A 
ATOM      4  C   UNL     1       2.418   6.103  18.531  0.00  0.00    +0.000 A 
ATOM      5  C   UNL     1       1.886   6.050  19.838  0.00  0.00    +0.000 A 
ATOM      6  C   UNL     1       1.636   4.802  20.446  0.00  0.00    +0.000 A 
ATOM      7  C   UNL     1       1.480   7.277  20.605  0.00  0.00    +0.000 C 
ATOM      8  C   UNL     1       2.011   8.570  20.001  0.00  0.00    +0.000 C 
ATOM      9  C   UNL     1       1.770   8.543  18.489  0.00  0.00    +0.000 C 
ATOM     10  C   UNL     1       2.672   7.452  17.835  0.00  0.00    +0.000 C 
ENDROOT
BRANCH   9  11
ATOM     11  N   UNL     1       1.870   9.885  17.908  0.00  0.00    +0.000 N 
ATOM     12  C   UNL     1       1.403  10.991  18.591  0.00  0.00    +0.000 C 
ATOM     13  O   UNL     1       0.887  10.892  19.693  0.00  0.00    +0.000 OA
ATOM     14  N   UNL     1       1.626  12.164  17.886  0.00  0.00    +0.000 N 
ATOM     15  H   UNL     1       2.008   9.965  16.915  0.00  0.00    +0.000 HD
ATOM     16  H   UNL     1       1.782  12.049  16.905  0.00  0.00    +0.000 HD
BRANCH  14  17
ATOM     17  C   UNL     1       1.340  13.482  18.354  0.00  0.00    +0.000 A 
ATOM     18  C   UNL     1       0.031  13.850  18.687  0.00  0.00    +0.000 A 
ATOM     19  C   UNL     1      -0.295  15.166  19.011  0.00  0.00    +0.000 A 
ATOM     20  C   UNL     1       0.693  16.140  19.011  0.00  0.00    +0.000 A 
ATOM     21  C   UNL     1       2.026  15.791  18.751  0.00  0.00    +0.000 A 
ATOM     22  C   UNL     1       3.032  16.762  18.763  0.00  0.00    +0.000 A 
ATOM     23  N   UNL     1       4.343  16.517  18.552  0.00  0.00    +0.000 NA
ATOM     24  C   UNL     1       4.677  15.235  18.325  0.00  0.00    +0.000 A 
ATOM     25  C   UNL     1       3.760  14.192  18.268  0.00  0.00    +0.000 A 
ATOM     26  C   UNL     1       2.383  14.450  18.459  0.00  0.00    +0.000 A 
ENDBRANCH  14  17
ENDBRANCH   9  11
BRANCH   1  28
ATOM     27  C   UNL     1       1.716   2.318  21.744  0.00  0.00    +0.000 C 
ATOM     28  O   UNL     1       1.688   2.367  20.318  0.00  0.00    +0.000 OA
ENDBRANCH   1  28
BRANCH  10  29
ATOM     29  C   UNL     1       4.197   7.751  17.874  0.00  0.00    +0.000 C 
BRANCH  29  30
ATOM     30  C   UNL     1       5.108   6.816  17.108  0.00  0.00    +0.000 A 
ATOM     31  C   UNL     1       4.873   6.555  15.751  0.00  0.00    +0.000 A 
ATOM     32  C   UNL     1       5.558   5.530  15.095  0.00  0.00    +0.000 A 
ATOM     33  C   UNL     1       6.521   4.787  15.773  0.00  0.00    +0.000 A 
ATOM     34  C   UNL     1       6.843   5.117  17.086  0.00  0.00    +0.000 A 
ATOM     35 CL   UNL     1       8.118   4.280  17.883  0.00  0.00    +0.000 Cl
ATOM     36  C   UNL     1       6.139   6.119  17.759  0.00  0.00    +0.000 A 
ENDBRANCH  29  30
ENDBRANCH  10  29
TORSDOF 5
ENDMDL
MODEL 3
REMARK VINA RESULT:      -9.2      2.309      3.211
REMARK  Name = 
REMARK  6 active torsions:
REMARK  status: ('A' for Active; 'I' for Inactive)
REMARK    1  A    between atoms: C_1  and  O_2
REMARK    2  A    between atoms: O_2  and  C_3
REMARK    3  A    between atoms: C_11  and  N_12
REMARK    4  A    between atoms: N_15  and  C_16
REMARK    5  A    between atoms: C_26  and  C_27
REMARK    6  A    between atoms: C_27  and  C_28
REMARK                            x       y       z     vdW  Elec       q    Type
REMARK                         _______ _______ _______ _____ _____    ______ ____
ROOT
ATOM      1  C   UNL     1       0.035  14.933  19.419  0.00  0.00    +0.000 A 
ATOM      2  C   UNL     1      -0.468  14.363  18.252  0.00  0.00    +0.000 A 
ATOM      3  C   UNL     1      -0.451  12.974  18.071  0.00  0.00    +0.000 A 
ATOM      4  C   UNL     1       0.058  12.122  19.073  0.00  0.00    +0.000 A 
ATOM      5  C   UNL     1       0.514  12.704  20.276  0.00  0.00    +0.000 A 
ATOM      6  C   UNL     1       0.499  14.106  20.430  0.00  0.00    +0.000 A 
ATOM      7  C   UNL     1       1.110  11.899  21.397  0.00  0.00    +0.000 C 
ATOM      8  C   UNL     1       0.858  10.404  21.269  0.00  0.00    +0.000 C 
ATOM      9  C   UNL     1       1.154   9.976  19.829  0.00  0.00    +0.000 C 
ATOM     10  C   UNL     1       0.092  10.597  18.870  0.00  0.00    +0.000 C 
ENDROOT
BRANCH   9  11
ATOM     11  N   UNL     1       1.332   8.525  19.727  0.00  0.00    +0.000 N 
ATOM     12  C   UNL     1       2.231   7.982  18.828  0.00  0.00    +0.000 C 
ATOM     13  O   UNL     1       2.898   8.685  18.086  0.00  0.00    +0.000 OA
ATOM     14  N   UNL     1       2.275   6.599  18.917  0.00  0.00    +0.000 N 
ATOM     15  H   UNL     1       0.610   7.929  20.094  0.00  0.00    +0.000 HD
ATOM     16  H   UNL     1       1.480   6.173  19.348  0.00  0.00    +0.000 HD
BRANCH  14  17
ATOM     17  C   UNL     1       3.160   5.748  18.188  0.00  0.00    +0.000 A 
ATOM     18  C   UNL     1       4.072   6.288  17.273  0.00  0.00    +0.000 A 
ATOM     19  C   UNL     1       4.845   5.471  16.450  0.00  0.00    +0.000 A 
ATOM     20  C   UNL     1       4.721   4.092  16.534  0.00  0.00    +0.000 A 
ATOM     21  C   UNL     1       3.869   3.519  17.489  0.00  0.00    +0.000 A 
ATOM     22  C   UNL     1       3.747   2.130  17.594  0.00  0.00    +0.000 A 
ATOM     23  N   UNL     1       2.975   1.489  18.497  0.00  0.00    +0.000 NA
ATOM     24  C   UNL     1       2.292   2.270  19.353  0.00  0.00    +0.000 A 
ATOM     25  C   UNL     1       2.320   3.659  19.327  0.00  0.00    +0.000 A 
ATOM     26  C   UNL     1       3.103   4.333  18.363  0.00  0.00    +0.000 A 
ENDBRANCH  14  17
ENDBRANCH   9  11
BRANCH   1  28
ATOM     27  C   UNL     1      -0.525  16.955  18.345  0.00  0.00    +0.000 C 
ATOM     28  O   UNL     1      -0.004  16.304  19.503  0.00  0.00    +0.000 OA
ENDBRANCH   1  28
BRANCH  10  29
ATOM     29  C   UNL     1      -1.350  10.041  19.040  0.00  0.00    +0.000 C 
BRANCH  29  30
ATOM     30  C   UNL     1      -2.318  10.261  17.897  0.00  0.00    +0.000 A 
ATOM     31  C   UNL     1      -2.012   9.794  16.612  0.00  0.00    +0.000 A 
ATOM     32  C   UNL     1      -2.778  10.183  15.511  0.00  0.00    +0.000 A 
ATOM     33  C   UNL     1      -3.890  11.004  15.689  0.00  0.00    +0.000 A 
ATOM     34  C   UNL     1      -4.269  11.376  16.975  0.00  0.00    +0.000 A 
ATOM     35 CL   UNL     1      -5.711  12.286  17.205  0.00  0.00    +0.000 Cl
ATOM     36  C   UNL     1      -3.488  11.017  18.077  0.00  0.00    +0.000 A 
ENDBRANCH  29  30
ENDBRANCH  10  29
TORSDOF 5
ENDMDL
MODEL 4
REMARK VINA RESULT:      -9.2      1.633      1.972
REMARK  Name = 
REMARK  6 active torsions:
REMARK  status: ('A' for Active; 'I' for Inactive)
REMARK    1  A    between atoms: C_1  and  O_2
REMARK    2  A    between atoms: O_2  and  C_3
REMARK    3  A    between atoms: C_11  and  N_12
REMARK    4  A    between atoms: N_15  and  C_16
REMARK    5  A    between atoms: C_26  and  C_27
REMARK    6  A    between atoms: C_27  and  C_28
REMARK                            x       y       z     vdW  Elec       q    Type
REMARK                         _______ _______ _______ _____ _____    ______ ____
ROOT
ATOM      1  C   UNL     1      -0.730  13.735  23.125  0.00  0.00    +0.000 A 
ATOM      2  C   UNL     1      -0.035  14.445  22.150  0.00  0.00    +0.000 A 
ATOM      3  C   UNL     1       0.466  13.797  21.014  0.00  0.00    +0.000 A 
ATOM      4  C   UNL     1       0.260  12.415  20.823  0.00  0.00    +0.000 A 
ATOM      5  C   UNL     1      -0.493  11.712  21.788  0.00  0.00    +0.000 A 
ATOM      6  C   UNL     1      -0.976  12.384  22.931  0.00  0.00    +0.000 A 
ATOM      7  C   UNL     1      -0.744  10.232  21.709  0.00  0.00    +0.000 C 
ATOM      8  C   UNL     1      -0.423   9.637  20.346  0.00  0.00    +0.000 C 
ATOM      9  C   UNL     1       0.935  10.170  19.882  0.00  0.00    +0.000 C 
ATOM     10  C   UNL     1       0.823  11.696  19.583  0.00  0.00    +0.000 C 
ENDROOT
BRANCH   9  11
ATOM     11  N   UNL     1       1.493   9.350  18.804  0.00  0.00    +0.000 N 
ATOM     12  C   UNL     1       2.041   8.108  19.068  0.00  0.00    +0.000 C 
ATOM     13  O   UNL     1       2.087   7.657  20.201  0.00  0.00    +0.000 OA
ATOM     14  N   UNL     1       2.477   7.482  17.911  0.00  0.00    +0.000 N 
ATOM     15  H   UNL     1       1.736   9.800  17.939  0.00  0.00    +0.000 HD
ATOM     16  H   UNL     1       2.635   8.087  17.131  0.00  0.00    +0.000 HD
BRANCH  14  17
ATOM     17  C   UNL     1       3.009   6.159  17.833  0.00  0.00    +0.000 A 
ATOM     18  C   UNL     1       2.179   5.046  18.011  0.00  0.00    +0.000 A 
ATOM     19  C   UNL     1       2.697   3.755  18.080  0.00  0.00    +0.000 A 
ATOM     20  C   UNL     1       4.066   3.555  17.966  0.00  0.00    +0.000 A 
ATOM     21  C   UNL     1       4.918   4.641  17.717  0.00  0.00    +0.000 A 
ATOM     22  C   UNL     1       6.297   4.449  17.586  0.00  0.00    +0.000 A 
ATOM     23  N   UNL     1       7.189   5.426  17.319  0.00  0.00    +0.000 NA
ATOM     24  C   UNL     1       6.685   6.663  17.165  0.00  0.00    +0.000 A 
ATOM     25  C   UNL     1       5.337   6.974  17.296  0.00  0.00    +0.000 A 
ATOM     26  C   UNL     1       4.404   5.957  17.604  0.00  0.00    +0.000 A 
ENDBRANCH  14  17
ENDBRANCH   9  11
BRANCH   1  28
ATOM     27  C   UNL     1      -0.877  15.844  24.166  0.00  0.00    +0.000 C 
ATOM     28  O   UNL     1      -1.168  14.448  24.215  0.00  0.00    +0.000 OA
ENDBRANCH   1  28
BRANCH  10  29
ATOM     29  C   UNL     1      -0.059  12.062  18.356  0.00  0.00    +0.000 C 
BRANCH  29  30
ATOM     30  C   UNL     1      -1.445  11.456  18.291  0.00  0.00    +0.000 A 
ATOM     31  C   UNL     1      -1.671  10.287  17.552  0.00  0.00    +0.000 A 
ATOM     32  C   UNL     1      -2.971   9.847  17.296  0.00  0.00    +0.000 A 
ATOM     33  C   UNL     1      -4.060  10.542  17.818  0.00  0.00    +0.000 A 
ATOM     34  C   UNL     1      -3.840  11.637  18.650  0.00  0.00    +0.000 A 
ATOM     35 CL   UNL     1      -5.179  12.420  19.393  0.00  0.00    +0.000 Cl
ATOM     36  C   UNL     1      -2.543  12.101  18.883  0.00  0.00    +0.000 A 
ENDBRANCH  29  30
ENDBRANCH  10  29
TORSDOF 5
ENDMDL
MODEL 5
REMARK VINA RESULT:      -9.2      3.965      9.198
REMARK  Name = 
REMARK  6 active torsions:
REMARK  status: ('A' for Active; 'I' for Inactive)
REMARK    1  A    between atoms: C_1  and  O_2
REMARK    2  A    between atoms: O_2  and  C_3
REMARK    3  A    between atoms: C_11  and  N_12
REMARK    4  A    between atoms: N_15  and  C_16
REMARK    5  A    between atoms: C_26  and  C_27
REMARK    6  A    between atoms: C_27  and  C_28
REMARK                            x       y       z     vdW  Elec       q    Type
REMARK                         _______ _______ _______ _____ _____    ______ ____
ROOT
ATOM      1  C   UNL     1       1.874   3.560  19.807  0.00  0.00    +0.000 A 
ATOM      2  C   UNL     1       2.317   3.585  18.487  0.00  0.00    +0.000 A 
ATOM      3  C   UNL     1       2.545   4.801  17.831  0.00  0.00    +0.000 A 
ATOM      4  C   UNL     1       2.349   6.028  18.500  0.00  0.00    +0.000 A 
ATOM      5  C   UNL     1       1.953   5.995  19.854  0.00  0.00    +0.000 A 
ATOM      6  C   UNL     1       1.717   4.757  20.489  0.00  0.00    +0.000 A 
ATOM      7  C   UNL     1       1.679   7.237  20.655  0.00  0.00    +0.000 C 
ATOM      8  C   UNL     1       2.196   8.508  19.997  0.00  0.00    +0.000 C 
ATOM      9  C   UNL     1       1.799   8.492  18.518  0.00  0.00    +0.000 C 
ATOM     10  C   UNL     1       2.583   7.367  17.777  0.00  0.00    +0.000 C 
ENDROOT
BRANCH   9  11
ATOM     11  N   UNL     1       1.893   9.829  17.925  0.00  0.00    +0.000 N 
ATOM     12  C   UNL     1       1.415  10.939  18.597  0.00  0.00    +0.000 C 
ATOM     13  O   UNL     1       0.895  10.846  19.698  0.00  0.00    +0.000 OA
ATOM     14  N   UNL     1       1.633  12.107  17.883  0.00  0.00    +0.000 N 
ATOM     15  H   UNL     1       2.034   9.902  16.932  0.00  0.00    +0.000 HD
ATOM     16  H   UNL     1       1.794  11.985  16.903  0.00  0.00    +0.000 HD
BRANCH  14  17
ATOM     17  C   UNL     1       1.336  13.427  18.339  0.00  0.00    +0.000 A 
ATOM     18  C   UNL     1       0.023  13.789  18.662  0.00  0.00    +0.000 A 
ATOM     19  C   UNL     1      -0.313  15.105  18.972  0.00  0.00    +0.000 A 
ATOM     20  C   UNL     1       0.669  16.086  18.970  0.00  0.00    +0.000 A 
ATOM     21  C   UNL     1       2.006  15.744  18.719  0.00  0.00    +0.000 A 
ATOM     22  C   UNL     1       3.005  16.721  18.728  0.00  0.00    +0.000 A 
ATOM     23  N   UNL     1       4.319  16.483  18.526  0.00  0.00    +0.000 NA
ATOM     24  C   UNL     1       4.662  15.201  18.312  0.00  0.00    +0.000 A 
ATOM     25  C   UNL     1       3.752  14.152  18.258  0.00  0.00    +0.000 A 
ATOM     26  C   UNL     1       2.373  14.403  18.440  0.00  0.00    +0.000 A 
ENDBRANCH  14  17
ENDBRANCH   9  11
BRANCH   1  28
ATOM     27  C   UNL     1       1.482   2.332  21.780  0.00  0.00    +0.000 C 
ATOM     28  O   UNL     1       1.658   2.323  20.364  0.00  0.00    +0.000 OA
ENDBRANCH   1  28
BRANCH  10  29
ATOM     29  C   UNL     1       4.115   7.604  17.657  0.00  0.00    +0.000 C 
BRANCH  29  30
ATOM     30  C   UNL     1       4.979   6.406  17.323  0.00  0.00    +0.000 A 
ATOM     31  C   UNL     1       5.766   5.804  18.314  0.00  0.00    +0.000 A 
ATOM     32  C   UNL     1       6.731   4.854  17.977  0.00  0.00    +0.000 A 
ATOM     33  C   UNL     1       6.889   4.457  16.651  0.00  0.00    +0.000 A 
ATOM     34  C   UNL     1       6.033   4.964  15.678  0.00  0.00    +0.000 A 
ATOM     35 CL   UNL     1       6.146   4.382  14.062  0.00  0.00    +0.000 Cl
ATOM     36  C   UNL     1       5.087   5.939  16.003  0.00  0.00    +0.000 A 
ENDBRANCH  29  30
ENDBRANCH  10  29
TORSDOF 5
ENDMDL
MODEL 6
REMARK VINA RESULT:      -8.9      1.972      3.098
REMARK  Name = 
REMARK  6 active torsions:
REMARK  status: ('A' for Active; 'I' for Inactive)
REMARK    1  A    between atoms: C_1  and  O_2
REMARK    2  A    between atoms: O_2  and  C_3
REMARK    3  A    between atoms: C_11  and  N_12
REMARK    4  A    between atoms: N_15  and  C_16
REMARK    5  A    between atoms: C_26  and  C_27
REMARK    6  A    between atoms: C_27  and  C_28
REMARK                            x       y       z     vdW  Elec       q    Type
REMARK                         _______ _______ _______ _____ _____    ______ ____
ROOT
ATOM      1  C   UNL     1      -0.673  14.884  19.660  0.00  0.00    +0.000 A 
ATOM      2  C   UNL     1      -0.666  14.220  18.436  0.00  0.00    +0.000 A 
ATOM      3  C   UNL     1      -0.431  12.840  18.373  0.00  0.00    +0.000 A 
ATOM      4  C   UNL     1      -0.215  12.091  19.549  0.00  0.00    +0.000 A 
ATOM      5  C   UNL     1      -0.279  12.762  20.789  0.00  0.00    +0.000 A 
ATOM      6  C   UNL     1      -0.504  14.154  20.827  0.00  0.00    +0.000 A 
ATOM      7  C   UNL     1      -0.028  12.075  22.103  0.00  0.00    +0.000 C 
ATOM      8  C   UNL     1      -0.050  10.556  22.004  0.00  0.00    +0.000 C 
ATOM      9  C   UNL     1       0.779  10.130  20.790  0.00  0.00    +0.000 C 
ATOM     10  C   UNL     1       0.060  10.578  19.482  0.00  0.00    +0.000 C 
ENDROOT
BRANCH   9  11
ATOM     11  N   UNL     1       1.144   8.712  20.862  0.00  0.00    +0.000 N 
ATOM     12  C   UNL     1       1.772   8.086  19.802  0.00  0.00    +0.000 C 
ATOM     13  O   UNL     1       2.038   8.684  18.772  0.00  0.00    +0.000 OA
ATOM     14  N   UNL     1       2.063   6.761  20.086  0.00  0.00    +0.000 N 
ATOM     15  H   UNL     1       0.687   8.136  21.549  0.00  0.00    +0.000 HD
ATOM     16  H   UNL     1       1.532   6.357  20.831  0.00  0.00    +0.000 HD
BRANCH  14  17
ATOM     17  C   UNL     1       2.784   5.868  19.237  0.00  0.00    +0.000 A 
ATOM     18  C   UNL     1       3.939   6.297  18.572  0.00  0.00    +0.000 A 
ATOM     19  C   UNL     1       4.578   5.492  17.631  0.00  0.00    +0.000 A 
ATOM     20  C   UNL     1       4.070   4.233  17.342  0.00  0.00    +0.000 A 
ATOM     21  C   UNL     1       2.956   3.746  18.041  0.00  0.00    +0.000 A 
ATOM     22  C   UNL     1       2.444   2.474  17.769  0.00  0.00    +0.000 A 
ATOM     23  N   UNL     1       1.396   1.912  18.408  0.00  0.00    +0.000 NA
ATOM     24  C   UNL     1       0.829   2.649  19.378  0.00  0.00    +0.000 A 
ATOM     25  C   UNL     1       1.238   3.932  19.718  0.00  0.00    +0.000 A 
ATOM     26  C   UNL     1       2.316   4.535  19.030  0.00  0.00    +0.000 A 
ENDBRANCH  14  17
ENDBRANCH   9  11
BRANCH   1  28
ATOM     27  C   UNL     1      -0.411  16.889  18.449  0.00  0.00    +0.000 C 
ATOM     28  O   UNL     1      -0.893  16.240  19.625  0.00  0.00    +0.000 OA
ENDBRANCH   1  28
BRANCH  10  29
ATOM     29  C   UNL     1      -1.278   9.844  19.184  0.00  0.00    +0.000 C 
BRANCH  29  30
ATOM     30  C   UNL     1      -2.169  10.432  18.109  0.00  0.00    +0.000 A 
ATOM     31  C   UNL     1      -3.206  11.308  18.452  0.00  0.00    +0.000 A 
ATOM     32  C   UNL     1      -4.169  11.676  17.510  0.00  0.00    +0.000 A 
ATOM     33  C   UNL     1      -4.078  11.210  16.200  0.00  0.00    +0.000 A 
ATOM     34  C   UNL     1      -2.987  10.433  15.823  0.00  0.00    +0.000 A 
ATOM     35 CL   UNL     1      -2.810   9.961  14.177  0.00  0.00    +0.000 Cl
ATOM     36  C   UNL     1      -2.038  10.036  16.767  0.00  0.00    +0.000 A 
ENDBRANCH  29  30
ENDBRANCH  10  29
TORSDOF 5
ENDMDL
MODEL 7
REMARK VINA RESULT:      -8.8      3.248      4.185
REMARK  Name = 
REMARK  6 active torsions:
REMARK  status: ('A' for Active; 'I' for Inactive)
REMARK    1  A    between atoms: C_1  and  O_2
REMARK    2  A    between atoms: O_2  and  C_3
REMARK    3  A    between atoms: C_11  and  N_12
REMARK    4  A    between atoms: N_15  and  C_16
REMARK    5  A    between atoms: C_26  and  C_27
REMARK    6  A    between atoms: C_27  and  C_28
REMARK                            x       y       z     vdW  Elec       q    Type
REMARK                         _______ _______ _______ _____ _____    ______ ____
ROOT
ATOM      1  C   UNL     1      -1.358  13.684  22.508  0.00  0.00    +0.000 A 
ATOM      2  C   UNL     1      -0.096  14.231  22.290  0.00  0.00    +0.000 A 
ATOM      3  C   UNL     1       0.782  13.655  21.364  0.00  0.00    +0.000 A 
ATOM      4  C   UNL     1       0.401  12.520  20.618  0.00  0.00    +0.000 A 
ATOM      5  C   UNL     1      -0.900  12.004  20.804  0.00  0.00    +0.000 A 
ATOM      6  C   UNL     1      -1.762  12.594  21.753  0.00  0.00    +0.000 A 
ATOM      7  C   UNL     1      -1.401  10.779  20.093  0.00  0.00    +0.000 C 
ATOM      8  C   UNL     1      -0.528  10.362  18.918  0.00  0.00    +0.000 C 
ATOM      9  C   UNL     1       0.938  10.399  19.357  0.00  0.00    +0.000 C 
ATOM     10  C   UNL     1       1.370  11.875  19.611  0.00  0.00    +0.000 C 
ENDROOT
BRANCH   9  11
ATOM     11  N   UNL     1       1.790   9.635  18.442  0.00  0.00    +0.000 N 
ATOM     12  C   UNL     1       2.175   8.342  18.744  0.00  0.00    +0.000 C 
ATOM     13  O   UNL     1       1.828   7.796  19.779  0.00  0.00    +0.000 OA
ATOM     14  N   UNL     1       2.945   7.785  17.734  0.00  0.00    +0.000 N 
ATOM     15  H   UNL     1       2.322  10.138  17.752  0.00  0.00    +0.000 HD
ATOM     16  H   UNL     1       3.373   8.441  17.113  0.00  0.00    +0.000 HD
BRANCH  14  17
ATOM     17  C   UNL     1       3.425   6.441  17.702  0.00  0.00    +0.000 A 
ATOM     18  C   UNL     1       2.540   5.366  17.854  0.00  0.00    +0.000 A 
ATOM     19  C   UNL     1       3.000   4.056  17.967  0.00  0.00    +0.000 A 
ATOM     20  C   UNL     1       4.363   3.797  17.923  0.00  0.00    +0.000 A 
ATOM     21  C   UNL     1       5.271   4.843  17.701  0.00  0.00    +0.000 A 
ATOM     22  C   UNL     1       6.645   4.592  17.640  0.00  0.00    +0.000 A 
ATOM     23  N   UNL     1       7.590   5.528  17.404  0.00  0.00    +0.000 NA
ATOM     24  C   UNL     1       7.146   6.781  17.207  0.00  0.00    +0.000 A 
ATOM     25  C   UNL     1       5.808   7.150  17.267  0.00  0.00    +0.000 A 
ATOM     26  C   UNL     1       4.819   6.178  17.544  0.00  0.00    +0.000 A 
ENDBRANCH  14  17
ENDBRANCH   9  11
BRANCH   1  28
ATOM     27  C   UNL     1      -2.747  15.520  23.012  0.00  0.00    +0.000 C 
ATOM     28  O   UNL     1      -2.145  14.302  23.450  0.00  0.00    +0.000 OA
ENDBRANCH   1  28
BRANCH  10  29
ATOM     29  C   UNL     1       1.432  12.769  18.340  0.00  0.00    +0.000 C 
BRANCH  29  30
ATOM     30  C   UNL     1       2.360  13.965  18.375  0.00  0.00    +0.000 A 
ATOM     31  C   UNL     1       1.842  15.258  18.519  0.00  0.00    +0.000 A 
ATOM     32  C   UNL     1       2.655  16.377  18.327  0.00  0.00    +0.000 A 
ATOM     33  C   UNL     1       4.008  16.216  18.036  0.00  0.00    +0.000 A 
ATOM     34  C   UNL     1       4.555  14.936  18.006  0.00  0.00    +0.000 A 
ATOM     35 CL   UNL     1       6.248  14.743  17.770  0.00  0.00    +0.000 Cl
ATOM     36  C   UNL     1       3.741  13.812  18.166  0.00  0.00    +0.000 A 
ENDBRANCH  29  30
ENDBRANCH  10  29
TORSDOF 5
ENDMDL
MODEL 8
REMARK VINA RESULT:      -8.7      3.332      4.623
REMARK  Name = 
REMARK  6 active torsions:
REMARK  status: ('A' for Active; 'I' for Inactive)
REMARK    1  A    between atoms: C_1  and  O_2
REMARK    2  A    between atoms: O_2  and  C_3
REMARK    3  A    between atoms: C_11  and  N_12
REMARK    4  A    between atoms: N_15  and  C_16
REMARK    5  A    between atoms: C_26  and  C_27
REMARK    6  A    between atoms: C_27  and  C_28
REMARK                            x       y       z     vdW  Elec       q    Type
REMARK                         _______ _______ _______ _____ _____    ______ ____
ROOT
ATOM      1  C   UNL     1      -1.417  13.426  22.346  0.00  0.00    +0.000 A 
ATOM      2  C   UNL     1      -0.133  13.938  22.183  0.00  0.00    +0.000 A 
ATOM      3  C   UNL     1       0.742  13.387  21.238  0.00  0.00    +0.000 A 
ATOM      4  C   UNL     1       0.335  12.314  20.418  0.00  0.00    +0.000 A 
ATOM      5  C   UNL     1      -0.987  11.837  20.550  0.00  0.00    +0.000 A 
ATOM      6  C   UNL     1      -1.846  12.399  21.518  0.00  0.00    +0.000 A 
ATOM      7  C   UNL     1      -1.519  10.676  19.757  0.00  0.00    +0.000 C 
ATOM      8  C   UNL     1      -0.639  10.298  18.574  0.00  0.00    +0.000 C 
ATOM      9  C   UNL     1       0.819  10.255  19.039  0.00  0.00    +0.000 C 
ATOM     10  C   UNL     1       1.299  11.696  19.389  0.00  0.00    +0.000 C 
ENDROOT
BRANCH   9  11
ATOM     11  N   UNL     1       1.661   9.516  18.093  0.00  0.00    +0.000 N 
ATOM     12  C   UNL     1       2.386   8.413  18.501  0.00  0.00    +0.000 C 
ATOM     13  O   UNL     1       2.359   8.021  19.657  0.00  0.00    +0.000 OA
ATOM     14  N   UNL     1       3.084   7.838  17.450  0.00  0.00    +0.000 N 
ATOM     15  H   UNL     1       1.933   9.973  17.239  0.00  0.00    +0.000 HD
ATOM     16  H   UNL     1       3.233   8.433  16.660  0.00  0.00    +0.000 HD
BRANCH  14  17
ATOM     17  C   UNL     1       3.856   6.639  17.522  0.00  0.00    +0.000 A 
ATOM     18  C   UNL     1       5.252   6.686  17.433  0.00  0.00    +0.000 A 
ATOM     19  C   UNL     1       6.016   5.523  17.360  0.00  0.00    +0.000 A 
ATOM     20  C   UNL     1       5.389   4.285  17.380  0.00  0.00    +0.000 A 
ATOM     21  C   UNL     1       3.998   4.202  17.538  0.00  0.00    +0.000 A 
ATOM     22  C   UNL     1       3.358   2.960  17.574  0.00  0.00    +0.000 A 
ATOM     23  N   UNL     1       2.031   2.781  17.750  0.00  0.00    +0.000 NA
ATOM     24  C   UNL     1       1.299   3.897  17.909  0.00  0.00    +0.000 A 
ATOM     25  C   UNL     1       1.824   5.182  17.869  0.00  0.00    +0.000 A 
ATOM     26  C   UNL     1       3.208   5.374  17.655  0.00  0.00    +0.000 A 
ENDBRANCH  14  17
ENDBRANCH   9  11
BRANCH   1  28
ATOM     27  C   UNL     1      -1.474  14.743  24.300  0.00  0.00    +0.000 C 
ATOM     28  O   UNL     1      -2.200  14.015  23.310  0.00  0.00    +0.000 OA
ENDBRANCH   1  28
BRANCH  10  29
ATOM     29  C   UNL     1       1.416  12.663  18.177  0.00  0.00    +0.000 C 
BRANCH  29  30
ATOM     30  C   UNL     1       2.360  13.839  18.314  0.00  0.00    +0.000 A 
ATOM     31  C   UNL     1       1.856  15.126  18.545  0.00  0.00    +0.000 A 
ATOM     32  C   UNL     1       2.687  16.244  18.447  0.00  0.00    +0.000 A 
ATOM     33  C   UNL     1       4.043  16.085  18.167  0.00  0.00    +0.000 A 
ATOM     34  C   UNL     1       4.573  14.803  18.052  0.00  0.00    +0.000 A 
ATOM     35 CL   UNL     1       6.268  14.604  17.829  0.00  0.00    +0.000 Cl
ATOM     36  C   UNL     1       3.742  13.682  18.116  0.00  0.00    +0.000 A 
ENDBRANCH  29  30
ENDBRANCH  10  29
TORSDOF 5
ENDMDL
MODEL 9
REMARK VINA RESULT:      -8.6      5.363      7.953
REMARK  Name = 
REMARK  6 active torsions:
REMARK  status: ('A' for Active; 'I' for Inactive)
REMARK    1  A    between atoms: C_1  and  O_2
REMARK    2  A    between atoms: O_2  and  C_3
REMARK    3  A    between atoms: C_11  and  N_12
REMARK    4  A    between atoms: N_15  and  C_16
REMARK    5  A    between atoms: C_26  and  C_27
REMARK    6  A    between atoms: C_27  and  C_28
REMARK                            x       y       z     vdW  Elec       q    Type
REMARK                         _______ _______ _______ _____ _____    ______ ____
ROOT
ATOM      1  C   UNL     1      -3.965  10.927  17.889  0.00  0.00    +0.000 A 
ATOM      2  C   UNL     1      -3.012  10.046  17.383  0.00  0.00    +0.000 A 
ATOM      3  C   UNL     1      -1.668  10.154  17.760  0.00  0.00    +0.000 A 
ATOM      4  C   UNL     1      -1.253  11.144  18.675  0.00  0.00    +0.000 A 
ATOM      5  C   UNL     1      -2.233  11.997  19.227  0.00  0.00    +0.000 A 
ATOM      6  C   UNL     1      -3.579  11.878  18.821  0.00  0.00    +0.000 A 
ATOM      7  C   UNL     1      -1.904  13.111  20.181  0.00  0.00    +0.000 C 
ATOM      8  C   UNL     1      -0.500  13.013  20.762  0.00  0.00    +0.000 C 
ATOM      9  C   UNL     1       0.482  12.713  19.626  0.00  0.00    +0.000 C 
ATOM     10  C   UNL     1       0.226  11.275  19.080  0.00  0.00    +0.000 C 
ENDROOT
BRANCH   9  11
ATOM     11  N   UNL     1       1.863  13.007  20.021  0.00  0.00    +0.000 N 
ATOM     12  C   UNL     1       2.395  14.271  19.852  0.00  0.00    +0.000 C 
ATOM     13  O   UNL     1       1.743  15.180  19.363  0.00  0.00    +0.000 OA
ATOM     14  N   UNL     1       3.697  14.349  20.322  0.00  0.00    +0.000 N 
ATOM     15  H   UNL     1       2.499  12.238  20.142  0.00  0.00    +0.000 HD
ATOM     16  H   UNL     1       4.171  13.473  20.414  0.00  0.00    +0.000 HD
BRANCH  14  17
ATOM     17  C   UNL     1       4.493  15.533  20.371  0.00  0.00    +0.000 A 
ATOM     18  C   UNL     1       4.133  16.598  21.206  0.00  0.00    +0.000 A 
ATOM     19  C   UNL     1       4.811  17.815  21.167  0.00  0.00    +0.000 A 
ATOM     20  C   UNL     1       5.871  17.984  20.288  0.00  0.00    +0.000 A 
ATOM     21  C   UNL     1       6.302  16.916  19.488  0.00  0.00    +0.000 A 
ATOM     22  C   UNL     1       7.378  17.071  18.610  0.00  0.00    +0.000 A 
ATOM     23  N   UNL     1       7.879  16.095  17.824  0.00  0.00    +0.000 NA
ATOM     24  C   UNL     1       7.285  14.893  17.921  0.00  0.00    +0.000 A 
ATOM     25  C   UNL     1       6.195  14.629  18.741  0.00  0.00    +0.000 A 
ATOM     26  C   UNL     1       5.649  15.658  19.543  0.00  0.00    +0.000 A 
ENDBRANCH  14  17
ENDBRANCH   9  11
BRANCH   1  28
ATOM     27  C   UNL     1      -6.243  10.792  18.479  0.00  0.00    +0.000 C 
ATOM     28  O   UNL     1      -5.256  10.759  17.449  0.00  0.00    +0.000 OA
ENDBRANCH   1  28
BRANCH  10  29
ATOM     29  C   UNL     1       0.574  10.126  20.068  0.00  0.00    +0.000 C 
BRANCH  29  30
ATOM     30  C   UNL     1       1.443   9.001  19.547  0.00  0.00    +0.000 A 
ATOM     31  C   UNL     1       2.011   9.081  18.268  0.00  0.00    +0.000 A 
ATOM     32  C   UNL     1       2.620   7.966  17.689  0.00  0.00    +0.000 A 
ATOM     33  C   UNL     1       2.712   6.771  18.399  0.00  0.00    +0.000 A 
ATOM     34  C   UNL     1       2.254   6.718  19.713  0.00  0.00    +0.000 A 
ATOM     35 CL   UNL     1       2.478   5.280  20.631  0.00  0.00    +0.000 Cl
ATOM     36  C   UNL     1       1.615   7.819  20.287  0.00  0.00    +0.000 A 
ENDBRANCH  29  30
ENDBRANCH  10  29
TORSDOF 5
ENDMDL
