MODEL 1
REMARK VINA RESULT:      -9.7      0.000      0.000
REMARK  Name = 
REMARK  2 active torsions:
REMARK  status: ('A' for Active; 'I' for Inactive)
REMARK    1  A    between atoms: C_8  and  C_9
REMARK    2  A    between atoms: C_16  and  C_17
REMARK                            x       y       z     vdW  Elec       q    Type
REMARK                         _______ _______ _______ _____ _____    ______ ____
ROOT
ATOM      1  C   UNL     1       4.755   3.545  19.292  0.00  0.00    +0.000 C 
ATOM      2  O   UNL     1       5.394   2.771  20.009  0.00  0.00    +0.000 OA
ATOM      3  N   UNL     1       3.357   3.705  19.433  0.00  0.00    +0.000 N 
ATOM      4  C   UNL     1       2.718   3.061  20.595  0.00  0.00    +0.000 C 
ATOM      5  C   UNL     1       1.328   2.481  20.336  0.00  0.00    +0.000 C 
ATOM      6  C   UNL     1       0.438   3.363  19.471  0.00  0.00    +0.000 C 
ATOM      7  C   UNL     1       1.189   3.804  18.226  0.00  0.00    +0.000 C 
ATOM      8  C   UNL     1       2.488   4.544  18.575  0.00  0.00    +0.000 C 
ENDROOT
BRANCH   1  16
ATOM      9  N   UNL     1       6.120   3.342  13.862  0.00  0.00    +0.000 N 
ATOM     10  C   UNL     1       6.618   4.345  14.597  0.00  0.00    +0.000 A 
ATOM     11  N   UNL     1       7.505   5.227  14.152  0.00  0.00    +0.000 NA
ATOM     12  N   UNL     1       7.767   5.991  15.230  0.00  0.00    +0.000 N 
ATOM     13  C   UNL     1       7.114   5.603  16.369  0.00  0.00    +0.000 A 
ATOM     14  C   UNL     1       7.139   6.067  17.689  0.00  0.00    +0.000 A 
ATOM     15  C   UNL     1       6.361   5.356  18.626  0.00  0.00    +0.000 A 
ATOM     16  C   UNL     1       5.545   4.276  18.248  0.00  0.00    +0.000 A 
ATOM     17  C   UNL     1       5.442   3.963  16.893  0.00  0.00    +0.000 A 
ATOM     18  C   UNL     1       6.302   4.557  15.962  0.00  0.00    +0.000 A 
ATOM     19  H   UNL     1       6.302   3.345  12.866  0.00  0.00    +0.000 HD
ATOM     20  H   UNL     1       5.296   2.826  14.146  0.00  0.00    +0.000 HD
ATOM     21  H   UNL     1       8.424   6.756  15.122  0.00  0.00    +0.000 HD
ENDBRANCH   1  16
BRANCH   8  22
ATOM     22  C   UNL     1       2.242   5.969  19.110  0.00  0.00    +0.000 A 
ATOM     23  C   UNL     1       2.321   7.121  18.303  0.00  0.00    +0.000 A 
ATOM     24  C   UNL     1       1.979   8.384  18.798  0.00  0.00    +0.000 A 
ATOM     25  C   UNL     1       1.536   8.506  20.105  0.00  0.00    +0.000 A 
ATOM     26  F   UNL     1       1.171   9.709  20.567  0.00  0.00    +0.000 F 
ATOM     27  C   UNL     1       1.436   7.394  20.925  0.00  0.00    +0.000 A 
ATOM     28  C   UNL     1       1.792   6.129  20.435  0.00  0.00    +0.000 A 
ENDBRANCH   8  22
TORSDOF 2
ENDMDL
MODEL 2
REMARK VINA RESULT:      -8.3      0.869      1.861
REMARK  Name = 
REMARK  2 active torsions:
REMARK  status: ('A' for Active; 'I' for Inactive)
REMARK    1  A    between atoms: C_8  and  C_9
REMARK    2  A    between atoms: C_16  and  C_17
REMARK                            x       y       z     vdW  Elec       q    Type
REMARK                         _______ _______ _______ _____ _____    ______ ____
ROOT
ATOM      1  C   UNL     1       4.553   3.214  19.502  0.00  0.00    +0.000 C 
ATOM      2  O   UNL     1       5.204   2.472  20.243  0.00  0.00    +0.000 OA
ATOM      3  N   UNL     1       3.178   3.462  19.721  0.00  0.00    +0.000 N 
ATOM      4  C   UNL     1       2.594   2.959  20.977  0.00  0.00    +0.000 C 
ATOM      5  C   UNL     1       1.162   2.436  20.866  0.00  0.00    +0.000 C 
ATOM      6  C   UNL     1       0.257   3.286  19.985  0.00  0.00    +0.000 C 
ATOM      7  C   UNL     1       0.937   3.573  18.657  0.00  0.00    +0.000 C 
ATOM      8  C   UNL     1       2.293   4.269  18.850  0.00  0.00    +0.000 C 
ENDROOT
BRANCH   1  16
ATOM      9  N   UNL     1       7.887   7.510  18.153  0.00  0.00    +0.000 N 
ATOM     10  C   UNL     1       7.566   6.638  17.189  0.00  0.00    +0.000 A 
ATOM     11  N   UNL     1       7.891   6.787  15.910  0.00  0.00    +0.000 NA
ATOM     12  N   UNL     1       7.313   5.731  15.307  0.00  0.00    +0.000 N 
ATOM     13  C   UNL     1       6.587   4.928  16.145  0.00  0.00    +0.000 A 
ATOM     14  C   UNL     1       5.800   3.790  15.935  0.00  0.00    +0.000 A 
ATOM     15  C   UNL     1       5.135   3.262  17.061  0.00  0.00    +0.000 A 
ATOM     16  C   UNL     1       5.302   3.805  18.346  0.00  0.00    +0.000 A 
ATOM     17  C   UNL     1       6.222   4.840  18.516  0.00  0.00    +0.000 A 
ATOM     18  C   UNL     1       6.790   5.472  17.403  0.00  0.00    +0.000 A 
ATOM     19  H   UNL     1       8.549   8.243  17.933  0.00  0.00    +0.000 HD
ATOM     20  H   UNL     1       7.824   7.270  19.136  0.00  0.00    +0.000 HD
ATOM     21  H   UNL     1       7.439   5.628  14.305  0.00  0.00    +0.000 HD
ENDBRANCH   1  16
BRANCH   8  22
ATOM     22  C   UNL     1       2.155   5.747  19.266  0.00  0.00    +0.000 A 
ATOM     23  C   UNL     1       2.380   6.822  18.385  0.00  0.00    +0.000 A 
ATOM     24  C   UNL     1       2.134   8.145  18.769  0.00  0.00    +0.000 A 
ATOM     25  C   UNL     1       1.641   8.406  20.037  0.00  0.00    +0.000 A 
ATOM     26  F   UNL     1       1.368   9.667  20.390  0.00  0.00    +0.000 F 
ATOM     27  C   UNL     1       1.398   7.372  20.928  0.00  0.00    +0.000 A 
ATOM     28  C   UNL     1       1.658   6.047  20.550  0.00  0.00    +0.000 A 
ENDBRANCH   8  22
TORSDOF 2
ENDMDL
MODEL 3
REMARK VINA RESULT:      -8.1      1.004      2.250
REMARK  Name = 
REMARK  2 active torsions:
REMARK  status: ('A' for Active; 'I' for Inactive)
REMARK    1  A    between atoms: C_8  and  C_9
REMARK    2  A    between atoms: C_16  and  C_17
REMARK                            x       y       z     vdW  Elec       q    Type
REMARK                         _______ _______ _______ _____ _____    ______ ____
ROOT
ATOM      1  C   UNL     1       4.572   3.353  19.521  0.00  0.00    +0.000 C 
ATOM      2  O   UNL     1       5.213   2.617  20.276  0.00  0.00    +0.000 OA
ATOM      3  N   UNL     1       3.166   3.473  19.617  0.00  0.00    +0.000 N 
ATOM      4  C   UNL     1       2.512   2.838  20.775  0.00  0.00    +0.000 C 
ATOM      5  C   UNL     1       1.149   2.208  20.489  0.00  0.00    +0.000 C 
ATOM      6  C   UNL     1       0.260   3.040  19.576  0.00  0.00    +0.000 C 
ATOM      7  C   UNL     1       1.034   3.474  18.343  0.00  0.00    +0.000 C 
ATOM      8  C   UNL     1       2.299   4.263  18.712  0.00  0.00    +0.000 C 
ENDROOT
BRANCH   1  16
ATOM      9  N   UNL     1       8.265   7.527  18.944  0.00  0.00    +0.000 N 
ATOM     10  C   UNL     1       7.872   6.879  17.839  0.00  0.00    +0.000 A 
ATOM     11  N   UNL     1       8.212   7.235  16.606  0.00  0.00    +0.000 NA
ATOM     12  N   UNL     1       7.548   6.362  15.826  0.00  0.00    +0.000 N 
ATOM     13  C   UNL     1       6.753   5.481  16.511  0.00  0.00    +0.000 A 
ATOM     14  C   UNL     1       5.872   4.473  16.105  0.00  0.00    +0.000 A 
ATOM     15  C   UNL     1       5.161   3.804  17.123  0.00  0.00    +0.000 A 
ATOM     16  C   UNL     1       5.372   4.083  18.484  0.00  0.00    +0.000 A 
ATOM     17  C   UNL     1       6.377   4.987  18.829  0.00  0.00    +0.000 A 
ATOM     18  C   UNL     1       6.999   5.764  17.845  0.00  0.00    +0.000 A 
ATOM     19  H   UNL     1       8.988   8.230  18.853  0.00  0.00    +0.000 HD
ATOM     20  H   UNL     1       8.179   7.116  19.866  0.00  0.00    +0.000 HD
ATOM     21  H   UNL     1       7.666   6.435  14.820  0.00  0.00    +0.000 HD
ENDBRANCH   1  16
BRANCH   8  22
ATOM     22  C   UNL     1       1.993   5.692  19.203  0.00  0.00    +0.000 A 
ATOM     23  C   UNL     1       1.593   5.988  20.521  0.00  0.00    +0.000 A 
ATOM     24  C   UNL     1       1.436   7.308  20.957  0.00  0.00    +0.000 A 
ATOM     25  C   UNL     1       1.693   8.350  20.082  0.00  0.00    +0.000 A 
ATOM     26  F   UNL     1       1.580   9.613  20.511  0.00  0.00    +0.000 F 
ATOM     27  C   UNL     1       2.096   8.098  18.780  0.00  0.00    +0.000 A 
ATOM     28  C   UNL     1       2.242   6.775  18.337  0.00  0.00    +0.000 A 
ENDBRANCH   8  22
TORSDOF 2
ENDMDL
MODEL 4
REMARK VINA RESULT:      -7.4      2.861      4.437
REMARK  Name = 
REMARK  2 active torsions:
REMARK  status: ('A' for Active; 'I' for Inactive)
REMARK    1  A    between atoms: C_8  and  C_9
REMARK    2  A    between atoms: C_16  and  C_17
REMARK                            x       y       z     vdW  Elec       q    Type
REMARK                         _______ _______ _______ _____ _____    ______ ____
ROOT
ATOM      1  C   UNL     1       3.507   7.650  17.498  0.00  0.00    +0.000 C 
ATOM      2  O   UNL     1       3.383   8.592  16.712  0.00  0.00    +0.000 OA
ATOM      3  N   UNL     1       2.624   7.469  18.587  0.00  0.00    +0.000 N 
ATOM      4  C   UNL     1       1.431   8.334  18.640  0.00  0.00    +0.000 C 
ATOM      5  C   UNL     1       1.012   8.782  20.039  0.00  0.00    +0.000 C 
ATOM      6  C   UNL     1       1.110   7.691  21.096  0.00  0.00    +0.000 C 
ATOM      7  C   UNL     1       2.465   7.009  21.023  0.00  0.00    +0.000 C 
ATOM      8  C   UNL     1       2.733   6.422  19.629  0.00  0.00    +0.000 C 
ENDROOT
BRANCH   1  16
ATOM      9  N   UNL     1       7.925   5.331  20.046  0.00  0.00    +0.000 N 
ATOM     10  C   UNL     1       7.730   5.052  18.751  0.00  0.00    +0.000 A 
ATOM     11  N   UNL     1       8.578   4.356  18.002  0.00  0.00    +0.000 NA
ATOM     12  N   UNL     1       8.021   4.384  16.777  0.00  0.00    +0.000 N 
ATOM     13  C   UNL     1       6.865   5.114  16.698  0.00  0.00    +0.000 A 
ATOM     14  C   UNL     1       6.014   5.444  15.636  0.00  0.00    +0.000 A 
ATOM     15  C   UNL     1       4.928   6.293  15.935  0.00  0.00    +0.000 A 
ATOM     16  C   UNL     1       4.666   6.733  17.244  0.00  0.00    +0.000 A 
ATOM     17  C   UNL     1       5.458   6.241  18.282  0.00  0.00    +0.000 A 
ATOM     18  C   UNL     1       6.620   5.513  18.002  0.00  0.00    +0.000 A 
ATOM     19  H   UNL     1       8.677   4.855  20.529  0.00  0.00    +0.000 HD
ATOM     20  H   UNL     1       7.177   5.665  20.642  0.00  0.00    +0.000 HD
ATOM     21  H   UNL     1       8.498   3.896  16.026  0.00  0.00    +0.000 HD
ENDBRANCH   1  16
BRANCH   8  22
ATOM     22  C   UNL     1       1.913   5.147  19.347  0.00  0.00    +0.000 A 
ATOM     23  C   UNL     1       1.760   4.595  18.060  0.00  0.00    +0.000 A 
ATOM     24  C   UNL     1       1.104   3.376  17.862  0.00  0.00    +0.000 A 
ATOM     25  C   UNL     1       0.607   2.684  18.955  0.00  0.00    +0.000 A 
ATOM     26  F   UNL     1       0.014   1.498  18.769  0.00  0.00    +0.000 F 
ATOM     27  C   UNL     1       0.747   3.191  20.237  0.00  0.00    +0.000 A 
ATOM     28  C   UNL     1       1.392   4.420  20.436  0.00  0.00    +0.000 A 
ENDBRANCH   8  22
TORSDOF 2
ENDMDL
MODEL 5
REMARK VINA RESULT:      -7.4      7.532     11.233
REMARK  Name = 
REMARK  2 active torsions:
REMARK  status: ('A' for Active; 'I' for Inactive)
REMARK    1  A    between atoms: C_8  and  C_9
REMARK    2  A    between atoms: C_16  and  C_17
REMARK                            x       y       z     vdW  Elec       q    Type
REMARK                         _______ _______ _______ _____ _____    ______ ____
ROOT
ATOM      1  C   UNL     1      -0.768  10.737  22.453  0.00  0.00    +0.000 C 
ATOM      2  O   UNL     1      -0.551   9.908  23.339  0.00  0.00    +0.000 OA
ATOM      3  N   UNL     1      -0.352  10.524  21.118  0.00  0.00    +0.000 N 
ATOM      4  C   UNL     1       0.180   9.191  20.782  0.00  0.00    +0.000 C 
ATOM      5  C   UNL     1       1.338   9.184  19.785  0.00  0.00    +0.000 C 
ATOM      6  C   UNL     1       1.171  10.162  18.631  0.00  0.00    +0.000 C 
ATOM      7  C   UNL     1       0.790  11.535  19.158  0.00  0.00    +0.000 C 
ATOM      8  C   UNL     1      -0.493  11.487  20.001  0.00  0.00    +0.000 C 
ENDROOT
BRANCH   1  16
ATOM      9  N   UNL     1      -5.849  12.708  23.754  0.00  0.00    +0.000 N 
ATOM     10  C   UNL     1      -4.815  13.559  23.800  0.00  0.00    +0.000 A 
ATOM     11  N   UNL     1      -4.932  14.863  24.021  0.00  0.00    +0.000 NA
ATOM     12  N   UNL     1      -3.670  15.321  23.910  0.00  0.00    +0.000 N 
ATOM     13  C   UNL     1      -2.748  14.364  23.580  0.00  0.00    +0.000 A 
ATOM     14  C   UNL     1      -1.374  14.412  23.316  0.00  0.00    +0.000 A 
ATOM     15  C   UNL     1      -0.760  13.201  22.934  0.00  0.00    +0.000 A 
ATOM     16  C   UNL     1      -1.470  11.990  22.885  0.00  0.00    +0.000 A 
ATOM     17  C   UNL     1      -2.799  11.980  23.312  0.00  0.00    +0.000 A 
ATOM     18  C   UNL     1      -3.470  13.182  23.563  0.00  0.00    +0.000 A 
ATOM     19  H   UNL     1      -6.754  13.041  24.062  0.00  0.00    +0.000 HD
ATOM     20  H   UNL     1      -5.720  11.705  23.805  0.00  0.00    +0.000 HD
ATOM     21  H   UNL     1      -3.510  16.313  24.054  0.00  0.00    +0.000 HD
ENDBRANCH   1  16
BRANCH   8  22
ATOM     22  C   UNL     1      -1.764  11.299  19.148  0.00  0.00    +0.000 A 
ATOM     23  C   UNL     1      -1.916  10.265  18.204  0.00  0.00    +0.000 A 
ATOM     24  C   UNL     1      -3.126  10.061  17.534  0.00  0.00    +0.000 A 
ATOM     25  C   UNL     1      -4.207  10.881  17.813  0.00  0.00    +0.000 A 
ATOM     26  F   UNL     1      -5.376  10.661  17.200  0.00  0.00    +0.000 F 
ATOM     27  C   UNL     1      -4.097  11.904  18.742  0.00  0.00    +0.000 A 
ATOM     28  C   UNL     1      -2.881  12.118  19.405  0.00  0.00    +0.000 A 
ENDBRANCH   8  22
TORSDOF 2
ENDMDL
MODEL 6
REMARK VINA RESULT:      -7.3      6.883     10.599
REMARK  Name = 
REMARK  2 active torsions:
REMARK  status: ('A' for Active; 'I' for Inactive)
REMARK    1  A    between atoms: C_8  and  C_9
REMARK    2  A    between atoms: C_16  and  C_17
REMARK                            x       y       z     vdW  Elec       q    Type
REMARK                         _______ _______ _______ _____ _____    ______ ____
ROOT
ATOM      1  C   UNL     1      -0.168  10.223  21.946  0.00  0.00    +0.000 C 
ATOM      2  O   UNL     1       0.071   9.370  22.804  0.00  0.00    +0.000 OA
ATOM      3  N   UNL     1       0.213  10.047  20.596  0.00  0.00    +0.000 N 
ATOM      4  C   UNL     1       0.733   8.723  20.209  0.00  0.00    +0.000 C 
ATOM      5  C   UNL     1       1.866   8.743  19.183  0.00  0.00    +0.000 C 
ATOM      6  C   UNL     1       1.671   9.753  18.061  0.00  0.00    +0.000 C 
ATOM      7  C   UNL     1       1.306  11.111  18.636  0.00  0.00    +0.000 C 
ATOM      8  C   UNL     1       0.045  11.040  19.510  0.00  0.00    +0.000 C 
ENDROOT
BRANCH   1  16
ATOM      9  N   UNL     1      -4.793  11.937  24.604  0.00  0.00    +0.000 N 
ATOM     10  C   UNL     1      -3.918  12.869  24.202  0.00  0.00    +0.000 A 
ATOM     11  N   UNL     1      -4.130  14.177  24.289  0.00  0.00    +0.000 NA
ATOM     12  N   UNL     1      -3.039  14.717  23.714  0.00  0.00    +0.000 N 
ATOM     13  C   UNL     1      -2.150  13.802  23.216  0.00  0.00    +0.000 A 
ATOM     14  C   UNL     1      -0.948  13.923  22.510  0.00  0.00    +0.000 A 
ATOM     15  C   UNL     1      -0.332  12.724  22.096  0.00  0.00    +0.000 A 
ATOM     16  C   UNL     1      -0.856  11.465  22.431  0.00  0.00    +0.000 A 
ATOM     17  C   UNL     1      -1.969  11.409  23.271  0.00  0.00    +0.000 A 
ATOM     18  C   UNL     1      -2.680  12.575  23.582  0.00  0.00    +0.000 A 
ATOM     19  H   UNL     1      -5.591  12.236  25.151  0.00  0.00    +0.000 HD
ATOM     20  H   UNL     1      -4.524  10.969  24.731  0.00  0.00    +0.000 HD
ATOM     21  H   UNL     1      -2.972  15.729  23.676  0.00  0.00    +0.000 HD
ENDBRANCH   1  16
BRANCH   8  22
ATOM     22  C   UNL     1      -1.248  10.878  18.686  0.00  0.00    +0.000 A 
ATOM     23  C   UNL     1      -2.418  11.625  18.928  0.00  0.00    +0.000 A 
ATOM     24  C   UNL     1      -3.531  11.531  18.086  0.00  0.00    +0.000 A 
ATOM     25  C   UNL     1      -3.481  10.699  16.980  0.00  0.00    +0.000 A 
ATOM     26  F   UNL     1      -4.532  10.638  16.154  0.00  0.00    +0.000 F 
ATOM     27  C   UNL     1      -2.344   9.955  16.705  0.00  0.00    +0.000 A 
ATOM     28  C   UNL     1      -1.231  10.038  17.555  0.00  0.00    +0.000 A 
ENDBRANCH   8  22
TORSDOF 2
ENDMDL
MODEL 7
REMARK VINA RESULT:      -7.2      7.845      9.884
REMARK  Name = 
REMARK  2 active torsions:
REMARK  status: ('A' for Active; 'I' for Inactive)
REMARK    1  A    between atoms: C_8  and  C_9
REMARK    2  A    between atoms: C_16  and  C_17
REMARK                            x       y       z     vdW  Elec       q    Type
REMARK                         _______ _______ _______ _____ _____    ______ ____
ROOT
ATOM      1  C   UNL     1      -0.010  13.278  21.699  0.00  0.00    +0.000 C 
ATOM      2  O   UNL     1      -0.216  13.772  22.810  0.00  0.00    +0.000 OA
ATOM      3  N   UNL     1      -0.174  11.893  21.460  0.00  0.00    +0.000 N 
ATOM      4  C   UNL     1      -0.786  11.091  22.534  0.00  0.00    +0.000 C 
ATOM      5  C   UNL     1      -0.214   9.684  22.703  0.00  0.00    +0.000 C 
ATOM      6  C   UNL     1       0.066   8.966  21.391  0.00  0.00    +0.000 C 
ATOM      7  C   UNL     1       0.855   9.868  20.457  0.00  0.00    +0.000 C 
ATOM      8  C   UNL     1       0.123  11.191  20.190  0.00  0.00    +0.000 C 
ENDROOT
BRANCH   1  16
ATOM      9  N   UNL     1       4.600  15.780  19.732  0.00  0.00    +0.000 N 
ATOM     10  C   UNL     1       3.434  16.048  19.129  0.00  0.00    +0.000 A 
ATOM     11  N   UNL     1       3.282  16.955  18.171  0.00  0.00    +0.000 NA
ATOM     12  N   UNL     1       1.960  16.935  17.918  0.00  0.00    +0.000 N 
ATOM     13  C   UNL     1       1.245  16.078  18.712  0.00  0.00    +0.000 A 
ATOM     14  C   UNL     1      -0.121  15.794  18.823  0.00  0.00    +0.000 A 
ATOM     15  C   UNL     1      -0.498  14.878  19.827  0.00  0.00    +0.000 A 
ATOM     16  C   UNL     1       0.451  14.228  20.635  0.00  0.00    +0.000 A 
ATOM     17  C   UNL     1       1.805  14.435  20.368  0.00  0.00    +0.000 A 
ATOM     18  C   UNL     1       2.205  15.437  19.476  0.00  0.00    +0.000 A 
ATOM     19  H   UNL     1       5.445  16.169  19.332  0.00  0.00    +0.000 HD
ATOM     20  H   UNL     1       4.735  14.946  20.291  0.00  0.00    +0.000 HD
ATOM     21  H   UNL     1       1.604  17.553  17.196  0.00  0.00    +0.000 HD
ENDBRANCH   1  16
BRANCH   8  22
ATOM     22  C   UNL     1      -1.087  11.028  19.249  0.00  0.00    +0.000 A 
ATOM     23  C   UNL     1      -2.276  11.773  19.381  0.00  0.00    +0.000 A 
ATOM     24  C   UNL     1      -3.306  11.678  18.439  0.00  0.00    +0.000 A 
ATOM     25  C   UNL     1      -3.151  10.847  17.342  0.00  0.00    +0.000 A 
ATOM     26  F   UNL     1      -4.120  10.786  16.421  0.00  0.00    +0.000 F 
ATOM     27  C   UNL     1      -1.992  10.105  17.174  0.00  0.00    +0.000 A 
ATOM     28  C   UNL     1      -0.964  10.189  18.124  0.00  0.00    +0.000 A 
ENDBRANCH   8  22
TORSDOF 2
ENDMDL
MODEL 8
REMARK VINA RESULT:      -7.2      7.824      9.817
REMARK  Name = 
REMARK  2 active torsions:
REMARK  status: ('A' for Active; 'I' for Inactive)
REMARK    1  A    between atoms: C_8  and  C_9
REMARK    2  A    between atoms: C_16  and  C_17
REMARK                            x       y       z     vdW  Elec       q    Type
REMARK                         _______ _______ _______ _____ _____    ______ ____
ROOT
ATOM      1  C   UNL     1       0.140  13.305  21.646  0.00  0.00    +0.000 C 
ATOM      2  O   UNL     1      -0.023  13.796  22.766  0.00  0.00    +0.000 OA
ATOM      3  N   UNL     1      -0.108  11.936  21.392  0.00  0.00    +0.000 N 
ATOM      4  C   UNL     1      -0.754  11.157  22.463  0.00  0.00    +0.000 C 
ATOM      5  C   UNL     1      -0.264   9.716  22.607  0.00  0.00    +0.000 C 
ATOM      6  C   UNL     1      -0.042   9.000  21.283  0.00  0.00    +0.000 C 
ATOM      7  C   UNL     1       0.787   9.867  20.350  0.00  0.00    +0.000 C 
ATOM      8  C   UNL     1       0.131  11.235  20.109  0.00  0.00    +0.000 C 
ENDROOT
BRANCH   1  16
ATOM      9  N   UNL     1       4.855  15.639  19.719  0.00  0.00    +0.000 N 
ATOM     10  C   UNL     1       3.704  15.953  19.109  0.00  0.00    +0.000 A 
ATOM     11  N   UNL     1       3.593  16.868  18.153  0.00  0.00    +0.000 NA
ATOM     12  N   UNL     1       2.272  16.897  17.890  0.00  0.00    +0.000 N 
ATOM     13  C   UNL     1       1.520  16.065  18.676  0.00  0.00    +0.000 A 
ATOM     14  C   UNL     1       0.144  15.831  18.777  0.00  0.00    +0.000 A 
ATOM     15  C   UNL     1      -0.274  14.927  19.775  0.00  0.00    +0.000 A 
ATOM     16  C   UNL     1       0.644  14.240  20.587  0.00  0.00    +0.000 A 
ATOM     17  C   UNL     1       2.006  14.397  20.332  0.00  0.00    +0.000 A 
ATOM     18  C   UNL     1       2.451  15.386  19.446  0.00  0.00    +0.000 A 
ATOM     19  H   UNL     1       5.716  15.998  19.327  0.00  0.00    +0.000 HD
ATOM     20  H   UNL     1       4.954  14.799  20.277  0.00  0.00    +0.000 HD
ATOM     21  H   UNL     1       1.945  17.530  17.168  0.00  0.00    +0.000 HD
ENDBRANCH   1  16
BRANCH   8  22
ATOM     22  C   UNL     1      -1.097  11.156  19.181  0.00  0.00    +0.000 A 
ATOM     23  C   UNL     1      -1.197  10.250  18.106  0.00  0.00    +0.000 A 
ATOM     24  C   UNL     1      -2.374  10.131  17.359  0.00  0.00    +0.000 A 
ATOM     25  C   UNL     1      -3.473  10.907  17.690  0.00  0.00    +0.000 A 
ATOM     26  F   UNL     1      -4.611  10.765  17.000  0.00  0.00    +0.000 F 
ATOM     27  C   UNL     1      -3.414  11.802  18.746  0.00  0.00    +0.000 A 
ATOM     28  C   UNL     1      -2.231  11.933  19.488  0.00  0.00    +0.000 A 
ENDBRANCH   8  22
TORSDOF 2
ENDMDL
MODEL 9
REMARK VINA RESULT:      -7.2      7.881     10.170
REMARK  Name = 
REMARK  2 active torsions:
REMARK  status: ('A' for Active; 'I' for Inactive)
REMARK    1  A    between atoms: C_8  and  C_9
REMARK    2  A    between atoms: C_16  and  C_17
REMARK                            x       y       z     vdW  Elec       q    Type
REMARK                         _______ _______ _______ _____ _____    ______ ____
ROOT
ATOM      1  C   UNL     1      -0.067  13.045  22.056  0.00  0.00    +0.000 C 
ATOM      2  O   UNL     1      -0.307  13.478  23.186  0.00  0.00    +0.000 OA
ATOM      3  N   UNL     1      -0.257  11.683  21.726  0.00  0.00    +0.000 N 
ATOM      4  C   UNL     1      -0.936  10.836  22.723  0.00  0.00    +0.000 C 
ATOM      5  C   UNL     1      -0.409   9.405  22.829  0.00  0.00    +0.000 C 
ATOM      6  C   UNL     1      -0.092   8.759  21.487  0.00  0.00    +0.000 C 
ATOM      7  C   UNL     1       0.759   9.693  20.643  0.00  0.00    +0.000 C 
ATOM      8  C   UNL     1       0.075  11.050  20.428  0.00  0.00    +0.000 C 
ENDROOT
BRANCH   1  16
ATOM      9  N   UNL     1      -1.707  17.233  18.715  0.00  0.00    +0.000 N 
ATOM     10  C   UNL     1      -0.408  16.907  18.721  0.00  0.00    +0.000 A 
ATOM     11  N   UNL     1       0.496  17.433  17.903  0.00  0.00    +0.000 NA
ATOM     12  N   UNL     1       1.629  16.774  18.211  0.00  0.00    +0.000 N 
ATOM     13  C   UNL     1       1.478  15.806  19.169  0.00  0.00    +0.000 A 
ATOM     14  C   UNL     1       2.356  14.872  19.730  0.00  0.00    +0.000 A 
ATOM     15  C   UNL     1       1.808  13.971  20.667  0.00  0.00    +0.000 A 
ATOM     16  C   UNL     1       0.465  14.044  21.071  0.00  0.00    +0.000 A 
ATOM     17  C   UNL     1      -0.318  15.096  20.593  0.00  0.00    +0.000 A 
ATOM     18  C   UNL     1       0.155  15.919  19.564  0.00  0.00    +0.000 A 
ATOM     19  H   UNL     1      -1.995  18.037  18.172  0.00  0.00    +0.000 HD
ATOM     20  H   UNL     1      -2.325  16.989  19.480  0.00  0.00    +0.000 HD
ATOM     21  H   UNL     1       2.476  17.022  17.710  0.00  0.00    +0.000 HD
ENDBRANCH   1  16
BRANCH   8  22
ATOM     22  C   UNL     1      -1.097  10.980  19.430  0.00  0.00    +0.000 A 
ATOM     23  C   UNL     1      -2.250  11.783  19.533  0.00  0.00    +0.000 A 
ATOM     24  C   UNL     1      -3.240  11.770  18.544  0.00  0.00    +0.000 A 
ATOM     25  C   UNL     1      -3.078  10.964  17.429  0.00  0.00    +0.000 A 
ATOM     26  F   UNL     1      -4.006  10.982  16.464  0.00  0.00    +0.000 F 
ATOM     27  C   UNL     1      -1.953  10.168  17.289  0.00  0.00    +0.000 A 
ATOM     28  C   UNL     1      -0.967  10.169  18.285  0.00  0.00    +0.000 A 
ENDBRANCH   8  22
TORSDOF 2
ENDMDL
