MODEL 1
REMARK VINA RESULT:      -8.3      0.000      0.000
REMARK  Name = 
REMARK  8 active torsions:
REMARK  status: ('A' for Active; 'I' for Inactive)
REMARK    1  A    between atoms: O_1  and  C_2
REMARK    2  A    between atoms: C_2  and  C_3
REMARK    3  A    between atoms: C_7  and  N_8
REMARK    4  A    between atoms: N_8  and  C_9
REMARK    5  A    between atoms: C_9  and  C_10
REMARK    6  A    between atoms: C_15  and  O_16
REMARK    7  A    between atoms: O_16  and  C_17
REMARK    8  A    between atoms: C_17  and  C_18
REMARK                            x       y       z     vdW  Elec       q    Type
REMARK                         _______ _______ _______ _____ _____    ______ ____
ROOT
ATOM      1  N   UNL     1       3.094   6.638  18.134  0.00  0.00    +0.000 N 
ATOM      2  H   UNL     1       2.757   6.220  17.274  0.00  0.00    +0.000 HD
ENDROOT
BRANCH   1   7
ATOM      3  C   UNL     1      -0.034   9.794  21.922  0.00  0.00    +0.000 A 
ATOM      4  N   UNL     1       0.674   8.680  21.908  0.00  0.00    +0.000 NA
ATOM      5  C   UNL     1       1.160   8.565  20.623  0.00  0.00    +0.000 A 
ATOM      6  C   UNL     1       1.977   7.578  20.041  0.00  0.00    +0.000 A 
ATOM      7  C   UNL     1       2.333   7.657  18.680  0.00  0.00    +0.000 A 
ATOM      8  C   UNL     1       1.831   8.731  17.932  0.00  0.00    +0.000 A 
ATOM      9  C   UNL     1       1.051   9.755  18.492  0.00  0.00    +0.000 A 
ATOM     10  C   UNL     1       0.730   9.627  19.838  0.00  0.00    +0.000 A 
ATOM     11  N   UNL     1      -0.012  10.402  20.692  0.00  0.00    +0.000 N 
ATOM     12  H   UNL     1      -0.487  11.266  20.480  0.00  0.00    +0.000 HD
BRANCH   3  13
ATOM     13  C   UNL     1      -0.774  10.384  23.067  0.00  0.00    +0.000 C 
BRANCH  13  14
ATOM     14  O   UNL     1      -0.574  11.798  23.041  0.00  0.00    +0.000 OA
ATOM     15  H   UNL     1      -1.298  12.160  22.500  0.00  0.00    +0.000 HD
ENDBRANCH  13  14
ENDBRANCH   3  13
ENDBRANCH   1   7
BRANCH   1  16
ATOM     16  C   UNL     1       4.223   5.973  18.759  0.00  0.00    +0.000 C 
BRANCH  16  17
ATOM     17  C   UNL     1       5.132   5.318  17.742  0.00  0.00    +0.000 A 
ATOM     18  C   UNL     1       6.499   5.665  17.751  0.00  0.00    +0.000 A 
ATOM     19  C   UNL     1       7.389   5.151  16.809  0.00  0.00    +0.000 A 
ATOM     20  C   UNL     1       6.923   4.304  15.816  0.00  0.00    +0.000 A 
ATOM     21  C   UNL     1       5.577   3.943  15.793  0.00  0.00    +0.000 A 
ATOM     22  C   UNL     1       4.683   4.396  16.778  0.00  0.00    +0.000 A 
BRANCH  22  23
ATOM     23  O   UNL     1       3.368   3.967  16.844  0.00  0.00    +0.000 OA
BRANCH  23  24
ATOM     24  C   UNL     1       3.189   2.734  17.561  0.00  0.00    +0.000 C 
BRANCH  24  25
ATOM     25  C   UNL     1       2.629   2.871  18.958  0.00  0.00    +0.000 A 
ATOM     26  C   UNL     1       3.338   2.517  20.110  0.00  0.00    +0.000 A 
ATOM     27  C   UNL     1       2.742   2.644  21.367  0.00  0.00    +0.000 A 
ATOM     28  C   UNL     1       1.442   3.134  21.485  0.00  0.00    +0.000 A 
ATOM     29  C   UNL     1       0.733   3.514  20.350  0.00  0.00    +0.000 A 
ATOM     30  C   UNL     1       1.325   3.388  19.095  0.00  0.00    +0.000 A 
ENDBRANCH  24  25
ENDBRANCH  23  24
ENDBRANCH  22  23
ENDBRANCH  16  17
ENDBRANCH   1  16
TORSDOF 8
ENDMDL
MODEL 2
REMARK VINA RESULT:      -8.3      1.193      1.551
REMARK  Name = 
REMARK  8 active torsions:
REMARK  status: ('A' for Active; 'I' for Inactive)
REMARK    1  A    between atoms: O_1  and  C_2
REMARK    2  A    between atoms: C_2  and  C_3
REMARK    3  A    between atoms: C_7  and  N_8
REMARK    4  A    between atoms: N_8  and  C_9
REMARK    5  A    between atoms: C_9  and  C_10
REMARK    6  A    between atoms: C_15  and  O_16
REMARK    7  A    between atoms: O_16  and  C_17
REMARK    8  A    between atoms: C_17  and  C_18
REMARK                            x       y       z     vdW  Elec       q    Type
REMARK                         _______ _______ _______ _____ _____    ______ ____
ROOT
ATOM      1  N   UNL     1       3.182   6.927  17.738  0.00  0.00    +0.000 N 
ATOM      2  H   UNL     1       2.828   5.980  17.664  0.00  0.00    +0.000 HD
ENDROOT
BRANCH   1   7
ATOM      3  C   UNL     1       0.076   9.620  21.885  0.00  0.00    +0.000 A 
ATOM      4  N   UNL     1       0.869   8.571  21.765  0.00  0.00    +0.000 NA
ATOM      5  C   UNL     1       1.273   8.561  20.447  0.00  0.00    +0.000 A 
ATOM      6  C   UNL     1       2.125   7.675  19.761  0.00  0.00    +0.000 A 
ATOM      7  C   UNL     1       2.381   7.851  18.386  0.00  0.00    +0.000 A 
ATOM      8  C   UNL     1       1.744   8.915  17.732  0.00  0.00    +0.000 A 
ATOM      9  C   UNL     1       0.925   9.841  18.396  0.00  0.00    +0.000 A 
ATOM     10  C   UNL     1       0.708   9.620  19.751  0.00  0.00    +0.000 A 
ATOM     11  N   UNL     1      -0.035  10.288  20.691  0.00  0.00    +0.000 N 
ATOM     12  H   UNL     1      -0.590  11.119  20.558  0.00  0.00    +0.000 HD
BRANCH   3  13
ATOM     13  C   UNL     1      -0.629  10.089  23.106  0.00  0.00    +0.000 C 
BRANCH  13  14
ATOM     14  O   UNL     1       0.104   9.631  24.243  0.00  0.00    +0.000 OA
ATOM     15  H   UNL     1       0.518   8.793  23.973  0.00  0.00    +0.000 HD
ENDBRANCH  13  14
ENDBRANCH   3  13
ENDBRANCH   1   7
BRANCH   1  16
ATOM     16  C   UNL     1       4.558   7.121  17.319  0.00  0.00    +0.000 C 
BRANCH  16  17
ATOM     17  C   UNL     1       5.121   5.897  16.631  0.00  0.00    +0.000 A 
ATOM     18  C   UNL     1       5.394   5.977  15.248  0.00  0.00    +0.000 A 
ATOM     19  C   UNL     1       5.857   4.876  14.530  0.00  0.00    +0.000 A 
ATOM     20  C   UNL     1       6.025   3.660  15.174  0.00  0.00    +0.000 A 
ATOM     21  C   UNL     1       5.768   3.560  16.540  0.00  0.00    +0.000 A 
ATOM     22  C   UNL     1       5.368   4.678  17.291  0.00  0.00    +0.000 A 
BRANCH  22  23
ATOM     23  O   UNL     1       5.212   4.635  18.665  0.00  0.00    +0.000 OA
BRANCH  23  24
ATOM     24  C   UNL     1       4.749   3.369  19.164  0.00  0.00    +0.000 C 
BRANCH  24  25
ATOM     25  C   UNL     1       3.256   3.261  19.372  0.00  0.00    +0.000 A 
ATOM     26  C   UNL     1       2.427   2.450  18.593  0.00  0.00    +0.000 A 
ATOM     27  C   UNL     1       1.049   2.424  18.826  0.00  0.00    +0.000 A 
ATOM     28  C   UNL     1       0.492   3.199  19.842  0.00  0.00    +0.000 A 
ATOM     29  C   UNL     1       1.308   3.994  20.643  0.00  0.00    +0.000 A 
ATOM     30  C   UNL     1       2.681   4.020  20.412  0.00  0.00    +0.000 A 
ENDBRANCH  24  25
ENDBRANCH  23  24
ENDBRANCH  22  23
ENDBRANCH  16  17
ENDBRANCH   1  16
TORSDOF 8
ENDMDL
MODEL 3
REMARK VINA RESULT:      -8.3      2.004      4.544
REMARK  Name = 
REMARK  8 active torsions:
REMARK  status: ('A' for Active; 'I' for Inactive)
REMARK    1  A    between atoms: O_1  and  C_2
REMARK    2  A    between atoms: C_2  and  C_3
REMARK    3  A    between atoms: C_7  and  N_8
REMARK    4  A    between atoms: N_8  and  C_9
REMARK    5  A    between atoms: C_9  and  C_10
REMARK    6  A    between atoms: C_15  and  O_16
REMARK    7  A    between atoms: O_16  and  C_17
REMARK    8  A    between atoms: C_17  and  C_18
REMARK                            x       y       z     vdW  Elec       q    Type
REMARK                         _______ _______ _______ _____ _____    ______ ____
ROOT
ATOM      1  N   UNL     1       2.916   6.170  20.386  0.00  0.00    +0.000 N 
ATOM      2  H   UNL     1       3.926   6.084  20.428  0.00  0.00    +0.000 HD
ENDROOT
BRANCH   1   7
ATOM      3  C   UNL     1      -0.114  10.966  19.000  0.00  0.00    +0.000 A 
ATOM      4  N   UNL     1       0.122  10.215  20.060  0.00  0.00    +0.000 NA
ATOM      5  C   UNL     1       0.980   9.225  19.630  0.00  0.00    +0.000 A 
ATOM      6  C   UNL     1       1.564   8.154  20.333  0.00  0.00    +0.000 A 
ATOM      7  C   UNL     1       2.404   7.238  19.670  0.00  0.00    +0.000 A 
ATOM      8  C   UNL     1       2.616   7.419  18.296  0.00  0.00    +0.000 A 
ATOM      9  C   UNL     1       2.084   8.500  17.575  0.00  0.00    +0.000 A 
ATOM     10  C   UNL     1       1.263   9.373  18.279  0.00  0.00    +0.000 A 
ATOM     11  N   UNL     1       0.570  10.497  17.907  0.00  0.00    +0.000 N 
ATOM     12  H   UNL     1       0.534  10.921  16.994  0.00  0.00    +0.000 HD
BRANCH   3  13
ATOM     13  C   UNL     1      -0.977  12.172  18.918  0.00  0.00    +0.000 C 
BRANCH  13  14
ATOM     14  O   UNL     1      -0.489  12.993  17.856  0.00  0.00    +0.000 OA
ATOM     15  H   UNL     1      -0.401  12.407  17.084  0.00  0.00    +0.000 HD
ENDBRANCH  13  14
ENDBRANCH   3  13
ENDBRANCH   1   7
BRANCH   1  16
ATOM     16  C   UNL     1       2.164   5.052  20.924  0.00  0.00    +0.000 C 
BRANCH  16  17
ATOM     17  C   UNL     1       2.074   3.902  19.945  0.00  0.00    +0.000 A 
ATOM     18  C   UNL     1       0.810   3.315  19.722  0.00  0.00    +0.000 A 
ATOM     19  C   UNL     1       0.654   2.215  18.881  0.00  0.00    +0.000 A 
ATOM     20  C   UNL     1       1.766   1.656  18.271  0.00  0.00    +0.000 A 
ATOM     21  C   UNL     1       3.023   2.224  18.472  0.00  0.00    +0.000 A 
ATOM     22  C   UNL     1       3.185   3.375  19.260  0.00  0.00    +0.000 A 
BRANCH  22  23
ATOM     23  O   UNL     1       4.400   4.025  19.389  0.00  0.00    +0.000 OA
BRANCH  23  24
ATOM     24  C   UNL     1       5.089   4.234  18.144  0.00  0.00    +0.000 C 
BRANCH  24  25
ATOM     25  C   UNL     1       6.121   5.337  18.151  0.00  0.00    +0.000 A 
ATOM     26  C   UNL     1       7.208   5.369  19.027  0.00  0.00    +0.000 A 
ATOM     27  C   UNL     1       8.106   6.439  18.995  0.00  0.00    +0.000 A 
ATOM     28  C   UNL     1       7.931   7.478  18.082  0.00  0.00    +0.000 A 
ATOM     29  C   UNL     1       6.866   7.449  17.186  0.00  0.00    +0.000 A 
ATOM     30  C   UNL     1       5.971   6.383  17.217  0.00  0.00    +0.000 A 
ENDBRANCH  24  25
ENDBRANCH  23  24
ENDBRANCH  22  23
ENDBRANCH  16  17
ENDBRANCH   1  16
TORSDOF 8
ENDMDL
MODEL 4
REMARK VINA RESULT:      -8.2      0.497      1.049
REMARK  Name = 
REMARK  8 active torsions:
REMARK  status: ('A' for Active; 'I' for Inactive)
REMARK    1  A    between atoms: O_1  and  C_2
REMARK    2  A    between atoms: C_2  and  C_3
REMARK    3  A    between atoms: C_7  and  N_8
REMARK    4  A    between atoms: N_8  and  C_9
REMARK    5  A    between atoms: C_9  and  C_10
REMARK    6  A    between atoms: C_15  and  O_16
REMARK    7  A    between atoms: O_16  and  C_17
REMARK    8  A    between atoms: C_17  and  C_18
REMARK                            x       y       z     vdW  Elec       q    Type
REMARK                         _______ _______ _______ _____ _____    ______ ____
ROOT
ATOM      1  N   UNL     1       3.032   6.284  18.341  0.00  0.00    +0.000 N 
ATOM      2  H   UNL     1       2.500   5.627  17.781  0.00  0.00    +0.000 HD
ENDROOT
BRANCH   1   7
ATOM      3  C   UNL     1       0.133  10.227  21.526  0.00  0.00    +0.000 A 
ATOM      4  N   UNL     1       0.667   9.029  21.679  0.00  0.00    +0.000 NA
ATOM      5  C   UNL     1       1.225   8.713  20.458  0.00  0.00    +0.000 A 
ATOM      6  C   UNL     1       1.927   7.565  20.046  0.00  0.00    +0.000 A 
ATOM      7  C   UNL     1       2.392   7.451  18.720  0.00  0.00    +0.000 A 
ATOM      8  C   UNL     1       2.112   8.501  17.834  0.00  0.00    +0.000 A 
ATOM      9  C   UNL     1       1.453   9.677  18.225  0.00  0.00    +0.000 A 
ATOM     10  C   UNL     1       1.017   9.737  19.544  0.00  0.00    +0.000 A 
ATOM     11  N   UNL     1       0.336  10.693  20.252  0.00  0.00    +0.000 N 
ATOM     12  H   UNL     1       0.012  11.589  19.920  0.00  0.00    +0.000 HD
BRANCH   3  13
ATOM     13  C   UNL     1      -0.595  11.031  22.541  0.00  0.00    +0.000 C 
BRANCH  13  14
ATOM     14  O   UNL     1      -1.246  10.128  23.436  0.00  0.00    +0.000 OA
ATOM     15  H   UNL     1      -0.630   9.386  23.563  0.00  0.00    +0.000 HD
ENDBRANCH  13  14
ENDBRANCH   3  13
ENDBRANCH   1   7
BRANCH   1  16
ATOM     16  C   UNL     1       4.319   5.811  18.817  0.00  0.00    +0.000 C 
BRANCH  16  17
ATOM     17  C   UNL     1       5.179   5.273  17.694  0.00  0.00    +0.000 A 
ATOM     18  C   UNL     1       6.506   5.741  17.589  0.00  0.00    +0.000 A 
ATOM     19  C   UNL     1       7.342   5.339  16.548  0.00  0.00    +0.000 A 
ATOM     20  C   UNL     1       6.855   4.487  15.569  0.00  0.00    +0.000 A 
ATOM     21  C   UNL     1       5.549   4.008  15.657  0.00  0.00    +0.000 A 
ATOM     22  C   UNL     1       4.719   4.348  16.738  0.00  0.00    +0.000 A 
BRANCH  22  23
ATOM     23  O   UNL     1       3.459   3.801  16.910  0.00  0.00    +0.000 OA
BRANCH  23  24
ATOM     24  C   UNL     1       3.438   2.620  17.730  0.00  0.00    +0.000 C 
BRANCH  24  25
ATOM     25  C   UNL     1       2.662   2.741  19.021  0.00  0.00    +0.000 A 
ATOM     26  C   UNL     1       1.301   3.055  19.074  0.00  0.00    +0.000 A 
ATOM     27  C   UNL     1       0.657   3.178  20.308  0.00  0.00    +0.000 A 
ATOM     28  C   UNL     1       1.363   2.981  21.495  0.00  0.00    +0.000 A 
ATOM     29  C   UNL     1       2.713   2.644  21.457  0.00  0.00    +0.000 A 
ATOM     30  C   UNL     1       3.356   2.520  20.227  0.00  0.00    +0.000 A 
ENDBRANCH  24  25
ENDBRANCH  23  24
ENDBRANCH  22  23
ENDBRANCH  16  17
ENDBRANCH   1  16
TORSDOF 8
ENDMDL
MODEL 5
REMARK VINA RESULT:      -8.2      1.817      4.338
REMARK  Name = 
REMARK  8 active torsions:
REMARK  status: ('A' for Active; 'I' for Inactive)
REMARK    1  A    between atoms: O_1  and  C_2
REMARK    2  A    between atoms: C_2  and  C_3
REMARK    3  A    between atoms: C_7  and  N_8
REMARK    4  A    between atoms: N_8  and  C_9
REMARK    5  A    between atoms: C_9  and  C_10
REMARK    6  A    between atoms: C_15  and  O_16
REMARK    7  A    between atoms: O_16  and  C_17
REMARK    8  A    between atoms: C_17  and  C_18
REMARK                            x       y       z     vdW  Elec       q    Type
REMARK                         _______ _______ _______ _____ _____    ______ ____
ROOT
ATOM      1  N   UNL     1       2.551   6.613  20.385  0.00  0.00    +0.000 N 
ATOM      2  H   UNL     1       3.560   6.509  20.409  0.00  0.00    +0.000 HD
ENDROOT
BRANCH   1   7
ATOM      3  C   UNL     1      -0.465  11.493  19.299  0.00  0.00    +0.000 A 
ATOM      4  N   UNL     1      -0.241  10.671  20.307  0.00  0.00    +0.000 NA
ATOM      5  C   UNL     1       0.622   9.713  19.819  0.00  0.00    +0.000 A 
ATOM      6  C   UNL     1       1.199   8.597  20.454  0.00  0.00    +0.000 A 
ATOM      7  C   UNL     1       2.048   7.728  19.739  0.00  0.00    +0.000 A 
ATOM      8  C   UNL     1       2.275   8.003  18.383  0.00  0.00    +0.000 A 
ATOM      9  C   UNL     1       1.751   9.131  17.732  0.00  0.00    +0.000 A 
ATOM     10  C   UNL     1       0.921   9.954  18.485  0.00  0.00    +0.000 A 
ATOM     11  N   UNL     1       0.231  11.100  18.184  0.00  0.00    +0.000 N 
ATOM     12  H   UNL     1       0.206  11.587  17.301  0.00  0.00    +0.000 HD
BRANCH   3  13
ATOM     13  C   UNL     1      -1.328  12.703  19.289  0.00  0.00    +0.000 C 
BRANCH  13  14
ATOM     14  O   UNL     1      -2.667  12.288  19.019  0.00  0.00    +0.000 OA
ATOM     15  H   UNL     1      -3.168  12.454  19.836  0.00  0.00    +0.000 HD
ENDBRANCH  13  14
ENDBRANCH   3  13
ENDBRANCH   1   7
BRANCH   1  16
ATOM     16  C   UNL     1       1.789   5.477  20.870  0.00  0.00    +0.000 C 
BRANCH  16  17
ATOM     17  C   UNL     1       1.933   4.270  19.970  0.00  0.00    +0.000 A 
ATOM     18  C   UNL     1       0.767   3.553  19.626  0.00  0.00    +0.000 A 
ATOM     19  C   UNL     1       0.822   2.396  18.850  0.00  0.00    +0.000 A 
ATOM     20  C   UNL     1       2.052   1.911  18.432  0.00  0.00    +0.000 A 
ATOM     21  C   UNL     1       3.215   2.606  18.755  0.00  0.00    +0.000 A 
ATOM     22  C   UNL     1       3.168   3.812  19.475  0.00  0.00    +0.000 A 
BRANCH  22  23
ATOM     23  O   UNL     1       4.294   4.580  19.715  0.00  0.00    +0.000 OA
BRANCH  23  24
ATOM     24  C   UNL     1       5.435   4.214  18.920  0.00  0.00    +0.000 C 
BRANCH  24  25
ATOM     25  C   UNL     1       5.423   4.722  17.497  0.00  0.00    +0.000 A 
ATOM     26  C   UNL     1       5.710   3.917  16.391  0.00  0.00    +0.000 A 
ATOM     27  C   UNL     1       5.708   4.465  15.105  0.00  0.00    +0.000 A 
ATOM     28  C   UNL     1       5.412   5.813  14.914  0.00  0.00    +0.000 A 
ATOM     29  C   UNL     1       5.101   6.622  16.003  0.00  0.00    +0.000 A 
ATOM     30  C   UNL     1       5.102   6.078  17.285  0.00  0.00    +0.000 A 
ENDBRANCH  24  25
ENDBRANCH  23  24
ENDBRANCH  22  23
ENDBRANCH  16  17
ENDBRANCH   1  16
TORSDOF 8
ENDMDL
MODEL 6
REMARK VINA RESULT:      -8.2      1.931      4.636
REMARK  Name = 
REMARK  8 active torsions:
REMARK  status: ('A' for Active; 'I' for Inactive)
REMARK    1  A    between atoms: O_1  and  C_2
REMARK    2  A    between atoms: C_2  and  C_3
REMARK    3  A    between atoms: C_7  and  N_8
REMARK    4  A    between atoms: N_8  and  C_9
REMARK    5  A    between atoms: C_9  and  C_10
REMARK    6  A    between atoms: C_15  and  O_16
REMARK    7  A    between atoms: O_16  and  C_17
REMARK    8  A    between atoms: C_17  and  C_18
REMARK                            x       y       z     vdW  Elec       q    Type
REMARK                         _______ _______ _______ _____ _____    ______ ____
ROOT
ATOM      1  N   UNL     1       2.694   6.383  20.413  0.00  0.00    +0.000 N 
ATOM      2  H   UNL     1       3.700   6.293  20.510  0.00  0.00    +0.000 HD
ENDROOT
BRANCH   1   7
ATOM      3  C   UNL     1      -0.105  11.340  19.113  0.00  0.00    +0.000 A 
ATOM      4  N   UNL     1       0.114  10.572  20.164  0.00  0.00    +0.000 NA
ATOM      5  C   UNL     1       0.908   9.540  19.711  0.00  0.00    +0.000 A 
ATOM      6  C   UNL     1       1.449   8.437  20.398  0.00  0.00    +0.000 A 
ATOM      7  C   UNL     1       2.225   7.480  19.712  0.00  0.00    +0.000 A 
ATOM      8  C   UNL     1       2.416   7.656  18.335  0.00  0.00    +0.000 A 
ATOM      9  C   UNL     1       1.927   8.768  17.630  0.00  0.00    +0.000 A 
ATOM     10  C   UNL     1       1.169   9.680  18.355  0.00  0.00    +0.000 A 
ATOM     11  N   UNL     1       0.528  10.840  18.003  0.00  0.00    +0.000 N 
ATOM     12  H   UNL     1       0.496  11.270  17.092  0.00  0.00    +0.000 HD
BRANCH   3  13
ATOM     13  C   UNL     1      -0.904  12.591  19.054  0.00  0.00    +0.000 C 
BRANCH  13  14
ATOM     14  O   UNL     1      -2.206  12.261  18.568  0.00  0.00    +0.000 OA
ATOM     15  H   UNL     1      -2.088  12.016  17.634  0.00  0.00    +0.000 HD
ENDBRANCH  13  14
ENDBRANCH   3  13
ENDBRANCH   1   7
BRANCH   1  16
ATOM     16  C   UNL     1       1.913   5.246  20.862  0.00  0.00    +0.000 C 
BRANCH  16  17
ATOM     17  C   UNL     1       1.948   4.103  19.870  0.00  0.00    +0.000 A 
ATOM     18  C   UNL     1       0.763   3.367  19.660  0.00  0.00    +0.000 A 
ATOM     19  C   UNL     1       0.730   2.264  18.808  0.00  0.00    +0.000 A 
ATOM     20  C   UNL     1       1.892   1.853  18.174  0.00  0.00    +0.000 A 
ATOM     21  C   UNL     1       3.072   2.570  18.363  0.00  0.00    +0.000 A 
ATOM     22  C   UNL     1       3.104   3.725  19.162  0.00  0.00    +0.000 A 
BRANCH  22  23
ATOM     23  O   UNL     1       4.232   4.518  19.279  0.00  0.00    +0.000 OA
BRANCH  23  24
ATOM     24  C   UNL     1       4.940   4.719  18.043  0.00  0.00    +0.000 C 
BRANCH  24  25
ATOM     25  C   UNL     1       6.036   5.759  18.085  0.00  0.00    +0.000 A 
ATOM     26  C   UNL     1       6.050   6.895  17.272  0.00  0.00    +0.000 A 
ATOM     27  C   UNL     1       7.114   7.798  17.346  0.00  0.00    +0.000 A 
ATOM     28  C   UNL     1       8.164   7.579  18.236  0.00  0.00    +0.000 A 
ATOM     29  C   UNL     1       8.152   6.464  19.070  0.00  0.00    +0.000 A 
ATOM     30  C   UNL     1       7.092   5.564  18.998  0.00  0.00    +0.000 A 
ENDBRANCH  24  25
ENDBRANCH  23  24
ENDBRANCH  22  23
ENDBRANCH  16  17
ENDBRANCH   1  16
TORSDOF 8
ENDMDL
MODEL 7
REMARK VINA RESULT:      -8.0      1.790      2.483
REMARK  Name = 
REMARK  8 active torsions:
REMARK  status: ('A' for Active; 'I' for Inactive)
REMARK    1  A    between atoms: O_1  and  C_2
REMARK    2  A    between atoms: C_2  and  C_3
REMARK    3  A    between atoms: C_7  and  N_8
REMARK    4  A    between atoms: N_8  and  C_9
REMARK    5  A    between atoms: C_9  and  C_10
REMARK    6  A    between atoms: C_15  and  O_16
REMARK    7  A    between atoms: O_16  and  C_17
REMARK    8  A    between atoms: C_17  and  C_18
REMARK                            x       y       z     vdW  Elec       q    Type
REMARK                         _______ _______ _______ _____ _____    ______ ____
ROOT
ATOM      1  N   UNL     1       3.249   6.664  18.939  0.00  0.00    +0.000 N 
ATOM      2  H   UNL     1       4.095   6.584  19.492  0.00  0.00    +0.000 HD
ENDROOT
BRANCH   1   7
ATOM      3  C   UNL     1      -0.331  11.274  19.114  0.00  0.00    +0.000 A 
ATOM      4  N   UNL     1       0.515  10.707  18.273  0.00  0.00    +0.000 NA
ATOM      5  C   UNL     1       1.001   9.596  18.928  0.00  0.00    +0.000 A 
ATOM      6  C   UNL     1       1.926   8.622  18.508  0.00  0.00    +0.000 A 
ATOM      7  C   UNL     1       2.297   7.571  19.370  0.00  0.00    +0.000 A 
ATOM      8  C   UNL     1       1.733   7.546  20.654  0.00  0.00    +0.000 A 
ATOM      9  C   UNL     1       0.776   8.477  21.087  0.00  0.00    +0.000 A 
ATOM     10  C   UNL     1       0.446   9.491  20.196  0.00  0.00    +0.000 A 
ATOM     11  N   UNL     1      -0.409  10.560  20.283  0.00  0.00    +0.000 N 
ATOM     12  H   UNL     1      -0.996  10.814  21.062  0.00  0.00    +0.000 HD
BRANCH   3  13
ATOM     13  C   UNL     1      -1.132  12.507  18.901  0.00  0.00    +0.000 C 
BRANCH  13  14
ATOM     14  O   UNL     1      -1.023  12.873  17.525  0.00  0.00    +0.000 OA
ATOM     15  H   UNL     1      -0.169  13.329  17.438  0.00  0.00    +0.000 HD
ENDBRANCH  13  14
ENDBRANCH   3  13
ENDBRANCH   1   7
BRANCH   1  16
ATOM     16  C   UNL     1       3.252   5.952  17.674  0.00  0.00    +0.000 C 
BRANCH  16  17
ATOM     17  C   UNL     1       4.650   5.563  17.243  0.00  0.00    +0.000 A 
ATOM     18  C   UNL     1       5.057   5.890  15.933  0.00  0.00    +0.000 A 
ATOM     19  C   UNL     1       6.307   5.514  15.441  0.00  0.00    +0.000 A 
ATOM     20  C   UNL     1       7.162   4.772  16.240  0.00  0.00    +0.000 A 
ATOM     21  C   UNL     1       6.782   4.443  17.540  0.00  0.00    +0.000 A 
ATOM     22  C   UNL     1       5.556   4.876  18.073  0.00  0.00    +0.000 A 
BRANCH  22  23
ATOM     23  O   UNL     1       5.200   4.660  19.393  0.00  0.00    +0.000 OA
BRANCH  23  24
ATOM     24  C   UNL     1       4.767   3.317  19.672  0.00  0.00    +0.000 C 
BRANCH  24  25
ATOM     25  C   UNL     1       3.272   3.098  19.642  0.00  0.00    +0.000 A 
ATOM     26  C   UNL     1       2.620   2.380  18.636  0.00  0.00    +0.000 A 
ATOM     27  C   UNL     1       1.230   2.244  18.659  0.00  0.00    +0.000 A 
ATOM     28  C   UNL     1       0.483   2.814  19.689  0.00  0.00    +0.000 A 
ATOM     29  C   UNL     1       1.120   3.512  20.711  0.00  0.00    +0.000 A 
ATOM     30  C   UNL     1       2.506   3.648  20.689  0.00  0.00    +0.000 A 
ENDBRANCH  24  25
ENDBRANCH  23  24
ENDBRANCH  22  23
ENDBRANCH  16  17
ENDBRANCH   1  16
TORSDOF 8
ENDMDL
MODEL 8
REMARK VINA RESULT:      -8.0      1.711      2.327
REMARK  Name = 
REMARK  8 active torsions:
REMARK  status: ('A' for Active; 'I' for Inactive)
REMARK    1  A    between atoms: O_1  and  C_2
REMARK    2  A    between atoms: C_2  and  C_3
REMARK    3  A    between atoms: C_7  and  N_8
REMARK    4  A    between atoms: N_8  and  C_9
REMARK    5  A    between atoms: C_9  and  C_10
REMARK    6  A    between atoms: C_15  and  O_16
REMARK    7  A    between atoms: O_16  and  C_17
REMARK    8  A    between atoms: C_17  and  C_18
REMARK                            x       y       z     vdW  Elec       q    Type
REMARK                         _______ _______ _______ _____ _____    ______ ____
ROOT
ATOM      1  N   UNL     1       3.088   6.876  18.044  0.00  0.00    +0.000 N 
ATOM      2  H   UNL     1       2.871   5.885  18.057  0.00  0.00    +0.000 HD
ENDROOT
BRANCH   1   7
ATOM      3  C   UNL     1      -0.333  11.366  19.540  0.00  0.00    +0.000 A 
ATOM      4  N   UNL     1       0.295  10.911  18.471  0.00  0.00    +0.000 NA
ATOM      5  C   UNL     1       0.912   9.746  18.871  0.00  0.00    +0.000 A 
ATOM      6  C   UNL     1       1.712   8.842  18.146  0.00  0.00    +0.000 A 
ATOM      7  C   UNL     1       2.265   7.711  18.779  0.00  0.00    +0.000 A 
ATOM      8  C   UNL     1       2.010   7.535  20.147  0.00  0.00    +0.000 A 
ATOM      9  C   UNL     1       1.181   8.393  20.887  0.00  0.00    +0.000 A 
ATOM     10  C   UNL     1       0.662   9.492  20.212  0.00  0.00    +0.000 A 
ATOM     11  N   UNL     1      -0.145  10.527  20.610  0.00  0.00    +0.000 N 
ATOM     12  H   UNL     1      -0.537  10.683  21.526  0.00  0.00    +0.000 HD
BRANCH   3  13
ATOM     13  C   UNL     1      -1.155  12.598  19.654  0.00  0.00    +0.000 C 
BRANCH  13  14
ATOM     14  O   UNL     1      -1.074  13.299  18.413  0.00  0.00    +0.000 OA
ATOM     15  H   UNL     1      -0.950  12.618  17.729  0.00  0.00    +0.000 HD
ENDBRANCH  13  14
ENDBRANCH   3  13
ENDBRANCH   1   7
BRANCH   1  16
ATOM     16  C   UNL     1       4.341   7.239  17.409  0.00  0.00    +0.000 C 
BRANCH  16  17
ATOM     17  C   UNL     1       4.997   6.059  16.727  0.00  0.00    +0.000 A 
ATOM     18  C   UNL     1       5.238   6.141  15.339  0.00  0.00    +0.000 A 
ATOM     19  C   UNL     1       5.784   5.074  14.628  0.00  0.00    +0.000 A 
ATOM     20  C   UNL     1       6.068   3.887  15.285  0.00  0.00    +0.000 A 
ATOM     21  C   UNL     1       5.844   3.786  16.657  0.00  0.00    +0.000 A 
ATOM     22  C   UNL     1       5.361   4.877  17.399  0.00  0.00    +0.000 A 
BRANCH  22  23
ATOM     23  O   UNL     1       5.233   4.842  18.777  0.00  0.00    +0.000 OA
BRANCH  23  24
ATOM     24  C   UNL     1       4.795   3.573  19.294  0.00  0.00    +0.000 C 
BRANCH  24  25
ATOM     25  C   UNL     1       3.302   3.428  19.475  0.00  0.00    +0.000 A 
ATOM     26  C   UNL     1       2.590   4.032  20.515  0.00  0.00    +0.000 A 
ATOM     27  C   UNL     1       1.213   3.827  20.635  0.00  0.00    +0.000 A 
ATOM     28  C   UNL     1       0.536   3.028  19.715  0.00  0.00    +0.000 A 
ATOM     29  C   UNL     1       1.227   2.439  18.660  0.00  0.00    +0.000 A 
ATOM     30  C   UNL     1       2.600   2.642  18.538  0.00  0.00    +0.000 A 
ENDBRANCH  24  25
ENDBRANCH  23  24
ENDBRANCH  22  23
ENDBRANCH  16  17
ENDBRANCH   1  16
TORSDOF 8
ENDMDL
MODEL 9
REMARK VINA RESULT:      -8.0      1.290      4.352
REMARK  Name = 
REMARK  8 active torsions:
REMARK  status: ('A' for Active; 'I' for Inactive)
REMARK    1  A    between atoms: O_1  and  C_2
REMARK    2  A    between atoms: C_2  and  C_3
REMARK    3  A    between atoms: C_7  and  N_8
REMARK    4  A    between atoms: N_8  and  C_9
REMARK    5  A    between atoms: C_9  and  C_10
REMARK    6  A    between atoms: C_15  and  O_16
REMARK    7  A    between atoms: O_16  and  C_17
REMARK    8  A    between atoms: C_17  and  C_18
REMARK                            x       y       z     vdW  Elec       q    Type
REMARK                         _______ _______ _______ _____ _____    ______ ____
ROOT
ATOM      1  N   UNL     1       2.793   6.444  18.262  0.00  0.00    +0.000 N 
ATOM      2  H   UNL     1       3.779   6.444  18.024  0.00  0.00    +0.000 HD
ENDROOT
BRANCH   1   7
ATOM      3  C   UNL     1       0.121  10.587  21.391  0.00  0.00    +0.000 A 
ATOM      4  N   UNL     1       0.560   9.352  21.552  0.00  0.00    +0.000 NA
ATOM      5  C   UNL     1       1.122   8.998  20.344  0.00  0.00    +0.000 A 
ATOM      6  C   UNL     1       1.746   7.802  19.944  0.00  0.00    +0.000 A 
ATOM      7  C   UNL     1       2.233   7.655  18.629  0.00  0.00    +0.000 A 
ATOM      8  C   UNL     1       2.054   8.724  17.741  0.00  0.00    +0.000 A 
ATOM      9  C   UNL     1       1.475   9.946  18.120  0.00  0.00    +0.000 A 
ATOM     10  C   UNL     1       1.013  10.036  19.428  0.00  0.00    +0.000 A 
ATOM     11  N   UNL     1       0.389  11.040  20.124  0.00  0.00    +0.000 N 
ATOM     12  H   UNL     1       0.141  11.957  19.787  0.00  0.00    +0.000 HD
BRANCH   3  13
ATOM     13  C   UNL     1      -0.569  11.442  22.391  0.00  0.00    +0.000 C 
BRANCH  13  14
ATOM     14  O   UNL     1      -0.077  12.775  22.248  0.00  0.00    +0.000 OA
ATOM     15  H   UNL     1      -0.812  13.292  21.875  0.00  0.00    +0.000 HD
ENDBRANCH  13  14
ENDBRANCH   3  13
ENDBRANCH   1   7
BRANCH   1  16
ATOM     16  C   UNL     1       2.080   5.208  17.996  0.00  0.00    +0.000 C 
BRANCH  16  17
ATOM     17  C   UNL     1       2.223   4.214  19.127  0.00  0.00    +0.000 A 
ATOM     18  C   UNL     1       1.116   4.011  19.979  0.00  0.00    +0.000 A 
ATOM     19  C   UNL     1       1.188   3.157  21.078  0.00  0.00    +0.000 A 
ATOM     20  C   UNL     1       2.380   2.513  21.369  0.00  0.00    +0.000 A 
ATOM     21  C   UNL     1       3.484   2.693  20.536  0.00  0.00    +0.000 A 
ATOM     22  C   UNL     1       3.405   3.495  19.385  0.00  0.00    +0.000 A 
BRANCH  22  23
ATOM     23  O   UNL     1       4.448   3.606  18.482  0.00  0.00    +0.000 OA
BRANCH  23  24
ATOM     24  C   UNL     1       5.700   3.995  19.075  0.00  0.00    +0.000 C 
BRANCH  24  25
ATOM     25  C   UNL     1       6.321   5.251  18.512  0.00  0.00    +0.000 A 
ATOM     26  C   UNL     1       5.826   5.918  17.388  0.00  0.00    +0.000 A 
ATOM     27  C   UNL     1       6.472   7.060  16.907  0.00  0.00    +0.000 A 
ATOM     28  C   UNL     1       7.609   7.549  17.548  0.00  0.00    +0.000 A 
ATOM     29  C   UNL     1       8.101   6.910  18.683  0.00  0.00    +0.000 A 
ATOM     30  C   UNL     1       7.457   5.772  19.164  0.00  0.00    +0.000 A 
ENDBRANCH  24  25
ENDBRANCH  23  24
ENDBRANCH  22  23
ENDBRANCH  16  17
ENDBRANCH   1  16
TORSDOF 8
ENDMDL
