MODEL 1
REMARK VINA RESULT:      -8.1      0.000      0.000
REMARK  Name = 
REMARK  7 active torsions:
REMARK  status: ('A' for Active; 'I' for Inactive)
REMARK    1  A    between atoms: C_1  and  S_2
REMARK    2  A    between atoms: S_2  and  N_5
REMARK    3  A    between atoms: N_5  and  C_6
REMARK    4  A    between atoms: N_5  and  C_20
REMARK    5  A    between atoms: C_6  and  C_7
REMARK    6  A    between atoms: C_13  and  C_14
REMARK    7  A    between atoms: C_24  and  C_26
REMARK                            x       y       z     vdW  Elec       q    Type
REMARK                         _______ _______ _______ _____ _____    ______ ____
ROOT
ATOM      1  N   UNL     1      -0.004  12.384  20.135  0.00  0.00    +0.000 NA
ENDROOT
BRANCH   1   2
ATOM      2  C   UNL     1      -0.120  12.391  21.657  0.00  0.00    +0.000 C 
ATOM      3  C   UNL     1      -1.308  11.598  22.223  0.00  0.00    +0.000 C 
ATOM      4  C   UNL     1      -2.657  12.215  21.923  0.00  0.00    +0.000 C 
ATOM      5  N   UNL     1      -2.758  13.618  22.278  0.00  0.00    +0.000 N 
ATOM      6  C   UNL     1      -3.971  14.260  22.596  0.00  0.00    +0.000 C 
ATOM      7  O   UNL     1      -4.030  15.455  22.882  0.00  0.00    +0.000 OA
ATOM      8  C   UNL     1      -1.610  14.452  21.917  0.00  0.00    +0.000 C 
ATOM      9  C   UNL     1      -0.268  13.795  22.261  0.00  0.00    +0.000 C 
BRANCH   6  10
ATOM     10  C   UNL     1      -5.251  13.487  22.624  0.00  0.00    +0.000 A 
ATOM     11  C   UNL     1      -5.886  13.141  23.827  0.00  0.00    +0.000 A 
ATOM     12  C   UNL     1      -7.127  12.504  23.823  0.00  0.00    +0.000 A 
ATOM     13  C   UNL     1      -7.697  12.115  22.615  0.00  0.00    +0.000 A 
ATOM     14  C   UNL     1      -7.018  12.360  21.420  0.00  0.00    +0.000 A 
ATOM     15 CL   UNL     1      -7.694  11.797  19.940  0.00  0.00    +0.000 Cl
ATOM     16  C   UNL     1      -5.804  13.051  21.416  0.00  0.00    +0.000 A 
ENDBRANCH   6  10
ENDBRANCH   1   2
BRANCH   1  18
ATOM     17  C   UNL     1       0.900  14.843  19.180  0.00  0.00    +0.000 C 
ATOM     18  S   UNL     1       1.385  13.147  19.448  0.00  0.00    +0.000 S 
ATOM     19  O   UNL     1       1.589  12.627  18.109  0.00  0.00    +0.000 OA
ATOM     20  O   UNL     1       2.437  13.127  20.430  0.00  0.00    +0.000 OA
ENDBRANCH   1  18
BRANCH   1  21
ATOM     21  C   UNL     1      -0.299  11.065  19.469  0.00  0.00    +0.000 C 
BRANCH  21  22
ATOM     22  C   UNL     1       0.634   9.884  19.692  0.00  0.00    +0.000 A 
ATOM     23  C   UNL     1       0.637   9.158  20.889  0.00  0.00    +0.000 A 
ATOM     24  C   UNL     1       1.304   7.935  20.999  0.00  0.00    +0.000 A 
ATOM     25  C   UNL     1       2.034   7.424  19.925  0.00  0.00    +0.000 A 
ATOM     26  C   UNL     1       2.637   6.161  19.998  0.00  0.00    +0.000 A 
ATOM     27  C   UNL     1       3.455   5.707  18.963  0.00  0.00    +0.000 A 
ATOM     28  C   UNL     1       3.684   6.523  17.853  0.00  0.00    +0.000 A 
ATOM     29  C   UNL     1       3.013   7.747  17.734  0.00  0.00    +0.000 A 
ATOM     30  C   UNL     1       2.164   8.200  18.757  0.00  0.00    +0.000 A 
ATOM     31  C   UNL     1       1.438   9.401  18.645  0.00  0.00    +0.000 A 
BRANCH  28  32
ATOM     32  C   UNL     1       4.706   6.144  16.840  0.00  0.00    +0.000 C 
ATOM     33  N   UNL     1       5.603   6.964  16.396  0.00  0.00    +0.000 NA
ATOM     34  N   UNL     1       4.696   4.891  16.302  0.00  0.00    +0.000 N 
ATOM     35  H   UNL     1       5.556   7.867  16.872  0.00  0.00    +0.000 HD
ATOM     36  H   UNL     1       3.787   4.454  16.204  0.00  0.00    +0.000 HD
ATOM     37  H   UNL     1       5.240   4.858  15.446  0.00  0.00    +0.000 HD
ENDBRANCH  28  32
ENDBRANCH  21  22
ENDBRANCH   1  21
TORSDOF 6
ENDMDL
MODEL 2
REMARK VINA RESULT:      -8.0      5.371     11.015
REMARK  Name = 
REMARK  7 active torsions:
REMARK  status: ('A' for Active; 'I' for Inactive)
REMARK    1  A    between atoms: C_1  and  S_2
REMARK    2  A    between atoms: S_2  and  N_5
REMARK    3  A    between atoms: N_5  and  C_6
REMARK    4  A    between atoms: N_5  and  C_20
REMARK    5  A    between atoms: C_6  and  C_7
REMARK    6  A    between atoms: C_13  and  C_14
REMARK    7  A    between atoms: C_24  and  C_26
REMARK                            x       y       z     vdW  Elec       q    Type
REMARK                         _______ _______ _______ _____ _____    ______ ____
ROOT
ATOM      1  N   UNL     1       2.939   4.515  18.622  0.00  0.00    +0.000 NA
ENDROOT
BRANCH   1   2
ATOM      2  C   UNL     1       4.317   3.881  18.788  0.00  0.00    +0.000 C 
ATOM      3  C   UNL     1       5.320   4.708  19.606  0.00  0.00    +0.000 C 
ATOM      4  C   UNL     1       5.773   5.979  18.920  0.00  0.00    +0.000 C 
ATOM      5  N   UNL     1       6.253   5.780  17.565  0.00  0.00    +0.000 N 
ATOM      6  C   UNL     1       7.178   6.631  16.930  0.00  0.00    +0.000 C 
ATOM      7  O   UNL     1       7.559   6.447  15.775  0.00  0.00    +0.000 OA
ATOM      8  C   UNL     1       5.451   4.885  16.729  0.00  0.00    +0.000 C 
ATOM      9  C   UNL     1       5.036   3.603  17.459  0.00  0.00    +0.000 C 
BRANCH   6  10
ATOM     10  C   UNL     1       7.761   7.798  17.664  0.00  0.00    +0.000 A 
ATOM     11  C   UNL     1       8.508   7.639  18.841  0.00  0.00    +0.000 A 
ATOM     12  C   UNL     1       9.120   8.734  19.452  0.00  0.00    +0.000 A 
ATOM     13  C   UNL     1       8.905  10.013  18.948  0.00  0.00    +0.000 A 
ATOM     14  C   UNL     1       8.074  10.188  17.840  0.00  0.00    +0.000 A 
ATOM     15 CL   UNL     1       7.748  11.782  17.279  0.00  0.00    +0.000 Cl
ATOM     16  C   UNL     1       7.508   9.089  17.190  0.00  0.00    +0.000 A 
ENDBRANCH   6  10
ENDBRANCH   1   2
BRANCH   1  18
ATOM     17  C   UNL     1       0.778   2.994  19.515  0.00  0.00    +0.000 C 
ATOM     18  S   UNL     1       1.667   3.495  18.051  0.00  0.00    +0.000 S 
ATOM     19  O   UNL     1       2.246   2.260  17.555  0.00  0.00    +0.000 OA
ATOM     20  O   UNL     1       0.786   4.291  17.237  0.00  0.00    +0.000 OA
ENDBRANCH   1  18
BRANCH   1  21
ATOM     21  C   UNL     1       2.483   5.383  19.765  0.00  0.00    +0.000 C 
BRANCH  21  22
ATOM     22  C   UNL     1       2.206   6.860  19.526  0.00  0.00    +0.000 A 
ATOM     23  C   UNL     1       2.530   7.488  18.317  0.00  0.00    +0.000 A 
ATOM     24  C   UNL     1       2.053   8.764  18.008  0.00  0.00    +0.000 A 
ATOM     25  C   UNL     1       1.278   9.476  18.925  0.00  0.00    +0.000 A 
ATOM     26  C   UNL     1       0.727  10.721  18.592  0.00  0.00    +0.000 A 
ATOM     27  C   UNL     1       0.047  11.472  19.551  0.00  0.00    +0.000 A 
ATOM     28  C   UNL     1      -0.074  10.985  20.853  0.00  0.00    +0.000 A 
ATOM     29  C   UNL     1       0.395   9.703  21.168  0.00  0.00    +0.000 A 
ATOM     30  C   UNL     1       1.056   8.926  20.202  0.00  0.00    +0.000 A 
ATOM     31  C   UNL     1       1.495   7.616  20.474  0.00  0.00    +0.000 A 
BRANCH  28  32
ATOM     32  C   UNL     1      -0.616  11.854  21.933  0.00  0.00    +0.000 C 
ATOM     33  N   UNL     1      -0.616  11.517  23.183  0.00  0.00    +0.000 NA
ATOM     34  N   UNL     1      -1.185  13.052  21.618  0.00  0.00    +0.000 N 
ATOM     35  H   UNL     1      -0.147  10.621  23.331  0.00  0.00    +0.000 HD
ATOM     36  H   UNL     1      -1.663  13.099  20.726  0.00  0.00    +0.000 HD
ATOM     37  H   UNL     1      -1.753  13.399  22.385  0.00  0.00    +0.000 HD
ENDBRANCH  28  32
ENDBRANCH  21  22
ENDBRANCH   1  21
TORSDOF 6
ENDMDL
MODEL 3
REMARK VINA RESULT:      -7.9      0.920      1.407
REMARK  Name = 
REMARK  7 active torsions:
REMARK  status: ('A' for Active; 'I' for Inactive)
REMARK    1  A    between atoms: C_1  and  S_2
REMARK    2  A    between atoms: S_2  and  N_5
REMARK    3  A    between atoms: N_5  and  C_6
REMARK    4  A    between atoms: N_5  and  C_20
REMARK    5  A    between atoms: C_6  and  C_7
REMARK    6  A    between atoms: C_13  and  C_14
REMARK    7  A    between atoms: C_24  and  C_26
REMARK                            x       y       z     vdW  Elec       q    Type
REMARK                         _______ _______ _______ _____ _____    ______ ____
ROOT
ATOM      1  N   UNL     1       0.315  12.548  20.071  0.00  0.00    +0.000 NA
ENDROOT
BRANCH   1   2
ATOM      2  C   UNL     1      -0.161  12.469  21.519  0.00  0.00    +0.000 C 
ATOM      3  C   UNL     1      -1.521  11.785  21.721  0.00  0.00    +0.000 C 
ATOM      4  C   UNL     1      -2.693  12.572  21.174  0.00  0.00    +0.000 C 
ATOM      5  N   UNL     1      -2.739  13.952  21.622  0.00  0.00    +0.000 N 
ATOM      6  C   UNL     1      -3.924  14.707  21.708  0.00  0.00    +0.000 C 
ATOM      7  O   UNL     1      -3.933  15.880  22.079  0.00  0.00    +0.000 OA
ATOM      8  C   UNL     1      -1.462  14.668  21.614  0.00  0.00    +0.000 C 
ATOM      9  C   UNL     1      -0.313  13.840  22.197  0.00  0.00    +0.000 C 
BRANCH   6  10
ATOM     10  C   UNL     1      -5.243  14.088  21.369  0.00  0.00    +0.000 A 
ATOM     11  C   UNL     1      -5.878  14.316  20.138  0.00  0.00    +0.000 A 
ATOM     12  C   UNL     1      -7.060  13.652  19.810  0.00  0.00    +0.000 A 
ATOM     13  C   UNL     1      -7.672  12.831  20.751  0.00  0.00    +0.000 A 
ATOM     14  C   UNL     1      -7.102  12.685  22.016  0.00  0.00    +0.000 A 
ATOM     15 CL   UNL     1      -7.914  11.735  23.200  0.00  0.00    +0.000 Cl
ATOM     16  C   UNL     1      -5.888  13.301  22.328  0.00  0.00    +0.000 A 
ENDBRANCH   6  10
ENDBRANCH   1   2
BRANCH   1  18
ATOM     17  C   UNL     1       1.639  14.949  19.563  0.00  0.00    +0.000 C 
ATOM     18  S   UNL     1       1.892  13.199  19.795  0.00  0.00    +0.000 S 
ATOM     19  O   UNL     1       2.366  12.740  18.503  0.00  0.00    +0.000 OA
ATOM     20  O   UNL     1       2.669  13.008  20.992  0.00  0.00    +0.000 OA
ENDBRANCH   1  18
BRANCH   1  21
ATOM     21  C   UNL     1       0.070  11.316  19.241  0.00  0.00    +0.000 C 
BRANCH  21  22
ATOM     22  C   UNL     1       0.890  10.059  19.498  0.00  0.00    +0.000 A 
ATOM     23  C   UNL     1       0.819   9.364  20.711  0.00  0.00    +0.000 A 
ATOM     24  C   UNL     1       1.371   8.088  20.853  0.00  0.00    +0.000 A 
ATOM     25  C   UNL     1       2.059   7.489  19.798  0.00  0.00    +0.000 A 
ATOM     26  C   UNL     1       2.544   6.178  19.903  0.00  0.00    +0.000 A 
ATOM     27  C   UNL     1       3.324   5.628  18.886  0.00  0.00    +0.000 A 
ATOM     28  C   UNL     1       3.633   6.394  17.761  0.00  0.00    +0.000 A 
ATOM     29  C   UNL     1       3.078   7.671  17.609  0.00  0.00    +0.000 A 
ATOM     30  C   UNL     1       2.267   8.223  18.614  0.00  0.00    +0.000 A 
ATOM     31  C   UNL     1       1.654   9.482  18.469  0.00  0.00    +0.000 A 
BRANCH  28  32
ATOM     32  C   UNL     1       4.624   5.901  16.765  0.00  0.00    +0.000 C 
ATOM     33  N   UNL     1       4.820   4.645  16.521  0.00  0.00    +0.000 NA
ATOM     34  N   UNL     1       5.409   6.789  16.093  0.00  0.00    +0.000 N 
ATOM     35  H   UNL     1       4.172   4.054  17.046  0.00  0.00    +0.000 HD
ATOM     36  H   UNL     1       5.663   7.632  16.595  0.00  0.00    +0.000 HD
ATOM     37  H   UNL     1       6.210   6.325  15.676  0.00  0.00    +0.000 HD
ENDBRANCH  28  32
ENDBRANCH  21  22
ENDBRANCH   1  21
TORSDOF 6
ENDMDL
MODEL 4
REMARK VINA RESULT:      -7.9      3.259      6.288
REMARK  Name = 
REMARK  7 active torsions:
REMARK  status: ('A' for Active; 'I' for Inactive)
REMARK    1  A    between atoms: C_1  and  S_2
REMARK    2  A    between atoms: S_2  and  N_5
REMARK    3  A    between atoms: N_5  and  C_6
REMARK    4  A    between atoms: N_5  and  C_20
REMARK    5  A    between atoms: C_6  and  C_7
REMARK    6  A    between atoms: C_13  and  C_14
REMARK    7  A    between atoms: C_24  and  C_26
REMARK                            x       y       z     vdW  Elec       q    Type
REMARK                         _______ _______ _______ _____ _____    ______ ____
ROOT
ATOM      1  N   UNL     1      -3.311  13.774  22.589  0.00  0.00    +0.000 NA
ENDROOT
BRANCH   1   2
ATOM      2  C   UNL     1      -2.973  15.256  22.446  0.00  0.00    +0.000 C 
ATOM      3  C   UNL     1      -2.346  15.654  21.102  0.00  0.00    +0.000 C 
ATOM      4  C   UNL     1      -0.947  15.115  20.894  0.00  0.00    +0.000 C 
ATOM      5  N   UNL     1      -0.037  15.393  21.989  0.00  0.00    +0.000 N 
ATOM      6  C   UNL     1       1.361  15.485  21.842  0.00  0.00    +0.000 C 
ATOM      7  O   UNL     1       2.111  15.709  22.791  0.00  0.00    +0.000 OA
ATOM      8  C   UNL     1      -0.578  15.189  23.335  0.00  0.00    +0.000 C 
ATOM      9  C   UNL     1      -1.985  15.771  23.503  0.00  0.00    +0.000 C 
BRANCH   6  10
ATOM     10  C   UNL     1       1.991  15.336  20.493  0.00  0.00    +0.000 A 
ATOM     11  C   UNL     1       2.476  16.439  19.772  0.00  0.00    +0.000 A 
ATOM     12  C   UNL     1       3.145  16.262  18.561  0.00  0.00    +0.000 A 
ATOM     13  C   UNL     1       3.244  14.989  18.008  0.00  0.00    +0.000 A 
ATOM     14  C   UNL     1       2.668  13.903  18.669  0.00  0.00    +0.000 A 
ATOM     15 CL   UNL     1       2.724  12.348  17.932  0.00  0.00    +0.000 Cl
ATOM     16  C   UNL     1       2.051  14.066  19.910  0.00  0.00    +0.000 A 
ENDBRANCH   6  10
ENDBRANCH   1   2
BRANCH   1  18
ATOM     17  C   UNL     1      -4.614  12.491  24.695  0.00  0.00    +0.000 C 
ATOM     18  S   UNL     1      -4.889  13.379  23.172  0.00  0.00    +0.000 S 
ATOM     19  O   UNL     1      -5.478  12.388  22.291  0.00  0.00    +0.000 OA
ATOM     20  O   UNL     1      -5.571  14.609  23.482  0.00  0.00    +0.000 OA
ENDBRANCH   1  18
BRANCH   1  21
ATOM     21  C   UNL     1      -2.917  12.905  21.424  0.00  0.00    +0.000 C 
BRANCH  21  22
ATOM     22  C   UNL     1      -1.766  11.920  21.574  0.00  0.00    +0.000 A 
ATOM     23  C   UNL     1      -1.372  11.426  22.824  0.00  0.00    +0.000 A 
ATOM     24  C   UNL     1      -0.495  10.345  22.937  0.00  0.00    +0.000 A 
ATOM     25  C   UNL     1       0.057   9.755  21.799  0.00  0.00    +0.000 A 
ATOM     26  C   UNL     1       0.872   8.619  21.898  0.00  0.00    +0.000 A 
ATOM     27  C   UNL     1       1.508   8.104  20.769  0.00  0.00    +0.000 A 
ATOM     28  C   UNL     1       1.340   8.732  19.533  0.00  0.00    +0.000 A 
ATOM     29  C   UNL     1       0.456   9.812  19.412  0.00  0.00    +0.000 A 
ATOM     30  C   UNL     1      -0.211  10.320  20.538  0.00  0.00    +0.000 A 
ATOM     31  C   UNL     1      -1.142  11.372  20.440  0.00  0.00    +0.000 A 
BRANCH  28  32
ATOM     32  C   UNL     1       2.163   8.321  18.363  0.00  0.00    +0.000 C 
ATOM     33  N   UNL     1       2.402   9.097  17.356  0.00  0.00    +0.000 NA
ATOM     34  N   UNL     1       2.668   7.056  18.300  0.00  0.00    +0.000 N 
ATOM     35  H   UNL     1       2.010  10.031  17.499  0.00  0.00    +0.000 HD
ATOM     36  H   UNL     1       2.107   6.328  18.729  0.00  0.00    +0.000 HD
ATOM     37  H   UNL     1       2.952   6.824  17.354  0.00  0.00    +0.000 HD
ENDBRANCH  28  32
ENDBRANCH  21  22
ENDBRANCH   1  21
TORSDOF 6
ENDMDL
MODEL 5
REMARK VINA RESULT:      -7.8      0.791      1.019
REMARK  Name = 
REMARK  7 active torsions:
REMARK  status: ('A' for Active; 'I' for Inactive)
REMARK    1  A    between atoms: C_1  and  S_2
REMARK    2  A    between atoms: S_2  and  N_5
REMARK    3  A    between atoms: N_5  and  C_6
REMARK    4  A    between atoms: N_5  and  C_20
REMARK    5  A    between atoms: C_6  and  C_7
REMARK    6  A    between atoms: C_13  and  C_14
REMARK    7  A    between atoms: C_24  and  C_26
REMARK                            x       y       z     vdW  Elec       q    Type
REMARK                         _______ _______ _______ _____ _____    ______ ____
ROOT
ATOM      1  N   UNL     1       0.317  12.415  19.941  0.00  0.00    +0.000 NA
ENDROOT
BRANCH   1   2
ATOM      2  C   UNL     1      -0.102  12.340  21.407  0.00  0.00    +0.000 C 
ATOM      3  C   UNL     1      -1.432  11.618  21.668  0.00  0.00    +0.000 C 
ATOM      4  C   UNL     1      -2.646  12.363  21.156  0.00  0.00    +0.000 C 
ATOM      5  N   UNL     1      -2.718  13.746  21.590  0.00  0.00    +0.000 N 
ATOM      6  C   UNL     1      -3.921  14.467  21.712  0.00  0.00    +0.000 C 
ATOM      7  O   UNL     1      -3.952  15.644  22.069  0.00  0.00    +0.000 OA
ATOM      8  C   UNL     1      -1.464  14.500  21.525  0.00  0.00    +0.000 C 
ATOM      9  C   UNL     1      -0.269  13.714  22.074  0.00  0.00    +0.000 C 
BRANCH   6  10
ATOM     10  C   UNL     1      -5.232  13.805  21.429  0.00  0.00    +0.000 A 
ATOM     11  C   UNL     1      -5.961  13.139  22.428  0.00  0.00    +0.000 A 
ATOM     12  C   UNL     1      -7.224  12.613  22.160  0.00  0.00    +0.000 A 
ATOM     13  C   UNL     1      -7.728  12.657  20.864  0.00  0.00    +0.000 A 
ATOM     14  C   UNL     1      -6.961  13.222  19.844  0.00  0.00    +0.000 A 
ATOM     15 CL   UNL     1      -7.559  13.193  18.230  0.00  0.00    +0.000 Cl
ATOM     16  C   UNL     1      -5.721  13.803  20.119  0.00  0.00    +0.000 A 
ENDBRANCH   6  10
ENDBRANCH   1   2
BRANCH   1  18
ATOM     17  C   UNL     1       1.527  14.834  19.264  0.00  0.00    +0.000 C 
ATOM     18  S   UNL     1       1.860  13.114  19.598  0.00  0.00    +0.000 S 
ATOM     19  O   UNL     1       2.334  12.597  18.328  0.00  0.00    +0.000 OA
ATOM     20  O   UNL     1       2.663  13.030  20.790  0.00  0.00    +0.000 OA
ENDBRANCH   1  18
BRANCH   1  21
ATOM     21  C   UNL     1       0.084  11.163  19.137  0.00  0.00    +0.000 C 
BRANCH  21  22
ATOM     22  C   UNL     1       0.938   9.930  19.397  0.00  0.00    +0.000 A 
ATOM     23  C   UNL     1       0.880   9.230  20.608  0.00  0.00    +0.000 A 
ATOM     24  C   UNL     1       1.467   7.971  20.751  0.00  0.00    +0.000 A 
ATOM     25  C   UNL     1       2.179   7.394  19.699  0.00  0.00    +0.000 A 
ATOM     26  C   UNL     1       2.701   6.098  19.805  0.00  0.00    +0.000 A 
ATOM     27  C   UNL     1       3.504   5.573  18.791  0.00  0.00    +0.000 A 
ATOM     28  C   UNL     1       3.798   6.350  17.670  0.00  0.00    +0.000 A 
ATOM     29  C   UNL     1       3.206   7.611  17.517  0.00  0.00    +0.000 A 
ATOM     30  C   UNL     1       2.374   8.136  18.518  0.00  0.00    +0.000 A 
ATOM     31  C   UNL     1       1.726   9.378  18.371  0.00  0.00    +0.000 A 
BRANCH  28  32
ATOM     32  C   UNL     1       4.809   5.888  16.680  0.00  0.00    +0.000 C 
ATOM     33  N   UNL     1       5.408   4.744  16.759  0.00  0.00    +0.000 NA
ATOM     34  N   UNL     1       5.175   6.706  15.652  0.00  0.00    +0.000 N 
ATOM     35  H   UNL     1       5.054   4.187  17.540  0.00  0.00    +0.000 HD
ATOM     36  H   UNL     1       5.161   7.700  15.845  0.00  0.00    +0.000 HD
ATOM     37  H   UNL     1       6.048   6.399  15.236  0.00  0.00    +0.000 HD
ENDBRANCH  28  32
ENDBRANCH  21  22
ENDBRANCH   1  21
TORSDOF 6
ENDMDL
MODEL 6
REMARK VINA RESULT:      -7.7      3.987      5.862
REMARK  Name = 
REMARK  7 active torsions:
REMARK  status: ('A' for Active; 'I' for Inactive)
REMARK    1  A    between atoms: C_1  and  S_2
REMARK    2  A    between atoms: S_2  and  N_5
REMARK    3  A    between atoms: N_5  and  C_6
REMARK    4  A    between atoms: N_5  and  C_20
REMARK    5  A    between atoms: C_6  and  C_7
REMARK    6  A    between atoms: C_13  and  C_14
REMARK    7  A    between atoms: C_24  and  C_26
REMARK                            x       y       z     vdW  Elec       q    Type
REMARK                         _______ _______ _______ _____ _____    ______ ____
ROOT
ATOM      1  N   UNL     1       0.169  11.105  20.952  0.00  0.00    +0.000 NA
ENDROOT
BRANCH   1   2
ATOM      2  C   UNL     1      -0.933  11.429  19.946  0.00  0.00    +0.000 C 
ATOM      3  C   UNL     1      -0.466  12.171  18.686  0.00  0.00    +0.000 C 
ATOM      4  C   UNL     1      -0.013  13.593  18.942  0.00  0.00    +0.000 C 
ATOM      5  N   UNL     1      -0.968  14.393  19.686  0.00  0.00    +0.000 N 
ATOM      6  C   UNL     1      -1.048  15.796  19.601  0.00  0.00    +0.000 C 
ATOM      7  O   UNL     1      -1.860  16.451  20.254  0.00  0.00    +0.000 OA
ATOM      8  C   UNL     1      -1.595  13.733  20.834  0.00  0.00    +0.000 C 
ATOM      9  C   UNL     1      -2.057  12.306  20.519  0.00  0.00    +0.000 C 
BRANCH   6  10
ATOM     10  C   UNL     1      -0.149  16.551  18.674  0.00  0.00    +0.000 A 
ATOM     11  C   UNL     1      -0.650  17.445  17.715  0.00  0.00    +0.000 A 
ATOM     12  C   UNL     1       0.215  18.206  16.929  0.00  0.00    +0.000 A 
ATOM     13  C   UNL     1       1.588  18.006  17.023  0.00  0.00    +0.000 A 
ATOM     14  C   UNL     1       2.087  17.041  17.898  0.00  0.00    +0.000 A 
ATOM     15 CL   UNL     1       3.782  16.743  17.943  0.00  0.00    +0.000 Cl
ATOM     16  C   UNL     1       1.229  16.318  18.730  0.00  0.00    +0.000 A 
ENDBRANCH   6  10
ENDBRANCH   1   2
BRANCH   1  18
ATOM     17  C   UNL     1      -1.381  11.045  23.270  0.00  0.00    +0.000 C 
ATOM     18  S   UNL     1      -0.253  10.081  22.279  0.00  0.00    +0.000 S 
ATOM     19  O   UNL     1       0.910   9.920  23.131  0.00  0.00    +0.000 OA
ATOM     20  O   UNL     1      -0.966   8.945  21.757  0.00  0.00    +0.000 OA
ENDBRANCH   1  18
BRANCH   1  21
ATOM     21  C   UNL     1       1.497  10.721  20.355  0.00  0.00    +0.000 C 
BRANCH  21  22
ATOM     22  C   UNL     1       1.649   9.378  19.655  0.00  0.00    +0.000 A 
ATOM     23  C   UNL     1       1.957   9.284  18.293  0.00  0.00    +0.000 A 
ATOM     24  C   UNL     1       2.341   8.071  17.715  0.00  0.00    +0.000 A 
ATOM     25  C   UNL     1       2.376   6.901  18.474  0.00  0.00    +0.000 A 
ATOM     26  C   UNL     1       2.838   5.697  17.924  0.00  0.00    +0.000 A 
ATOM     27  C   UNL     1       2.766   4.511  18.656  0.00  0.00    +0.000 A 
ATOM     28  C   UNL     1       2.220   4.523  19.940  0.00  0.00    +0.000 A 
ATOM     29  C   UNL     1       1.840   5.737  20.529  0.00  0.00    +0.000 A 
ATOM     30  C   UNL     1       1.936   6.940  19.811  0.00  0.00    +0.000 A 
ATOM     31  C   UNL     1       1.609   8.181  20.391  0.00  0.00    +0.000 A 
BRANCH  28  32
ATOM     32  C   UNL     1       1.951   3.245  20.654  0.00  0.00    +0.000 C 
ATOM     33  N   UNL     1       1.210   2.303  20.168  0.00  0.00    +0.000 NA
ATOM     34  N   UNL     1       2.461   3.046  21.903  0.00  0.00    +0.000 N 
ATOM     35  H   UNL     1       0.894   2.524  19.221  0.00  0.00    +0.000 HD
ATOM     36  H   UNL     1       2.556   3.870  22.484  0.00  0.00    +0.000 HD
ATOM     37  H   UNL     1       1.981   2.287  22.375  0.00  0.00    +0.000 HD
ENDBRANCH  28  32
ENDBRANCH  21  22
ENDBRANCH   1  21
TORSDOF 6
ENDMDL
MODEL 7
REMARK VINA RESULT:      -7.7      3.730      7.068
REMARK  Name = 
REMARK  7 active torsions:
REMARK  status: ('A' for Active; 'I' for Inactive)
REMARK    1  A    between atoms: C_1  and  S_2
REMARK    2  A    between atoms: S_2  and  N_5
REMARK    3  A    between atoms: N_5  and  C_6
REMARK    4  A    between atoms: N_5  and  C_20
REMARK    5  A    between atoms: C_6  and  C_7
REMARK    6  A    between atoms: C_13  and  C_14
REMARK    7  A    between atoms: C_24  and  C_26
REMARK                            x       y       z     vdW  Elec       q    Type
REMARK                         _______ _______ _______ _____ _____    ______ ____
ROOT
ATOM      1  N   UNL     1      -4.088  14.597  22.100  0.00  0.00    +0.000 NA
ENDROOT
BRANCH   1   2
ATOM      2  C   UNL     1      -3.554  16.027  22.126  0.00  0.00    +0.000 C 
ATOM      3  C   UNL     1      -2.783  16.456  20.868  0.00  0.00    +0.000 C 
ATOM      4  C   UNL     1      -1.454  15.755  20.693  0.00  0.00    +0.000 C 
ATOM      5  N   UNL     1      -0.598  15.808  21.864  0.00  0.00    +0.000 N 
ATOM      6  C   UNL     1       0.807  15.724  21.811  0.00  0.00    +0.000 C 
ATOM      7  O   UNL     1       1.508  15.758  22.822  0.00  0.00    +0.000 OA
ATOM      8  C   UNL     1      -1.258  15.558  23.147  0.00  0.00    +0.000 C 
ATOM      9  C   UNL     1      -2.587  16.307  23.287  0.00  0.00    +0.000 C 
BRANCH   6  10
ATOM     10  C   UNL     1       1.510  15.614  20.496  0.00  0.00    +0.000 A 
ATOM     11  C   UNL     1       1.899  16.746  19.762  0.00  0.00    +0.000 A 
ATOM     12  C   UNL     1       2.637  16.616  18.586  0.00  0.00    +0.000 A 
ATOM     13  C   UNL     1       2.904  15.349  18.077  0.00  0.00    +0.000 A 
ATOM     14  C   UNL     1       2.426  14.221  18.746  0.00  0.00    +0.000 A 
ATOM     15 CL   UNL     1       2.690  12.664  18.060  0.00  0.00    +0.000 Cl
ATOM     16  C   UNL     1       1.739  14.344  19.955  0.00  0.00    +0.000 A 
ENDBRANCH   6  10
ENDBRANCH   1   2
BRANCH   1  18
ATOM     17  C   UNL     1      -6.177  12.948  22.935  0.00  0.00    +0.000 C 
ATOM     18  S   UNL     1      -4.887  14.030  23.524  0.00  0.00    +0.000 S 
ATOM     19  O   UNL     1      -5.607  15.137  24.127  0.00  0.00    +0.000 OA
ATOM     20  O   UNL     1      -3.947  13.245  24.281  0.00  0.00    +0.000 OA
ENDBRANCH   1  18
BRANCH   1  21
ATOM     21  C   UNL     1      -4.836  14.207  20.852  0.00  0.00    +0.000 C 
BRANCH  21  22
ATOM     22  C   UNL     1      -4.356  13.023  20.026  0.00  0.00    +0.000 A 
ATOM     23  C   UNL     1      -5.198  12.358  19.126  0.00  0.00    +0.000 A 
ATOM     24  C   UNL     1      -4.695  11.446  18.195  0.00  0.00    +0.000 A 
ATOM     25  C   UNL     1      -3.335  11.131  18.171  0.00  0.00    +0.000 A 
ATOM     26  C   UNL     1      -2.809  10.280  17.189  0.00  0.00    +0.000 A 
ATOM     27  C   UNL     1      -1.472   9.885  17.239  0.00  0.00    +0.000 A 
ATOM     28  C   UNL     1      -0.657  10.330  18.281  0.00  0.00    +0.000 A 
ATOM     29  C   UNL     1      -1.153  11.251  19.214  0.00  0.00    +0.000 A 
ATOM     30  C   UNL     1      -2.490  11.678  19.155  0.00  0.00    +0.000 A 
ATOM     31  C   UNL     1      -3.004  12.638  20.047  0.00  0.00    +0.000 A 
BRANCH  28  32
ATOM     32  C   UNL     1       0.707   9.763  18.463  0.00  0.00    +0.000 C 
ATOM     33  N   UNL     1       1.498   9.485  17.477  0.00  0.00    +0.000 NA
ATOM     34  N   UNL     1       1.158   9.470  19.716  0.00  0.00    +0.000 N 
ATOM     35  H   UNL     1       1.092   9.762  16.581  0.00  0.00    +0.000 HD
ATOM     36  H   UNL     1       0.457   9.172  20.385  0.00  0.00    +0.000 HD
ATOM     37  H   UNL     1       1.955   8.843  19.679  0.00  0.00    +0.000 HD
ENDBRANCH  28  32
ENDBRANCH  21  22
ENDBRANCH   1  21
TORSDOF 6
ENDMDL
MODEL 8
REMARK VINA RESULT:      -7.6      3.936      4.959
REMARK  Name = 
REMARK  7 active torsions:
REMARK  status: ('A' for Active; 'I' for Inactive)
REMARK    1  A    between atoms: C_1  and  S_2
REMARK    2  A    between atoms: S_2  and  N_5
REMARK    3  A    between atoms: N_5  and  C_6
REMARK    4  A    between atoms: N_5  and  C_20
REMARK    5  A    between atoms: C_6  and  C_7
REMARK    6  A    between atoms: C_13  and  C_14
REMARK    7  A    between atoms: C_24  and  C_26
REMARK                            x       y       z     vdW  Elec       q    Type
REMARK                         _______ _______ _______ _____ _____    ______ ____
ROOT
ATOM      1  N   UNL     1      -0.693  14.867  22.335  0.00  0.00    +0.000 NA
ENDROOT
BRANCH   1   2
ATOM      2  C   UNL     1      -1.790  15.276  23.314  0.00  0.00    +0.000 C 
ATOM      3  C   UNL     1      -2.786  14.164  23.678  0.00  0.00    +0.000 C 
ATOM      4  C   UNL     1      -3.689  13.750  22.536  0.00  0.00    +0.000 C 
ATOM      5  N   UNL     1      -4.368  14.857  21.888  0.00  0.00    +0.000 N 
ATOM      6  C   UNL     1      -5.595  14.732  21.208  0.00  0.00    +0.000 C 
ATOM      7  O   UNL     1      -6.142  15.685  20.655  0.00  0.00    +0.000 OA
ATOM      8  C   UNL     1      -3.547  16.040  21.621  0.00  0.00    +0.000 C 
ATOM      9  C   UNL     1      -2.668  16.433  22.813  0.00  0.00    +0.000 C 
BRANCH   6  10
ATOM     10  C   UNL     1      -6.301  13.414  21.156  0.00  0.00    +0.000 A 
ATOM     11  C   UNL     1      -7.199  13.011  22.156  0.00  0.00    +0.000 A 
ATOM     12  C   UNL     1      -7.916  11.820  22.035  0.00  0.00    +0.000 A 
ATOM     13  C   UNL     1      -7.664  10.971  20.962  0.00  0.00    +0.000 A 
ATOM     14  C   UNL     1      -6.694  11.317  20.020  0.00  0.00    +0.000 A 
ATOM     15 CL   UNL     1      -6.332  10.218  18.745  0.00  0.00    +0.000 Cl
ATOM     16  C   UNL     1      -6.017  12.536  20.106  0.00  0.00    +0.000 A 
ENDBRANCH   6  10
ENDBRANCH   1   2
BRANCH   1  18
ATOM     17  C   UNL     1       0.478  16.898  20.825  0.00  0.00    +0.000 C 
ATOM     18  S   UNL     1       0.712  15.870  22.264  0.00  0.00    +0.000 S 
ATOM     19  O   UNL     1       1.857  15.046  21.921  0.00  0.00    +0.000 OA
ATOM     20  O   UNL     1       0.717  16.716  23.429  0.00  0.00    +0.000 OA
ENDBRANCH   1  18
BRANCH   1  21
ATOM     21  C   UNL     1      -0.332  13.405  22.341  0.00  0.00    +0.000 C 
BRANCH  21  22
ATOM     22  C   UNL     1      -0.374  12.613  21.042  0.00  0.00    +0.000 A 
ATOM     23  C   UNL     1       0.650  11.730  20.679  0.00  0.00    +0.000 A 
ATOM     24  C   UNL     1       0.493  10.826  19.625  0.00  0.00    +0.000 A 
ATOM     25  C   UNL     1      -0.678  10.814  18.866  0.00  0.00    +0.000 A 
ATOM     26  C   UNL     1      -0.878   9.857  17.861  0.00  0.00    +0.000 A 
ATOM     27  C   UNL     1      -2.001   9.922  17.036  0.00  0.00    +0.000 A 
ATOM     28  C   UNL     1      -2.925  10.954  17.206  0.00  0.00    +0.000 A 
ATOM     29  C   UNL     1      -2.778  11.859  18.265  0.00  0.00    +0.000 A 
ATOM     30  C   UNL     1      -1.666  11.785  19.119  0.00  0.00    +0.000 A 
ATOM     31  C   UNL     1      -1.515  12.648  20.221  0.00  0.00    +0.000 A 
BRANCH  28  32
ATOM     32  C   UNL     1      -4.016  11.156  16.214  0.00  0.00    +0.000 C 
ATOM     33  N   UNL     1      -4.145  10.438  15.144  0.00  0.00    +0.000 NA
ATOM     34  N   UNL     1      -4.914  12.166  16.389  0.00  0.00    +0.000 N 
ATOM     35  H   UNL     1      -3.449   9.690  15.107  0.00  0.00    +0.000 HD
ATOM     36  H   UNL     1      -4.564  13.002  16.844  0.00  0.00    +0.000 HD
ATOM     37  H   UNL     1      -5.409  12.368  15.526  0.00  0.00    +0.000 HD
ENDBRANCH  28  32
ENDBRANCH  21  22
ENDBRANCH   1  21
TORSDOF 6
ENDMDL
MODEL 9
REMARK VINA RESULT:      -7.5      4.589      6.790
REMARK  Name = 
REMARK  7 active torsions:
REMARK  status: ('A' for Active; 'I' for Inactive)
REMARK    1  A    between atoms: C_1  and  S_2
REMARK    2  A    between atoms: S_2  and  N_5
REMARK    3  A    between atoms: N_5  and  C_6
REMARK    4  A    between atoms: N_5  and  C_20
REMARK    5  A    between atoms: C_6  and  C_7
REMARK    6  A    between atoms: C_13  and  C_14
REMARK    7  A    between atoms: C_24  and  C_26
REMARK                            x       y       z     vdW  Elec       q    Type
REMARK                         _______ _______ _______ _____ _____    ______ ____
ROOT
ATOM      1  N   UNL     1       0.366  11.281  18.704  0.00  0.00    +0.000 NA
ENDROOT
BRANCH   1   2
ATOM      2  C   UNL     1       0.483  12.774  18.406  0.00  0.00    +0.000 C 
ATOM      3  C   UNL     1       1.914  13.281  18.174  0.00  0.00    +0.000 C 
ATOM      4  C   UNL     1       2.782  13.262  19.414  0.00  0.00    +0.000 C 
ATOM      5  N   UNL     1       2.185  13.916  20.563  0.00  0.00    +0.000 N 
ATOM      6  C   UNL     1       2.930  14.488  21.612  0.00  0.00    +0.000 C 
ATOM      7  O   UNL     1       2.397  15.025  22.583  0.00  0.00    +0.000 OA
ATOM      8  C   UNL     1       0.770  13.620  20.801  0.00  0.00    +0.000 C 
ATOM      9  C   UNL     1      -0.071  13.674  19.521  0.00  0.00    +0.000 C 
BRANCH   6  10
ATOM     10  C   UNL     1       4.425  14.486  21.568  0.00  0.00    +0.000 A 
ATOM     11  C   UNL     1       5.196  13.771  22.498  0.00  0.00    +0.000 A 
ATOM     12  C   UNL     1       6.584  13.709  22.377  0.00  0.00    +0.000 A 
ATOM     13  C   UNL     1       7.223  14.446  21.385  0.00  0.00    +0.000 A 
ATOM     14  C   UNL     1       6.468  15.245  20.524  0.00  0.00    +0.000 A 
ATOM     15 CL   UNL     1       7.277  16.217  19.356  0.00  0.00    +0.000 Cl
ATOM     16  C   UNL     1       5.074  15.263  20.604  0.00  0.00    +0.000 A 
ENDBRANCH   6  10
ENDBRANCH   1   2
BRANCH   1  18
ATOM     17  C   UNL     1      -2.215  11.851  17.812  0.00  0.00    +0.000 C 
ATOM     18  S   UNL     1      -1.152  10.529  18.367  0.00  0.00    +0.000 S 
ATOM     19  O   UNL     1      -1.750  10.102  19.619  0.00  0.00    +0.000 OA
ATOM     20  O   UNL     1      -0.963   9.611  17.274  0.00  0.00    +0.000 OA
ENDBRANCH   1  18
BRANCH   1  21
ATOM     21  C   UNL     1       1.521  10.435  18.237  0.00  0.00    +0.000 C 
BRANCH  21  22
ATOM     22  C   UNL     1       1.831   9.125  18.948  0.00  0.00    +0.000 A 
ATOM     23  C   UNL     1       1.405   8.875  20.258  0.00  0.00    +0.000 A 
ATOM     24  C   UNL     1       1.469   7.594  20.813  0.00  0.00    +0.000 A 
ATOM     25  C   UNL     1       2.011   6.532  20.089  0.00  0.00    +0.000 A 
ATOM     26  C   UNL     1       2.005   5.228  20.605  0.00  0.00    +0.000 A 
ATOM     27  C   UNL     1       2.647   4.194  19.924  0.00  0.00    +0.000 A 
ATOM     28  C   UNL     1       3.310   4.463  18.725  0.00  0.00    +0.000 A 
ATOM     29  C   UNL     1       3.243   5.743  18.160  0.00  0.00    +0.000 A 
ATOM     30  C   UNL     1       2.575   6.784  18.824  0.00  0.00    +0.000 A 
ATOM     31  C   UNL     1       2.449   8.068  18.258  0.00  0.00    +0.000 A 
BRANCH  28  32
ATOM     32  C   UNL     1       4.165   3.423  18.090  0.00  0.00    +0.000 C 
ATOM     33  N   UNL     1       4.881   3.640  17.034  0.00  0.00    +0.000 NA
ATOM     34  N   UNL     1       4.182   2.157  18.597  0.00  0.00    +0.000 N 
ATOM     35  H   UNL     1       4.830   4.618  16.741  0.00  0.00    +0.000 HD
ATOM     36  H   UNL     1       3.319   1.831  19.015  0.00  0.00    +0.000 HD
ATOM     37  H   UNL     1       4.564   1.501  17.924  0.00  0.00    +0.000 HD
ENDBRANCH  28  32
ENDBRANCH  21  22
ENDBRANCH   1  21
TORSDOF 6
ENDMDL
