MODEL 1
REMARK VINA RESULT:      -8.5      0.000      0.000
REMARK  Name = 
REMARK  9 active torsions:
REMARK  status: ('A' for Active; 'I' for Inactive)
REMARK    1  A    between atoms: C_1  and  C_2
REMARK    2  A    between atoms: C_4  and  N_5
REMARK    3  A    between atoms: C_7  and  C_8
REMARK    4  A    between atoms: C_8  and  O_9
REMARK    5  A    between atoms: O_9  and  C_10
REMARK    6  A    between atoms: C_15  and  C_16
REMARK    7  A    between atoms: C_21  and  O_22
REMARK    8  A    between atoms: O_22  and  C_23
REMARK    9  A    between atoms: C_23  and  C_24
REMARK                            x       y       z     vdW  Elec       q    Type
REMARK                         _______ _______ _______ _____ _____    ______ ____
ROOT
ATOM      1  C   UNL     1       2.639   5.035  18.185  0.00  0.00    +0.000 A 
ATOM      2  C   UNL     1       1.604   4.079  18.317  0.00  0.00    +0.000 A 
ATOM      3  C   UNL     1       1.836   2.711  18.203  0.00  0.00    +0.000 A 
ATOM      4  C   UNL     1       3.106   2.267  17.903  0.00  0.00    +0.000 A 
ATOM      5  C   UNL     1       4.138   3.195  17.745  0.00  0.00    +0.000 A 
ATOM      6  C   UNL     1       3.968   4.599  17.945  0.00  0.00    +0.000 A 
ENDROOT
BRANCH   6   7
ATOM      7  C   UNL     1       5.230   5.422  18.015  0.00  0.00    +0.000 A 
ATOM      8  C   UNL     1       6.128   5.098  19.075  0.00  0.00    +0.000 A 
ATOM      9  C   UNL     1       7.390   5.672  19.227  0.00  0.00    +0.000 A 
ATOM     10  C   UNL     1       7.769   6.688  18.379  0.00  0.00    +0.000 A 
ATOM     11  C   UNL     1       6.894   7.096  17.373  0.00  0.00    +0.000 A 
ATOM     12  C   UNL     1       5.666   6.432  17.124  0.00  0.00    +0.000 A 
BRANCH  12  13
ATOM     13  O   UNL     1       4.913   6.715  16.008  0.00  0.00    +0.000 OA
BRANCH  13  14
ATOM     14  C   UNL     1       5.412   6.261  14.737  0.00  0.00    +0.000 C 
BRANCH  14  15
ATOM     15  C   UNL     1       6.145   4.920  14.896  0.00  0.00    +0.000 C 
ATOM     16  C   UNL     1       7.552   4.974  14.277  0.00  0.00    +0.000 C 
ATOM     17  C   UNL     1       7.522   4.943  12.750  0.00  0.00    +0.000 C 
ATOM     18  N   UNL     1       6.809   3.764  12.254  0.00  0.00    +0.000 NA
ATOM     19  C   UNL     1       5.425   3.749  12.726  0.00  0.00    +0.000 C 
ATOM     20  C   UNL     1       5.338   3.771  14.256  0.00  0.00    +0.000 C 
ATOM     21  H   UNL     1       7.284   2.927  12.593  0.00  0.00    +0.000 HD
ENDBRANCH  14  15
ENDBRANCH  13  14
ENDBRANCH  12  13
ENDBRANCH   6   7
BRANCH   1  22
ATOM     22  O   UNL     1       2.377   6.370  18.387  0.00  0.00    +0.000 OA
BRANCH  22  23
ATOM     23  C   UNL     1       2.481   6.837  19.750  0.00  0.00    +0.000 C 
BRANCH  23  29
ATOM     24  C   UNL     1      -0.224   9.620  22.980  0.00  0.00    +0.000 C 
ATOM     25  C   UNL     1       0.340   9.379  21.614  0.00  0.00    +0.000 A 
ATOM     26  C   UNL     1       0.199  10.339  20.609  0.00  0.00    +0.000 A 
ATOM     27  C   UNL     1       0.757  10.100  19.366  0.00  0.00    +0.000 A 
ATOM     28  N   UNL     1       1.471   8.993  19.084  0.00  0.00    +0.000 NA
ATOM     29  C   UNL     1       1.631   8.061  20.072  0.00  0.00    +0.000 A 
ATOM     30  C   UNL     1       1.079   8.223  21.339  0.00  0.00    +0.000 A 
BRANCH  27  31
ATOM     31  N   UNL     1       0.639  11.050  18.352  0.00  0.00    +0.000 N 
ATOM     32  H   UNL     1       1.536  11.454  18.112  0.00  0.00    +0.000 HD
ATOM     33  H   UNL     1      -0.027  11.750  18.668  0.00  0.00    +0.000 HD
ENDBRANCH  27  31
ENDBRANCH  23  29
ENDBRANCH  22  23
ENDBRANCH   1  22
TORSDOF 8
ENDMDL
MODEL 2
REMARK VINA RESULT:      -8.1      0.980      1.545
REMARK  Name = 
REMARK  9 active torsions:
REMARK  status: ('A' for Active; 'I' for Inactive)
REMARK    1  A    between atoms: C_1  and  C_2
REMARK    2  A    between atoms: C_4  and  N_5
REMARK    3  A    between atoms: C_7  and  C_8
REMARK    4  A    between atoms: C_8  and  O_9
REMARK    5  A    between atoms: O_9  and  C_10
REMARK    6  A    between atoms: C_15  and  C_16
REMARK    7  A    between atoms: C_21  and  O_22
REMARK    8  A    between atoms: O_22  and  C_23
REMARK    9  A    between atoms: C_23  and  C_24
REMARK                            x       y       z     vdW  Elec       q    Type
REMARK                         _______ _______ _______ _____ _____    ______ ____
ROOT
ATOM      1  C   UNL     1       2.575   5.093  18.202  0.00  0.00    +0.000 A 
ATOM      2  C   UNL     1       1.527   4.154  18.347  0.00  0.00    +0.000 A 
ATOM      3  C   UNL     1       1.738   2.781  18.240  0.00  0.00    +0.000 A 
ATOM      4  C   UNL     1       3.000   2.316  17.935  0.00  0.00    +0.000 A 
ATOM      5  C   UNL     1       4.044   3.227  17.766  0.00  0.00    +0.000 A 
ATOM      6  C   UNL     1       3.896   4.635  17.957  0.00  0.00    +0.000 A 
ENDROOT
BRANCH   6   7
ATOM      7  C   UNL     1       5.171   5.440  18.014  0.00  0.00    +0.000 A 
ATOM      8  C   UNL     1       6.042   5.151  19.107  0.00  0.00    +0.000 A 
ATOM      9  C   UNL     1       7.310   5.710  19.258  0.00  0.00    +0.000 A 
ATOM     10  C   UNL     1       7.724   6.679  18.371  0.00  0.00    +0.000 A 
ATOM     11  C   UNL     1       6.877   7.054  17.330  0.00  0.00    +0.000 A 
ATOM     12  C   UNL     1       5.643   6.399  17.086  0.00  0.00    +0.000 A 
BRANCH  12  13
ATOM     13  O   UNL     1       4.916   6.641  15.943  0.00  0.00    +0.000 OA
BRANCH  13  14
ATOM     14  C   UNL     1       5.506   6.257  14.688  0.00  0.00    +0.000 C 
BRANCH  14  15
ATOM     15  C   UNL     1       6.242   4.916  14.829  0.00  0.00    +0.000 C 
ATOM     16  C   UNL     1       7.597   4.940  14.101  0.00  0.00    +0.000 C 
ATOM     17  C   UNL     1       7.447   4.866  12.582  0.00  0.00    +0.000 C 
ATOM     18  N   UNL     1       6.690   3.678  12.178  0.00  0.00    +0.000 NA
ATOM     19  C   UNL     1       5.348   3.688  12.756  0.00  0.00    +0.000 C 
ATOM     20  C   UNL     1       5.381   3.754  14.288  0.00  0.00    +0.000 C 
ATOM     21  H   UNL     1       7.186   2.847  12.504  0.00  0.00    +0.000 HD
ENDBRANCH  14  15
ENDBRANCH  13  14
ENDBRANCH  12  13
ENDBRANCH   6   7
BRANCH   1  22
ATOM     22  O   UNL     1       2.335   6.432  18.397  0.00  0.00    +0.000 OA
BRANCH  22  23
ATOM     23  C   UNL     1       2.488   6.914  19.751  0.00  0.00    +0.000 C 
BRANCH  23  29
ATOM     24  C   UNL     1       0.365  11.363  18.657  0.00  0.00    +0.000 C 
ATOM     25  C   UNL     1       0.588  10.213  19.591  0.00  0.00    +0.000 A 
ATOM     26  C   UNL     1      -0.118  10.128  20.791  0.00  0.00    +0.000 A 
ATOM     27  C   UNL     1       0.088   9.038  21.618  0.00  0.00    +0.000 A 
ATOM     28  N   UNL     1       0.915   8.024  21.301  0.00  0.00    +0.000 NA
ATOM     29  C   UNL     1       1.592   8.093  20.115  0.00  0.00    +0.000 A 
ATOM     30  C   UNL     1       1.452   9.168  19.244  0.00  0.00    +0.000 A 
BRANCH  27  31
ATOM     31  N   UNL     1      -0.617   8.926  22.817  0.00  0.00    +0.000 N 
ATOM     32  H   UNL     1      -1.345   8.225  22.759  0.00  0.00    +0.000 HD
ATOM     33  H   UNL     1      -0.986   9.847  23.039  0.00  0.00    +0.000 HD
ENDBRANCH  27  31
ENDBRANCH  23  29
ENDBRANCH  22  23
ENDBRANCH   1  22
TORSDOF 8
ENDMDL
MODEL 3
REMARK VINA RESULT:      -8.0      0.922      1.061
REMARK  Name = 
REMARK  9 active torsions:
REMARK  status: ('A' for Active; 'I' for Inactive)
REMARK    1  A    between atoms: C_1  and  C_2
REMARK    2  A    between atoms: C_4  and  N_5
REMARK    3  A    between atoms: C_7  and  C_8
REMARK    4  A    between atoms: C_8  and  O_9
REMARK    5  A    between atoms: O_9  and  C_10
REMARK    6  A    between atoms: C_15  and  C_16
REMARK    7  A    between atoms: C_21  and  O_22
REMARK    8  A    between atoms: O_22  and  C_23
REMARK    9  A    between atoms: C_23  and  C_24
REMARK                            x       y       z     vdW  Elec       q    Type
REMARK                         _______ _______ _______ _____ _____    ______ ____
ROOT
ATOM      1  C   UNL     1       2.794   5.950  18.187  0.00  0.00    +0.000 A 
ATOM      2  C   UNL     1       1.571   5.238  18.143  0.00  0.00    +0.000 A 
ATOM      3  C   UNL     1       1.498   3.910  17.733  0.00  0.00    +0.000 A 
ATOM      4  C   UNL     1       2.644   3.272  17.308  0.00  0.00    +0.000 A 
ATOM      5  C   UNL     1       3.858   3.963  17.321  0.00  0.00    +0.000 A 
ATOM      6  C   UNL     1       3.998   5.294  17.820  0.00  0.00    +0.000 A 
ENDROOT
BRANCH   6   7
ATOM      7  C   UNL     1       5.409   5.786  18.027  0.00  0.00    +0.000 A 
ATOM      8  C   UNL     1       6.061   5.330  19.212  0.00  0.00    +0.000 A 
ATOM      9  C   UNL     1       7.399   5.587  19.510  0.00  0.00    +0.000 A 
ATOM     10  C   UNL     1       8.122   6.413  18.679  0.00  0.00    +0.000 A 
ATOM     11  C   UNL     1       7.508   6.948  17.549  0.00  0.00    +0.000 A 
ATOM     12  C   UNL     1       6.191   6.589  17.163  0.00  0.00    +0.000 A 
BRANCH  12  13
ATOM     13  O   UNL     1       5.674   6.965  15.944  0.00  0.00    +0.000 OA
BRANCH  13  14
ATOM     14  C   UNL     1       5.425   5.926  14.980  0.00  0.00    +0.000 C 
BRANCH  14  15
ATOM     15  C   UNL     1       6.588   4.922  14.960  0.00  0.00    +0.000 C 
ATOM     16  C   UNL     1       7.741   5.417  14.070  0.00  0.00    +0.000 C 
ATOM     17  C   UNL     1       7.422   5.301  12.580  0.00  0.00    +0.000 C 
ATOM     18  N   UNL     1       7.071   3.927  12.215  0.00  0.00    +0.000 NA
ATOM     19  C   UNL     1       5.897   3.469  12.956  0.00  0.00    +0.000 C 
ATOM     20  C   UNL     1       6.112   3.537  14.473  0.00  0.00    +0.000 C 
ATOM     21  H   UNL     1       7.860   3.318  12.434  0.00  0.00    +0.000 HD
ENDBRANCH  14  15
ENDBRANCH  13  14
ENDBRANCH  12  13
ENDBRANCH   6   7
BRANCH   1  22
ATOM     22  O   UNL     1       2.829   7.234  18.677  0.00  0.00    +0.000 OA
BRANCH  22  23
ATOM     23  C   UNL     1       2.082   8.219  17.929  0.00  0.00    +0.000 C 
BRANCH  23  29
ATOM     24  C   UNL     1       0.098   9.823  22.287  0.00  0.00    +0.000 C 
ATOM     25  C   UNL     1       0.470  10.053  20.854  0.00  0.00    +0.000 A 
ATOM     26  C   UNL     1       0.324  11.317  20.278  0.00  0.00    +0.000 A 
ATOM     27  C   UNL     1       0.705  11.505  18.961  0.00  0.00    +0.000 A 
ATOM     28  N   UNL     1       1.252  10.530  18.210  0.00  0.00    +0.000 NA
ATOM     29  C   UNL     1       1.418   9.297  18.778  0.00  0.00    +0.000 A 
ATOM     30  C   UNL     1       1.038   9.028  20.088  0.00  0.00    +0.000 A 
BRANCH  27  31
ATOM     31  N   UNL     1       0.579  12.762  18.370  0.00  0.00    +0.000 N 
ATOM     32  H   UNL     1      -0.126  13.322  18.831  0.00  0.00    +0.000 HD
ATOM     33  H   UNL     1       0.371  12.615  17.385  0.00  0.00    +0.000 HD
ENDBRANCH  27  31
ENDBRANCH  23  29
ENDBRANCH  22  23
ENDBRANCH   1  22
TORSDOF 8
ENDMDL
MODEL 4
REMARK VINA RESULT:      -7.9      1.205      1.756
REMARK  Name = 
REMARK  9 active torsions:
REMARK  status: ('A' for Active; 'I' for Inactive)
REMARK    1  A    between atoms: C_1  and  C_2
REMARK    2  A    between atoms: C_4  and  N_5
REMARK    3  A    between atoms: C_7  and  C_8
REMARK    4  A    between atoms: C_8  and  O_9
REMARK    5  A    between atoms: O_9  and  C_10
REMARK    6  A    between atoms: C_15  and  C_16
REMARK    7  A    between atoms: C_21  and  O_22
REMARK    8  A    between atoms: O_22  and  C_23
REMARK    9  A    between atoms: C_23  and  C_24
REMARK                            x       y       z     vdW  Elec       q    Type
REMARK                         _______ _______ _______ _____ _____    ______ ____
ROOT
ATOM      1  C   UNL     1       2.854   6.146  18.029  0.00  0.00    +0.000 A 
ATOM      2  C   UNL     1       1.596   5.499  17.992  0.00  0.00    +0.000 A 
ATOM      3  C   UNL     1       1.465   4.141  17.713  0.00  0.00    +0.000 A 
ATOM      4  C   UNL     1       2.592   3.405  17.412  0.00  0.00    +0.000 A 
ATOM      5  C   UNL     1       3.841   4.029  17.420  0.00  0.00    +0.000 A 
ATOM      6  C   UNL     1       4.034   5.395  17.791  0.00  0.00    +0.000 A 
ENDROOT
BRANCH   6   7
ATOM      7  C   UNL     1       5.460   5.830  18.021  0.00  0.00    +0.000 A 
ATOM      8  C   UNL     1       6.071   5.358  19.221  0.00  0.00    +0.000 A 
ATOM      9  C   UNL     1       7.412   5.562  19.543  0.00  0.00    +0.000 A 
ATOM     10  C   UNL     1       8.184   6.352  18.720  0.00  0.00    +0.000 A 
ATOM     11  C   UNL     1       7.613   6.903  17.574  0.00  0.00    +0.000 A 
ATOM     12  C   UNL     1       6.290   6.594  17.166  0.00  0.00    +0.000 A 
BRANCH  12  13
ATOM     13  O   UNL     1       5.812   6.981  15.935  0.00  0.00    +0.000 OA
BRANCH  13  14
ATOM     14  C   UNL     1       5.477   5.942  14.997  0.00  0.00    +0.000 C 
BRANCH  14  15
ATOM     15  C   UNL     1       6.587   4.881  14.953  0.00  0.00    +0.000 C 
ATOM     16  C   UNL     1       7.761   5.332  14.068  0.00  0.00    +0.000 C 
ATOM     17  C   UNL     1       7.431   5.261  12.578  0.00  0.00    +0.000 C 
ATOM     18  N   UNL     1       7.009   3.914  12.188  0.00  0.00    +0.000 NA
ATOM     19  C   UNL     1       5.816   3.503  12.926  0.00  0.00    +0.000 C 
ATOM     20  C   UNL     1       6.038   3.531  14.443  0.00  0.00    +0.000 C 
ATOM     21  H   UNL     1       7.766   3.261  12.392  0.00  0.00    +0.000 HD
ENDBRANCH  14  15
ENDBRANCH  13  14
ENDBRANCH  12  13
ENDBRANCH   6   7
BRANCH   1  22
ATOM     22  O   UNL     1       2.940   7.470  18.390  0.00  0.00    +0.000 OA
BRANCH  22  23
ATOM     23  C   UNL     1       1.952   8.351  17.812  0.00  0.00    +0.000 C 
BRANCH  23  29
ATOM     24  C   UNL     1      -1.652  11.706  18.935  0.00  0.00    +0.000 C 
ATOM     25  C   UNL     1      -0.591  10.735  19.354  0.00  0.00    +0.000 A 
ATOM     26  C   UNL     1      -0.404  10.425  20.702  0.00  0.00    +0.000 A 
ATOM     27  C   UNL     1       0.564   9.502  21.054  0.00  0.00    +0.000 A 
ATOM     28  N   UNL     1       1.318   8.850  20.148  0.00  0.00    +0.000 NA
ATOM     29  C   UNL     1       1.123   9.133  18.825  0.00  0.00    +0.000 A 
ATOM     30  C   UNL     1       0.184  10.066  18.398  0.00  0.00    +0.000 A 
BRANCH  27  31
ATOM     31  N   UNL     1       0.758   9.169  22.395  0.00  0.00    +0.000 N 
ATOM     32  H   UNL     1      -0.118   9.125  22.899  0.00  0.00    +0.000 HD
ATOM     33  H   UNL     1       1.395   9.856  22.789  0.00  0.00    +0.000 HD
ENDBRANCH  27  31
ENDBRANCH  23  29
ENDBRANCH  22  23
ENDBRANCH   1  22
TORSDOF 8
ENDMDL
MODEL 5
REMARK VINA RESULT:      -7.8      3.492      6.692
REMARK  Name = 
REMARK  9 active torsions:
REMARK  status: ('A' for Active; 'I' for Inactive)
REMARK    1  A    between atoms: C_1  and  C_2
REMARK    2  A    between atoms: C_4  and  N_5
REMARK    3  A    between atoms: C_7  and  C_8
REMARK    4  A    between atoms: C_8  and  O_9
REMARK    5  A    between atoms: O_9  and  C_10
REMARK    6  A    between atoms: C_15  and  C_16
REMARK    7  A    between atoms: C_21  and  O_22
REMARK    8  A    between atoms: O_22  and  C_23
REMARK    9  A    between atoms: C_23  and  C_24
REMARK                            x       y       z     vdW  Elec       q    Type
REMARK                         _______ _______ _______ _____ _____    ______ ____
ROOT
ATOM      1  C   UNL     1       6.259   6.727  17.258  0.00  0.00    +0.000 A 
ATOM      2  C   UNL     1       7.149   6.052  16.391  0.00  0.00    +0.000 A 
ATOM      3  C   UNL     1       6.781   4.905  15.691  0.00  0.00    +0.000 A 
ATOM      4  C   UNL     1       5.522   4.377  15.882  0.00  0.00    +0.000 A 
ATOM      5  C   UNL     1       4.635   5.014  16.752  0.00  0.00    +0.000 A 
ATOM      6  C   UNL     1       4.935   6.241  17.418  0.00  0.00    +0.000 A 
ENDROOT
BRANCH   6   7
ATOM      7  C   UNL     1       3.777   6.938  18.090  0.00  0.00    +0.000 A 
ATOM      8  C   UNL     1       3.330   8.143  17.470  0.00  0.00    +0.000 A 
ATOM      9  C   UNL     1       2.206   8.857  17.881  0.00  0.00    +0.000 A 
ATOM     10  C   UNL     1       1.534   8.452  19.013  0.00  0.00    +0.000 A 
ATOM     11  C   UNL     1       1.978   7.325  19.701  0.00  0.00    +0.000 A 
ATOM     12  C   UNL     1       3.037   6.514  19.219  0.00  0.00    +0.000 A 
BRANCH  12  13
ATOM     13  O   UNL     1       3.329   5.299  19.797  0.00  0.00    +0.000 OA
BRANCH  13  14
ATOM     14  C   UNL     1       2.458   4.835  20.844  0.00  0.00    +0.000 C 
BRANCH  14  15
ATOM     15  C   UNL     1       2.570   3.311  21.000  0.00  0.00    +0.000 C 
ATOM     16  C   UNL     1       3.628   2.726  20.049  0.00  0.00    +0.000 C 
ATOM     17  C   UNL     1       3.153   2.689  18.597  0.00  0.00    +0.000 C 
ATOM     18  N   UNL     1       1.901   1.940  18.464  0.00  0.00    +0.000 NA
ATOM     19  C   UNL     1       0.838   2.548  19.263  0.00  0.00    +0.000 C 
ATOM     20  C   UNL     1       1.209   2.629  20.749  0.00  0.00    +0.000 C 
ATOM     21  H   UNL     1       2.055   0.985  18.788  0.00  0.00    +0.000 HD
ENDBRANCH  14  15
ENDBRANCH  13  14
ENDBRANCH  12  13
ENDBRANCH   6   7
BRANCH   1  22
ATOM     22  O   UNL     1       6.641   7.900  17.864  0.00  0.00    +0.000 OA
BRANCH  22  23
ATOM     23  C   UNL     1       8.061   8.159  17.908  0.00  0.00    +0.000 C 
BRANCH  23  29
ATOM     24  C   UNL     1      10.687  11.575  20.541  0.00  0.00    +0.000 C 
ATOM     25  C   UNL     1       9.688  11.225  19.482  0.00  0.00    +0.000 A 
ATOM     26  C   UNL     1       9.150  12.216  18.659  0.00  0.00    +0.000 A 
ATOM     27  C   UNL     1       8.251  11.856  17.670  0.00  0.00    +0.000 A 
ATOM     28  N   UNL     1       7.896  10.579  17.433  0.00  0.00    +0.000 NA
ATOM     29  C   UNL     1       8.439   9.602  18.222  0.00  0.00    +0.000 A 
ATOM     30  C   UNL     1       9.330   9.892  19.249  0.00  0.00    +0.000 A 
BRANCH  27  31
ATOM     31  N   UNL     1       7.711  12.828  16.829  0.00  0.00    +0.000 N 
ATOM     32  H   UNL     1       8.401  13.187  16.181  0.00  0.00    +0.000 HD
ATOM     33  H   UNL     1       7.321  13.558  17.419  0.00  0.00    +0.000 HD
ENDBRANCH  27  31
ENDBRANCH  23  29
ENDBRANCH  22  23
ENDBRANCH   1  22
TORSDOF 8
ENDMDL
MODEL 6
REMARK VINA RESULT:      -7.7      1.044      1.607
REMARK  Name = 
REMARK  9 active torsions:
REMARK  status: ('A' for Active; 'I' for Inactive)
REMARK    1  A    between atoms: C_1  and  C_2
REMARK    2  A    between atoms: C_4  and  N_5
REMARK    3  A    between atoms: C_7  and  C_8
REMARK    4  A    between atoms: C_8  and  O_9
REMARK    5  A    between atoms: O_9  and  C_10
REMARK    6  A    between atoms: C_15  and  C_16
REMARK    7  A    between atoms: C_21  and  O_22
REMARK    8  A    between atoms: O_22  and  C_23
REMARK    9  A    between atoms: C_23  and  C_24
REMARK                            x       y       z     vdW  Elec       q    Type
REMARK                         _______ _______ _______ _____ _____    ______ ____
ROOT
ATOM      1  C   UNL     1       2.449   4.803  18.140  0.00  0.00    +0.000 A 
ATOM      2  C   UNL     1       1.362   3.981  18.519  0.00  0.00    +0.000 A 
ATOM      3  C   UNL     1       1.417   2.592  18.440  0.00  0.00    +0.000 A 
ATOM      4  C   UNL     1       2.549   1.991  17.932  0.00  0.00    +0.000 A 
ATOM      5  C   UNL     1       3.625   2.785  17.531  0.00  0.00    +0.000 A 
ATOM      6  C   UNL     1       3.651   4.205  17.679  0.00  0.00    +0.000 A 
ENDROOT
BRANCH   6   7
ATOM      7  C   UNL     1       4.985   4.876  17.463  0.00  0.00    +0.000 A 
ATOM      8  C   UNL     1       5.682   5.272  18.644  0.00  0.00    +0.000 A 
ATOM      9  C   UNL     1       6.972   5.799  18.644  0.00  0.00    +0.000 A 
ATOM     10  C   UNL     1       7.589   6.059  17.441  0.00  0.00    +0.000 A 
ATOM     11  C   UNL     1       6.918   5.762  16.255  0.00  0.00    +0.000 A 
ATOM     12  C   UNL     1       5.663   5.104  16.242  0.00  0.00    +0.000 A 
BRANCH  12  13
ATOM     13  O   UNL     1       5.110   4.638  15.070  0.00  0.00    +0.000 OA
BRANCH  13  14
ATOM     14  C   UNL     1       5.922   3.778  14.250  0.00  0.00    +0.000 C 
BRANCH  14  15
ATOM     15  C   UNL     1       5.830   4.199  12.776  0.00  0.00    +0.000 C 
ATOM     16  C   UNL     1       4.884   3.278  11.987  0.00  0.00    +0.000 C 
ATOM     17  C   UNL     1       5.498   1.907  11.710  0.00  0.00    +0.000 C 
ATOM     18  N   UNL     1       6.774   2.027  11.001  0.00  0.00    +0.000 NA
ATOM     19  C   UNL     1       7.740   2.795  11.784  0.00  0.00    +0.000 C 
ATOM     20  C   UNL     1       7.225   4.201  12.115  0.00  0.00    +0.000 C 
ATOM     21  H   UNL     1       6.612   2.504  10.113  0.00  0.00    +0.000 HD
ENDBRANCH  14  15
ENDBRANCH  13  14
ENDBRANCH  12  13
ENDBRANCH   6   7
BRANCH   1  22
ATOM     22  O   UNL     1       2.378   6.165  18.312  0.00  0.00    +0.000 OA
BRANCH  22  23
ATOM     23  C   UNL     1       2.474   6.638  19.674  0.00  0.00    +0.000 C 
BRANCH  23  29
ATOM     24  C   UNL     1      -0.089   9.654  22.810  0.00  0.00    +0.000 C 
ATOM     25  C   UNL     1       0.477   9.350  21.457  0.00  0.00    +0.000 A 
ATOM     26  C   UNL     1       0.413  10.296  20.433  0.00  0.00    +0.000 A 
ATOM     27  C   UNL     1       0.972   9.997  19.203  0.00  0.00    +0.000 A 
ATOM     28  N   UNL     1       1.616   8.841  18.953  0.00  0.00    +0.000 NA
ATOM     29  C   UNL     1       1.701   7.921  19.960  0.00  0.00    +0.000 A 
ATOM     30  C   UNL     1       1.143   8.143  21.215  0.00  0.00    +0.000 A 
BRANCH  27  31
ATOM     31  N   UNL     1       0.930  10.933  18.169  0.00  0.00    +0.000 N 
ATOM     32  H   UNL     1       0.582  10.526  17.311  0.00  0.00    +0.000 HD
ATOM     33  H   UNL     1       1.868  11.311  18.064  0.00  0.00    +0.000 HD
ENDBRANCH  27  31
ENDBRANCH  23  29
ENDBRANCH  22  23
ENDBRANCH   1  22
TORSDOF 8
ENDMDL
MODEL 7
REMARK VINA RESULT:      -7.6      3.487      6.727
REMARK  Name = 
REMARK  9 active torsions:
REMARK  status: ('A' for Active; 'I' for Inactive)
REMARK    1  A    between atoms: C_1  and  C_2
REMARK    2  A    between atoms: C_4  and  N_5
REMARK    3  A    between atoms: C_7  and  C_8
REMARK    4  A    between atoms: C_8  and  O_9
REMARK    5  A    between atoms: O_9  and  C_10
REMARK    6  A    between atoms: C_15  and  C_16
REMARK    7  A    between atoms: C_21  and  O_22
REMARK    8  A    between atoms: O_22  and  C_23
REMARK    9  A    between atoms: C_23  and  C_24
REMARK                            x       y       z     vdW  Elec       q    Type
REMARK                         _______ _______ _______ _____ _____    ______ ____
ROOT
ATOM      1  C   UNL     1       6.422   6.827  17.079  0.00  0.00    +0.000 A 
ATOM      2  C   UNL     1       7.327   6.131  16.244  0.00  0.00    +0.000 A 
ATOM      3  C   UNL     1       7.011   4.906  15.662  0.00  0.00    +0.000 A 
ATOM      4  C   UNL     1       5.794   4.322  15.944  0.00  0.00    +0.000 A 
ATOM      5  C   UNL     1       4.895   4.981  16.785  0.00  0.00    +0.000 A 
ATOM      6  C   UNL     1       5.137   6.279  17.329  0.00  0.00    +0.000 A 
ENDROOT
BRANCH   6   7
ATOM      7  C   UNL     1       3.958   6.963  17.976  0.00  0.00    +0.000 A 
ATOM      8  C   UNL     1       3.288   7.939  17.179  0.00  0.00    +0.000 A 
ATOM      9  C   UNL     1       2.116   8.586  17.567  0.00  0.00    +0.000 A 
ATOM     10  C   UNL     1       1.616   8.364  18.831  0.00  0.00    +0.000 A 
ATOM     11  C   UNL     1       2.278   7.478  19.678  0.00  0.00    +0.000 A 
ATOM     12  C   UNL     1       3.393   6.714  19.250  0.00  0.00    +0.000 A 
BRANCH  12  13
ATOM     13  O   UNL     1       3.908   5.701  20.027  0.00  0.00    +0.000 OA
BRANCH  13  14
ATOM     14  C   UNL     1       3.355   4.384  19.853  0.00  0.00    +0.000 C 
BRANCH  14  15
ATOM     15  C   UNL     1       1.938   4.470  19.265  0.00  0.00    +0.000 C 
ATOM     16  C   UNL     1       0.915   3.751  20.160  0.00  0.00    +0.000 C 
ATOM     17  C   UNL     1       1.021   2.229  20.064  0.00  0.00    +0.000 C 
ATOM     18  N   UNL     1       0.876   1.770  18.680  0.00  0.00    +0.000 NA
ATOM     19  C   UNL     1       1.914   2.342  17.826  0.00  0.00    +0.000 C 
ATOM     20  C   UNL     1       1.894   3.875  17.841  0.00  0.00    +0.000 C 
ATOM     21  H   UNL     1      -0.038   2.062  18.333  0.00  0.00    +0.000 HD
ENDBRANCH  14  15
ENDBRANCH  13  14
ENDBRANCH  12  13
ENDBRANCH   6   7
BRANCH   1  22
ATOM     22  O   UNL     1       6.747   8.072  17.564  0.00  0.00    +0.000 OA
BRANCH  22  23
ATOM     23  C   UNL     1       8.118   8.252  17.983  0.00  0.00    +0.000 C 
BRANCH  23  29
ATOM     24  C   UNL     1      10.844  11.666  20.515  0.00  0.00    +0.000 C 
ATOM     25  C   UNL     1       9.809  11.316  19.490  0.00  0.00    +0.000 A 
ATOM     26  C   UNL     1       9.248  12.306  18.682  0.00  0.00    +0.000 A 
ATOM     27  C   UNL     1       8.316  11.947  17.724  0.00  0.00    +0.000 A 
ATOM     28  N   UNL     1       7.947  10.670  17.504  0.00  0.00    +0.000 NA
ATOM     29  C   UNL     1       8.512   9.695  18.278  0.00  0.00    +0.000 A 
ATOM     30  C   UNL     1       9.438   9.984  19.275  0.00  0.00    +0.000 A 
BRANCH  27  31
ATOM     31  N   UNL     1       7.752  12.919  16.898  0.00  0.00    +0.000 N 
ATOM     32  H   UNL     1       6.775  12.732  16.715  0.00  0.00    +0.000 HD
ATOM     33  H   UNL     1       8.305  12.950  16.045  0.00  0.00    +0.000 HD
ENDBRANCH  27  31
ENDBRANCH  23  29
ENDBRANCH  22  23
ENDBRANCH   1  22
TORSDOF 8
ENDMDL
MODEL 8
REMARK VINA RESULT:      -7.6      2.455      7.985
REMARK  Name = 
REMARK  9 active torsions:
REMARK  status: ('A' for Active; 'I' for Inactive)
REMARK    1  A    between atoms: C_1  and  C_2
REMARK    2  A    between atoms: C_4  and  N_5
REMARK    3  A    between atoms: C_7  and  C_8
REMARK    4  A    between atoms: C_8  and  O_9
REMARK    5  A    between atoms: O_9  and  C_10
REMARK    6  A    between atoms: C_15  and  C_16
REMARK    7  A    between atoms: C_21  and  O_22
REMARK    8  A    between atoms: O_22  and  C_23
REMARK    9  A    between atoms: C_23  and  C_24
REMARK                            x       y       z     vdW  Elec       q    Type
REMARK                         _______ _______ _______ _____ _____    ______ ____
ROOT
ATOM      1  C   UNL     1       3.414   4.102  20.179  0.00  0.00    +0.000 A 
ATOM      2  C   UNL     1       3.147   2.780  20.606  0.00  0.00    +0.000 A 
ATOM      3  C   UNL     1       1.860   2.340  20.904  0.00  0.00    +0.000 A 
ATOM      4  C   UNL     1       0.810   3.231  20.827  0.00  0.00    +0.000 A 
ATOM      5  C   UNL     1       1.055   4.547  20.430  0.00  0.00    +0.000 A 
ATOM      6  C   UNL     1       2.341   5.018  20.026  0.00  0.00    +0.000 A 
ENDROOT
BRANCH   6   7
ATOM      7  C   UNL     1       2.379   6.372  19.361  0.00  0.00    +0.000 A 
ATOM      8  C   UNL     1       2.783   6.383  17.992  0.00  0.00    +0.000 A 
ATOM      9  C   UNL     1       2.767   7.521  17.187  0.00  0.00    +0.000 A 
ATOM     10  C   UNL     1       2.446   8.735  17.752  0.00  0.00    +0.000 A 
ATOM     11  C   UNL     1       2.119   8.790  19.105  0.00  0.00    +0.000 A 
ATOM     12  C   UNL     1       2.002   7.624  19.903  0.00  0.00    +0.000 A 
BRANCH  12  13
ATOM     13  O   UNL     1       1.485   7.676  21.177  0.00  0.00    +0.000 OA
BRANCH  13  14
ATOM     14  C   UNL     1       1.125   8.969  21.695  0.00  0.00    +0.000 C 
BRANCH  14  15
ATOM     15  C   UNL     1      -0.403   9.121  21.747  0.00  0.00    +0.000 C 
ATOM     16  C   UNL     1      -0.953   9.707  20.436  0.00  0.00    +0.000 C 
ATOM     17  C   UNL     1      -0.662  11.201  20.295  0.00  0.00    +0.000 C 
ATOM     18  N   UNL     1      -1.190  11.957  21.434  0.00  0.00    +0.000 NA
ATOM     19  C   UNL     1      -0.590  11.505  22.687  0.00  0.00    +0.000 C 
ATOM     20  C   UNL     1      -0.829  10.010  22.934  0.00  0.00    +0.000 C 
ATOM     21  H   UNL     1      -2.200  11.818  21.480  0.00  0.00    +0.000 HD
ENDBRANCH  14  15
ENDBRANCH  13  14
ENDBRANCH  12  13
ENDBRANCH   6   7
BRANCH   1  22
ATOM     22  O   UNL     1       4.690   4.467  19.819  0.00  0.00    +0.000 OA
BRANCH  22  23
ATOM     23  C   UNL     1       5.335   3.629  18.834  0.00  0.00    +0.000 C 
BRANCH  23  29
ATOM     24  C   UNL     1       5.885   4.100  13.837  0.00  0.00    +0.000 C 
ATOM     25  C   UNL     1       6.127   4.588  15.232  0.00  0.00    +0.000 A 
ATOM     26  C   UNL     1       6.753   5.815  15.455  0.00  0.00    +0.000 A 
ATOM     27  C   UNL     1       6.936   6.252  16.756  0.00  0.00    +0.000 A 
ATOM     28  N   UNL     1       6.499   5.564  17.828  0.00  0.00    +0.000 NA
ATOM     29  C   UNL     1       5.864   4.372  17.612  0.00  0.00    +0.000 A 
ATOM     30  C   UNL     1       5.666   3.859  16.335  0.00  0.00    +0.000 A 
BRANCH  27  31
ATOM     31  N   UNL     1       7.548   7.481  17.001  0.00  0.00    +0.000 N 
ATOM     32  H   UNL     1       8.478   7.365  17.382  0.00  0.00    +0.000 HD
ATOM     33  H   UNL     1       6.939   8.005  17.624  0.00  0.00    +0.000 HD
ENDBRANCH  27  31
ENDBRANCH  23  29
ENDBRANCH  22  23
ENDBRANCH   1  22
TORSDOF 8
ENDMDL
MODEL 9
REMARK VINA RESULT:      -7.5      2.243      4.466
REMARK  Name = 
REMARK  9 active torsions:
REMARK  status: ('A' for Active; 'I' for Inactive)
REMARK    1  A    between atoms: C_1  and  C_2
REMARK    2  A    between atoms: C_4  and  N_5
REMARK    3  A    between atoms: C_7  and  C_8
REMARK    4  A    between atoms: C_8  and  O_9
REMARK    5  A    between atoms: O_9  and  C_10
REMARK    6  A    between atoms: C_15  and  C_16
REMARK    7  A    between atoms: C_21  and  O_22
REMARK    8  A    between atoms: O_22  and  C_23
REMARK    9  A    between atoms: C_23  and  C_24
REMARK                            x       y       z     vdW  Elec       q    Type
REMARK                         _______ _______ _______ _____ _____    ______ ____
ROOT
ATOM      1  C   UNL     1       1.415   8.231  20.069  0.00  0.00    +0.000 A 
ATOM      2  C   UNL     1       1.192   9.426  19.344  0.00  0.00    +0.000 A 
ATOM      3  C   UNL     1       1.612   9.587  18.026  0.00  0.00    +0.000 A 
ATOM      4  C   UNL     1       2.312   8.568  17.415  0.00  0.00    +0.000 A 
ATOM      5  C   UNL     1       2.563   7.389  18.120  0.00  0.00    +0.000 A 
ATOM      6  C   UNL     1       2.072   7.143  19.438  0.00  0.00    +0.000 A 
ENDROOT
BRANCH   6   7
ATOM      7  C   UNL     1       2.187   5.725  19.941  0.00  0.00    +0.000 A 
ATOM      8  C   UNL     1       0.956   5.069  20.244  0.00  0.00    +0.000 A 
ATOM      9  C   UNL     1       0.861   3.727  20.608  0.00  0.00    +0.000 A 
ATOM     10  C   UNL     1       2.017   3.001  20.796  0.00  0.00    +0.000 A 
ATOM     11  C   UNL     1       3.249   3.619  20.589  0.00  0.00    +0.000 A 
ATOM     12  C   UNL     1       3.357   4.942  20.090  0.00  0.00    +0.000 A 
BRANCH  12  13
ATOM     13  O   UNL     1       4.569   5.464  19.700  0.00  0.00    +0.000 OA
BRANCH  13  14
ATOM     14  C   UNL     1       5.284   4.777  18.657  0.00  0.00    +0.000 C 
BRANCH  14  15
ATOM     15  C   UNL     1       5.016   5.437  17.297  0.00  0.00    +0.000 C 
ATOM     16  C   UNL     1       5.369   4.492  16.136  0.00  0.00    +0.000 C 
ATOM     17  C   UNL     1       6.877   4.350  15.934  0.00  0.00    +0.000 C 
ATOM     18  N   UNL     1       7.512   5.653  15.722  0.00  0.00    +0.000 NA
ATOM     19  C   UNL     1       7.299   6.535  16.867  0.00  0.00    +0.000 C 
ATOM     20  C   UNL     1       5.809   6.754  17.157  0.00  0.00    +0.000 C 
ATOM     21  H   UNL     1       7.105   6.084  14.891  0.00  0.00    +0.000 HD
ENDBRANCH  14  15
ENDBRANCH  13  14
ENDBRANCH  12  13
ENDBRANCH   6   7
BRANCH   1  22
ATOM     22  O   UNL     1       0.909   8.089  21.339  0.00  0.00    +0.000 OA
BRANCH  22  23
ATOM     23  C   UNL     1       1.296   9.103  22.293  0.00  0.00    +0.000 C 
BRANCH  23  29
ATOM     24  C   UNL     1      -2.785  11.821  23.500  0.00  0.00    +0.000 C 
ATOM     25  C   UNL     1      -1.469  11.676  22.800  0.00  0.00    +0.000 A 
ATOM     26  C   UNL     1      -0.888  12.766  22.150  0.00  0.00    +0.000 A 
ATOM     27  C   UNL     1       0.343  12.608  21.538  0.00  0.00    +0.000 A 
ATOM     28  N   UNL     1       1.034  11.453  21.571  0.00  0.00    +0.000 NA
ATOM     29  C   UNL     1       0.478  10.389  22.226  0.00  0.00    +0.000 A 
ATOM     30  C   UNL     1      -0.765  10.467  22.844  0.00  0.00    +0.000 A 
BRANCH  27  31
ATOM     31  N   UNL     1       0.948  13.687  20.894  0.00  0.00    +0.000 N 
ATOM     32  H   UNL     1       1.913  13.798  21.178  0.00  0.00    +0.000 HD
ATOM     33  H   UNL     1       0.390  14.513  21.096  0.00  0.00    +0.000 HD
ENDBRANCH  27  31
ENDBRANCH  23  29
ENDBRANCH  22  23
ENDBRANCH   1  22
TORSDOF 8
ENDMDL
