MODEL 1
REMARK VINA RESULT:      -7.5      0.000      0.000
REMARK  Name = 
REMARK  11 active torsions:
REMARK  status: ('A' for Active; 'I' for Inactive)
REMARK    1  A    between atoms: C_1  and  C_2
REMARK    2  A    between atoms: C_2  and  C_3
REMARK    3  A    between atoms: C_4  and  S_5
REMARK    4  A    between atoms: S_5  and  C_8
REMARK    5  A    between atoms: C_11  and  C_12
REMARK    6  A    between atoms: C_12  and  C_13
REMARK    7  A    between atoms: C_12  and  C_14
REMARK    8  A    between atoms: C_12  and  C_15
REMARK    9  A    between atoms: N_20  and  C_21
REMARK   10  A    between atoms: C_27  and  O_28
REMARK   11  A    between atoms: O_28  and  C_29
REMARK                            x       y       z     vdW  Elec       q    Type
REMARK                         _______ _______ _______ _____ _____    ______ ____
ROOT
ATOM      1  C   UNL     1      -0.244  12.596  20.968  0.00  0.00    +0.000 A 
ATOM      2  C   UNL     1       0.346  11.380  20.616  0.00  0.00    +0.000 A 
ATOM      3  N   UNL     1       0.496  10.593  21.715  0.00  0.00    +0.000 NA
ATOM      4  N   UNL     1       0.003  11.249  22.749  0.00  0.00    +0.000 NA
ATOM      5  N   UNL     1      -0.589  12.392  22.312  0.00  0.00    +0.000 N 
ENDROOT
BRANCH   5   6
ATOM      6  C   UNL     1      -1.523  13.076  23.148  0.00  0.00    +0.000 A 
ATOM      7  C   UNL     1      -2.741  12.449  23.458  0.00  0.00    +0.000 A 
ATOM      8  C   UNL     1      -3.684  13.089  24.261  0.00  0.00    +0.000 A 
ATOM      9 CL   UNL     1      -5.210  12.347  24.540  0.00  0.00    +0.000 Cl
ATOM     10  C   UNL     1      -3.405  14.326  24.821  0.00  0.00    +0.000 A 
ATOM     11  C   UNL     1      -2.177  14.938  24.565  0.00  0.00    +0.000 A 
ATOM     12  C   UNL     1      -1.226  14.332  23.728  0.00  0.00    +0.000 A 
BRANCH  12  13
ATOM     13  O   UNL     1      -0.072  14.974  23.364  0.00  0.00    +0.000 OA
ATOM     14  C   UNL     1      -0.086  16.399  23.381  0.00  0.00    +0.000 C 
ENDBRANCH  12  13
ENDBRANCH   5   6
BRANCH   2  15
ATOM     15  S   UNL     1       0.793  10.797  19.049  0.00  0.00    +0.000 S 
ATOM     16  O   UNL     1      -0.463  10.701  18.330  0.00  0.00    +0.000 OA
ATOM     17  O   UNL     1       1.856  11.676  18.597  0.00  0.00    +0.000 OA
BRANCH  15  18
ATOM     18  C   UNL     1       1.473   9.172  19.255  0.00  0.00    +0.000 A 
ATOM     19  C   UNL     1       1.278   8.468  20.444  0.00  0.00    +0.000 A 
ATOM     20  C   UNL     1       1.712   7.135  20.539  0.00  0.00    +0.000 A 
ATOM     21  C   UNL     1       2.321   6.473  19.455  0.00  0.00    +0.000 A 
ATOM     22  C   UNL     1       2.523   7.221  18.279  0.00  0.00    +0.000 A 
ATOM     23  C   UNL     1       2.094   8.550  18.171  0.00  0.00    +0.000 A 
BRANCH  21  24
ATOM     24  C   UNL     1       2.733   4.987  19.506  0.00  0.00    +0.000 C 
ATOM     25  C   UNL     1       2.065   4.120  18.416  0.00  0.00    +0.000 C 
ATOM     26  C   UNL     1       4.261   4.877  19.300  0.00  0.00    +0.000 C 
ATOM     27  C   UNL     1       2.372   4.364  20.871  0.00  0.00    +0.000 C 
ENDBRANCH  21  24
ENDBRANCH  15  18
ENDBRANCH   2  15
BRANCH   1  29
ATOM     28  C   UNL     1       0.712  14.751  19.924  0.00  0.00    +0.000 C 
ATOM     29  C   UNL     1      -0.477  13.819  20.127  0.00  0.00    +0.000 C 
ENDBRANCH   1  29
TORSDOF 6
ENDMDL
MODEL 2
REMARK VINA RESULT:      -7.5      2.447      3.062
REMARK  Name = 
REMARK  11 active torsions:
REMARK  status: ('A' for Active; 'I' for Inactive)
REMARK    1  A    between atoms: C_1  and  C_2
REMARK    2  A    between atoms: C_2  and  C_3
REMARK    3  A    between atoms: C_4  and  S_5
REMARK    4  A    between atoms: S_5  and  C_8
REMARK    5  A    between atoms: C_11  and  C_12
REMARK    6  A    between atoms: C_12  and  C_13
REMARK    7  A    between atoms: C_12  and  C_14
REMARK    8  A    between atoms: C_12  and  C_15
REMARK    9  A    between atoms: N_20  and  C_21
REMARK   10  A    between atoms: C_27  and  O_28
REMARK   11  A    between atoms: O_28  and  C_29
REMARK                            x       y       z     vdW  Elec       q    Type
REMARK                         _______ _______ _______ _____ _____    ______ ____
ROOT
ATOM      1  C   UNL     1      -1.560  12.125  20.909  0.00  0.00    +0.000 A 
ATOM      2  C   UNL     1      -0.748  11.838  19.809  0.00  0.00    +0.000 A 
ATOM      3  N   UNL     1      -1.491  11.794  18.672  0.00  0.00    +0.000 NA
ATOM      4  N   UNL     1      -2.742  12.065  18.998  0.00  0.00    +0.000 NA
ATOM      5  N   UNL     1      -2.794  12.420  20.310  0.00  0.00    +0.000 N 
ENDROOT
BRANCH   5   6
ATOM      6  C   UNL     1      -3.928  13.126  20.811  0.00  0.00    +0.000 A 
ATOM      7  C   UNL     1      -5.109  12.412  21.075  0.00  0.00    +0.000 A 
ATOM      8  C   UNL     1      -6.242  13.067  21.553  0.00  0.00    +0.000 A 
ATOM      9 CL   UNL     1      -7.707  12.191  21.770  0.00  0.00    +0.000 Cl
ATOM     10  C   UNL     1      -6.201  14.424  21.838  0.00  0.00    +0.000 A 
ATOM     11  C   UNL     1      -5.020  15.137  21.631  0.00  0.00    +0.000 A 
ATOM     12  C   UNL     1      -3.875  14.507  21.114  0.00  0.00    +0.000 A 
BRANCH  12  13
ATOM     13  O   UNL     1      -2.750  15.215  20.783  0.00  0.00    +0.000 OA
ATOM     14  C   UNL     1      -2.584  16.495  21.387  0.00  0.00    +0.000 C 
ENDBRANCH  12  13
ENDBRANCH   5   6
BRANCH   2  15
ATOM     15  S   UNL     1       0.969  11.630  19.746  0.00  0.00    +0.000 S 
ATOM     16  O   UNL     1       1.369  12.312  18.530  0.00  0.00    +0.000 OA
ATOM     17  O   UNL     1       1.459  12.052  21.045  0.00  0.00    +0.000 OA
BRANCH  15  18
ATOM     18  C   UNL     1       1.293   9.894  19.573  0.00  0.00    +0.000 A 
ATOM     19  C   UNL     1       1.845   9.391  18.395  0.00  0.00    +0.000 A 
ATOM     20  C   UNL     1       2.213   8.037  18.325  0.00  0.00    +0.000 A 
ATOM     21  C   UNL     1       2.064   7.169  19.424  0.00  0.00    +0.000 A 
ATOM     22  C   UNL     1       1.481   7.705  20.589  0.00  0.00    +0.000 A 
ATOM     23  C   UNL     1       1.110   9.054  20.672  0.00  0.00    +0.000 A 
BRANCH  21  24
ATOM     24  C   UNL     1       2.534   5.700  19.402  0.00  0.00    +0.000 C 
ATOM     25  C   UNL     1       4.070   5.539  19.446  0.00  0.00    +0.000 C 
ATOM     26  C   UNL     1       1.964   4.966  20.637  0.00  0.00    +0.000 C 
ATOM     27  C   UNL     1       2.037   4.984  18.128  0.00  0.00    +0.000 C 
ENDBRANCH  21  24
ENDBRANCH  15  18
ENDBRANCH   2  15
BRANCH   1  29
ATOM     28  C   UNL     1      -1.142  10.788  23.072  0.00  0.00    +0.000 C 
ATOM     29  C   UNL     1      -1.214  12.138  22.370  0.00  0.00    +0.000 C 
ENDBRANCH   1  29
TORSDOF 6
ENDMDL
MODEL 3
REMARK VINA RESULT:      -7.4      2.397      3.507
REMARK  Name = 
REMARK  11 active torsions:
REMARK  status: ('A' for Active; 'I' for Inactive)
REMARK    1  A    between atoms: C_1  and  C_2
REMARK    2  A    between atoms: C_2  and  C_3
REMARK    3  A    between atoms: C_4  and  S_5
REMARK    4  A    between atoms: S_5  and  C_8
REMARK    5  A    between atoms: C_11  and  C_12
REMARK    6  A    between atoms: C_12  and  C_13
REMARK    7  A    between atoms: C_12  and  C_14
REMARK    8  A    between atoms: C_12  and  C_15
REMARK    9  A    between atoms: N_20  and  C_21
REMARK   10  A    between atoms: C_27  and  O_28
REMARK   11  A    between atoms: O_28  and  C_29
REMARK                            x       y       z     vdW  Elec       q    Type
REMARK                         _______ _______ _______ _____ _____    ______ ____
ROOT
ATOM      1  C   UNL     1      -1.462  12.087  21.388  0.00  0.00    +0.000 A 
ATOM      2  C   UNL     1      -0.829  12.065  20.143  0.00  0.00    +0.000 A 
ATOM      3  N   UNL     1      -1.733  12.278  19.150  0.00  0.00    +0.000 NA
ATOM      4  N   UNL     1      -2.913  12.460  19.714  0.00  0.00    +0.000 NA
ATOM      5  N   UNL     1      -2.761  12.504  21.064  0.00  0.00    +0.000 N 
ENDROOT
BRANCH   5   6
ATOM      6  C   UNL     1      -3.788  13.069  21.878  0.00  0.00    +0.000 A 
ATOM      7  C   UNL     1      -3.449  14.075  22.798  0.00  0.00    +0.000 A 
ATOM      8  C   UNL     1      -4.420  14.643  23.620  0.00  0.00    +0.000 A 
ATOM      9 CL   UNL     1      -3.963  15.797  24.810  0.00  0.00    +0.000 Cl
ATOM     10  C   UNL     1      -5.750  14.270  23.495  0.00  0.00    +0.000 A 
ATOM     11  C   UNL     1      -6.112  13.310  22.549  0.00  0.00    +0.000 A 
ATOM     12  C   UNL     1      -5.145  12.695  21.735  0.00  0.00    +0.000 A 
BRANCH  12  13
ATOM     13  O   UNL     1      -5.463  11.661  20.894  0.00  0.00    +0.000 OA
ATOM     14  C   UNL     1      -6.682  11.767  20.163  0.00  0.00    +0.000 C 
ENDBRANCH  12  13
ENDBRANCH   5   6
BRANCH   2  15
ATOM     15  S   UNL     1       0.853  11.886  19.777  0.00  0.00    +0.000 S 
ATOM     16  O   UNL     1       1.013  12.547  18.495  0.00  0.00    +0.000 OA
ATOM     17  O   UNL     1       1.558  12.349  20.958  0.00  0.00    +0.000 OA
BRANCH  15  18
ATOM     18  C   UNL     1       1.180  10.154  19.584  0.00  0.00    +0.000 A 
ATOM     19  C   UNL     1       1.646   9.653  18.368  0.00  0.00    +0.000 A 
ATOM     20  C   UNL     1       2.021   8.302  18.274  0.00  0.00    +0.000 A 
ATOM     21  C   UNL     1       1.962   7.435  19.383  0.00  0.00    +0.000 A 
ATOM     22  C   UNL     1       1.464   7.969  20.587  0.00  0.00    +0.000 A 
ATOM     23  C   UNL     1       1.088   9.314  20.694  0.00  0.00    +0.000 A 
BRANCH  21  24
ATOM     24  C   UNL     1       2.444   5.971  19.328  0.00  0.00    +0.000 C 
ATOM     25  C   UNL     1       3.981   5.820  19.361  0.00  0.00    +0.000 C 
ATOM     26  C   UNL     1       1.887   5.207  20.551  0.00  0.00    +0.000 C 
ATOM     27  C   UNL     1       1.945   5.277  18.043  0.00  0.00    +0.000 C 
ENDBRANCH  21  24
ENDBRANCH  15  18
ENDBRANCH   2  15
BRANCH   1  29
ATOM     28  C   UNL     1      -1.033  10.323  23.219  0.00  0.00    +0.000 C 
ATOM     29  C   UNL     1      -0.903  11.766  22.745  0.00  0.00    +0.000 C 
ENDBRANCH   1  29
TORSDOF 6
ENDMDL
MODEL 4
REMARK VINA RESULT:      -7.3      0.565      1.003
REMARK  Name = 
REMARK  11 active torsions:
REMARK  status: ('A' for Active; 'I' for Inactive)
REMARK    1  A    between atoms: C_1  and  C_2
REMARK    2  A    between atoms: C_2  and  C_3
REMARK    3  A    between atoms: C_4  and  S_5
REMARK    4  A    between atoms: S_5  and  C_8
REMARK    5  A    between atoms: C_11  and  C_12
REMARK    6  A    between atoms: C_12  and  C_13
REMARK    7  A    between atoms: C_12  and  C_14
REMARK    8  A    between atoms: C_12  and  C_15
REMARK    9  A    between atoms: N_20  and  C_21
REMARK   10  A    between atoms: C_27  and  O_28
REMARK   11  A    between atoms: O_28  and  C_29
REMARK                            x       y       z     vdW  Elec       q    Type
REMARK                         _______ _______ _______ _____ _____    ______ ____
ROOT
ATOM      1  C   UNL     1      -0.650  12.921  20.863  0.00  0.00    +0.000 A 
ATOM      2  C   UNL     1       0.088  11.790  20.506  0.00  0.00    +0.000 A 
ATOM      3  N   UNL     1       0.482  11.113  21.617  0.00  0.00    +0.000 NA
ATOM      4  N   UNL     1       0.003  11.754  22.668  0.00  0.00    +0.000 NA
ATOM      5  N   UNL     1      -0.811  12.758  22.247  0.00  0.00    +0.000 N 
ENDROOT
BRANCH   5   6
ATOM      6  C   UNL     1      -1.747  13.343  23.152  0.00  0.00    +0.000 A 
ATOM      7  C   UNL     1      -3.014  12.753  23.294  0.00  0.00    +0.000 A 
ATOM      8  C   UNL     1      -3.960  13.301  24.157  0.00  0.00    +0.000 A 
ATOM      9 CL   UNL     1      -5.538  12.622  24.236  0.00  0.00    +0.000 Cl
ATOM     10  C   UNL     1      -3.641  14.401  24.939  0.00  0.00    +0.000 A 
ATOM     11  C   UNL     1      -2.369  14.968  24.849  0.00  0.00    +0.000 A 
ATOM     12  C   UNL     1      -1.411  14.457  23.958  0.00  0.00    +0.000 A 
BRANCH  12  13
ATOM     13  O   UNL     1      -0.205  15.077  23.762  0.00  0.00    +0.000 OA
ATOM     14  C   UNL     1      -0.211  16.500  23.674  0.00  0.00    +0.000 C 
ENDBRANCH  12  13
ENDBRANCH   5   6
BRANCH   2  15
ATOM     15  S   UNL     1       0.453  11.179  18.929  0.00  0.00    +0.000 S 
ATOM     16  O   UNL     1      -0.845  10.977  18.313  0.00  0.00    +0.000 OA
ATOM     17  O   UNL     1       1.419  12.105  18.367  0.00  0.00    +0.000 OA
BRANCH  15  18
ATOM     18  C   UNL     1       1.251   9.608  19.133  0.00  0.00    +0.000 A 
ATOM     19  C   UNL     1       1.097   8.884  20.316  0.00  0.00    +0.000 A 
ATOM     20  C   UNL     1       1.629   7.587  20.408  0.00  0.00    +0.000 A 
ATOM     21  C   UNL     1       2.298   6.980  19.328  0.00  0.00    +0.000 A 
ATOM     22  C   UNL     1       2.457   7.749  18.159  0.00  0.00    +0.000 A 
ATOM     23  C   UNL     1       1.930   9.043  18.054  0.00  0.00    +0.000 A 
BRANCH  21  24
ATOM     24  C   UNL     1       2.821   5.529  19.375  0.00  0.00    +0.000 C 
ATOM     25  C   UNL     1       4.362   5.424  19.372  0.00  0.00    +0.000 C 
ATOM     26  C   UNL     1       2.323   4.852  20.672  0.00  0.00    +0.000 C 
ATOM     27  C   UNL     1       2.305   4.721  18.166  0.00  0.00    +0.000 C 
ENDBRANCH  21  24
ENDBRANCH  15  18
ENDBRANCH   2  15
BRANCH   1  29
ATOM     28  C   UNL     1      -0.593  15.423  20.242  0.00  0.00    +0.000 C 
ATOM     29  C   UNL     1      -1.168  14.033  19.995  0.00  0.00    +0.000 C 
ENDBRANCH   1  29
TORSDOF 6
ENDMDL
MODEL 5
REMARK VINA RESULT:      -7.3      5.815     10.581
REMARK  Name = 
REMARK  11 active torsions:
REMARK  status: ('A' for Active; 'I' for Inactive)
REMARK    1  A    between atoms: C_1  and  C_2
REMARK    2  A    between atoms: C_2  and  C_3
REMARK    3  A    between atoms: C_4  and  S_5
REMARK    4  A    between atoms: S_5  and  C_8
REMARK    5  A    between atoms: C_11  and  C_12
REMARK    6  A    between atoms: C_12  and  C_13
REMARK    7  A    between atoms: C_12  and  C_14
REMARK    8  A    between atoms: C_12  and  C_15
REMARK    9  A    between atoms: N_20  and  C_21
REMARK   10  A    between atoms: C_27  and  O_28
REMARK   11  A    between atoms: O_28  and  C_29
REMARK                            x       y       z     vdW  Elec       q    Type
REMARK                         _______ _______ _______ _____ _____    ______ ____
ROOT
ATOM      1  C   UNL     1       3.844   4.336  17.967  0.00  0.00    +0.000 A 
ATOM      2  C   UNL     1       3.699   4.861  19.253  0.00  0.00    +0.000 A 
ATOM      3  N   UNL     1       4.905   5.257  19.739  0.00  0.00    +0.000 NA
ATOM      4  N   UNL     1       5.810   5.028  18.805  0.00  0.00    +0.000 NA
ATOM      5  N   UNL     1       5.185   4.617  17.669  0.00  0.00    +0.000 N 
ENDROOT
BRANCH   5   6
ATOM      6  C   UNL     1       5.869   4.679  16.418  0.00  0.00    +0.000 A 
ATOM      7  C   UNL     1       5.308   4.031  15.305  0.00  0.00    +0.000 A 
ATOM      8  C   UNL     1       5.952   4.057  14.069  0.00  0.00    +0.000 A 
ATOM      9 CL   UNL     1       5.299   3.171  12.748  0.00  0.00    +0.000 Cl
ATOM     10  C   UNL     1       7.124   4.779  13.905  0.00  0.00    +0.000 A 
ATOM     11  C   UNL     1       7.667   5.471  14.988  0.00  0.00    +0.000 A 
ATOM     12  C   UNL     1       7.057   5.429  16.253  0.00  0.00    +0.000 A 
BRANCH  12  13
ATOM     13  O   UNL     1       7.643   5.994  17.355  0.00  0.00    +0.000 OA
ATOM     14  C   UNL     1       7.599   7.414  17.461  0.00  0.00    +0.000 C 
ENDBRANCH  12  13
ENDBRANCH   5   6
BRANCH   2  15
ATOM     15  S   UNL     1       2.256   5.107  20.175  0.00  0.00    +0.000 S 
ATOM     16  O   UNL     1       1.242   4.352  19.463  0.00  0.00    +0.000 OA
ATOM     17  O   UNL     1       2.611   4.786  21.545  0.00  0.00    +0.000 OA
BRANCH  15  18
ATOM     18  C   UNL     1       1.858   6.834  20.100  0.00  0.00    +0.000 A 
ATOM     19  C   UNL     1       2.124   7.572  18.946  0.00  0.00    +0.000 A 
ATOM     20  C   UNL     1       1.684   8.903  18.859  0.00  0.00    +0.000 A 
ATOM     21  C   UNL     1       0.956   9.515  19.898  0.00  0.00    +0.000 A 
ATOM     22  C   UNL     1       0.727   8.748  21.057  0.00  0.00    +0.000 A 
ATOM     23  C   UNL     1       1.159   7.419  21.156  0.00  0.00    +0.000 A 
BRANCH  21  24
ATOM     24  C   UNL     1       0.393  10.947  19.796  0.00  0.00    +0.000 C 
ATOM     25  C   UNL     1      -0.999  11.021  19.128  0.00  0.00    +0.000 C 
ATOM     26  C   UNL     1       0.245  11.538  21.216  0.00  0.00    +0.000 C 
ATOM     27  C   UNL     1       1.339  11.853  18.979  0.00  0.00    +0.000 C 
ENDBRANCH  21  24
ENDBRANCH  15  18
ENDBRANCH   2  15
BRANCH   1  29
ATOM     28  C   UNL     1       2.546   2.185  17.386  0.00  0.00    +0.000 C 
ATOM     29  C   UNL     1       2.825   3.655  17.097  0.00  0.00    +0.000 C 
ENDBRANCH   1  29
TORSDOF 6
ENDMDL
MODEL 6
REMARK VINA RESULT:      -7.2      3.571      4.712
REMARK  Name = 
REMARK  11 active torsions:
REMARK  status: ('A' for Active; 'I' for Inactive)
REMARK    1  A    between atoms: C_1  and  C_2
REMARK    2  A    between atoms: C_2  and  C_3
REMARK    3  A    between atoms: C_4  and  S_5
REMARK    4  A    between atoms: S_5  and  C_8
REMARK    5  A    between atoms: C_11  and  C_12
REMARK    6  A    between atoms: C_12  and  C_13
REMARK    7  A    between atoms: C_12  and  C_14
REMARK    8  A    between atoms: C_12  and  C_15
REMARK    9  A    between atoms: N_20  and  C_21
REMARK   10  A    between atoms: C_27  and  O_28
REMARK   11  A    between atoms: O_28  and  C_29
REMARK                            x       y       z     vdW  Elec       q    Type
REMARK                         _______ _______ _______ _____ _____    ______ ____
ROOT
ATOM      1  C   UNL     1       0.853  12.565  19.323  0.00  0.00    +0.000 A 
ATOM      2  C   UNL     1       1.060  11.847  20.503  0.00  0.00    +0.000 A 
ATOM      3  N   UNL     1       1.946  12.498  21.302  0.00  0.00    +0.000 NA
ATOM      4  N   UNL     1       2.293  13.616  20.690  0.00  0.00    +0.000 NA
ATOM      5  N   UNL     1       1.539  13.763  19.568  0.00  0.00    +0.000 N 
ENDROOT
BRANCH   5   6
ATOM      6  C   UNL     1       1.431  15.044  18.946  0.00  0.00    +0.000 A 
ATOM      7  C   UNL     1       0.206  15.728  19.010  0.00  0.00    +0.000 A 
ATOM      8  C   UNL     1       0.057  16.974  18.404  0.00  0.00    +0.000 A 
ATOM      9 CL   UNL     1      -1.480  17.745  18.406  0.00  0.00    +0.000 Cl
ATOM     10  C   UNL     1       1.137  17.587  17.786  0.00  0.00    +0.000 A 
ATOM     11  C   UNL     1       2.374  16.943  17.760  0.00  0.00    +0.000 A 
ATOM     12  C   UNL     1       2.540  15.670  18.330  0.00  0.00    +0.000 A 
BRANCH  12  13
ATOM     13  O   UNL     1       3.710  14.969  18.201  0.00  0.00    +0.000 OA
ATOM     14  C   UNL     1       4.908  15.724  18.034  0.00  0.00    +0.000 C 
ENDBRANCH  12  13
ENDBRANCH   5   6
BRANCH   2  15
ATOM     15  S   UNL     1       0.310  10.381  21.033  0.00  0.00    +0.000 S 
ATOM     16  O   UNL     1       0.636  10.302  22.445  0.00  0.00    +0.000 OA
ATOM     17  O   UNL     1      -1.067  10.463  20.580  0.00  0.00    +0.000 OA
BRANCH  15  18
ATOM     18  C   UNL     1       1.092   9.037  20.179  0.00  0.00    +0.000 A 
ATOM     19  C   UNL     1       1.505   9.185  18.855  0.00  0.00    +0.000 A 
ATOM     20  C   UNL     1       2.236   8.156  18.239  0.00  0.00    +0.000 A 
ATOM     21  C   UNL     1       2.590   6.980  18.928  0.00  0.00    +0.000 A 
ATOM     22  C   UNL     1       2.135   6.855  20.256  0.00  0.00    +0.000 A 
ATOM     23  C   UNL     1       1.406   7.874  20.882  0.00  0.00    +0.000 A 
BRANCH  21  24
ATOM     24  C   UNL     1       3.461   5.871  18.302  0.00  0.00    +0.000 C 
ATOM     25  C   UNL     1       2.646   4.685  17.739  0.00  0.00    +0.000 C 
ATOM     26  C   UNL     1       4.270   6.465  17.127  0.00  0.00    +0.000 C 
ATOM     27  C   UNL     1       4.446   5.295  19.341  0.00  0.00    +0.000 C 
ENDBRANCH  21  24
ENDBRANCH  15  18
ENDBRANCH   2  15
BRANCH   1  29
ATOM     28  C   UNL     1      -1.408  12.523  18.084  0.00  0.00    +0.000 C 
ATOM     29  C   UNL     1       0.077  12.177  18.096  0.00  0.00    +0.000 C 
ENDBRANCH   1  29
TORSDOF 6
ENDMDL
MODEL 7
REMARK VINA RESULT:      -7.2      4.260      8.860
REMARK  Name = 
REMARK  11 active torsions:
REMARK  status: ('A' for Active; 'I' for Inactive)
REMARK    1  A    between atoms: C_1  and  C_2
REMARK    2  A    between atoms: C_2  and  C_3
REMARK    3  A    between atoms: C_4  and  S_5
REMARK    4  A    between atoms: S_5  and  C_8
REMARK    5  A    between atoms: C_11  and  C_12
REMARK    6  A    between atoms: C_12  and  C_13
REMARK    7  A    between atoms: C_12  and  C_14
REMARK    8  A    between atoms: C_12  and  C_15
REMARK    9  A    between atoms: N_20  and  C_21
REMARK   10  A    between atoms: C_27  and  O_28
REMARK   11  A    between atoms: O_28  and  C_29
REMARK                            x       y       z     vdW  Elec       q    Type
REMARK                         _______ _______ _______ _____ _____    ______ ____
ROOT
ATOM      1  C   UNL     1       1.458   8.414  19.706  0.00  0.00    +0.000 A 
ATOM      2  C   UNL     1       1.042   9.359  18.766  0.00  0.00    +0.000 A 
ATOM      3  N   UNL     1       1.763   9.233  17.620  0.00  0.00    +0.000 NA
ATOM      4  N   UNL     1       2.605   8.229  17.783  0.00  0.00    +0.000 NA
ATOM      5  N   UNL     1       2.344   7.615  18.968  0.00  0.00    +0.000 N 
ENDROOT
BRANCH   5   6
ATOM      6  C   UNL     1       2.829   6.294  19.208  0.00  0.00    +0.000 A 
ATOM      7  C   UNL     1       2.096   5.445  20.053  0.00  0.00    +0.000 A 
ATOM      8  C   UNL     1       2.543   4.153  20.322  0.00  0.00    +0.000 A 
ATOM      9 CL   UNL     1       1.684   3.169  21.441  0.00  0.00    +0.000 Cl
ATOM     10  C   UNL     1       3.685   3.664  19.707  0.00  0.00    +0.000 A 
ATOM     11  C   UNL     1       4.396   4.477  18.824  0.00  0.00    +0.000 A 
ATOM     12  C   UNL     1       3.987   5.796  18.566  0.00  0.00    +0.000 A 
BRANCH  12  13
ATOM     13  O   UNL     1       4.742   6.649  17.805  0.00  0.00    +0.000 OA
ATOM     14  C   UNL     1       5.297   6.130  16.599  0.00  0.00    +0.000 C 
ENDBRANCH  12  13
ENDBRANCH   5   6
BRANCH   2  15
ATOM     15  S   UNL     1      -0.236  10.519  18.877  0.00  0.00    +0.000 S 
ATOM     16  O   UNL     1      -0.960  10.376  17.628  0.00  0.00    +0.000 OA
ATOM     17  O   UNL     1      -0.878  10.268  20.154  0.00  0.00    +0.000 OA
BRANCH  15  18
ATOM     18  C   UNL     1       0.504  12.130  18.940  0.00  0.00    +0.000 A 
ATOM     19  C   UNL     1       1.891  12.270  18.986  0.00  0.00    +0.000 A 
ATOM     20  C   UNL     1       2.461  13.552  18.905  0.00  0.00    +0.000 A 
ATOM     21  C   UNL     1       1.671  14.708  18.754  0.00  0.00    +0.000 A 
ATOM     22  C   UNL     1       0.273  14.531  18.735  0.00  0.00    +0.000 A 
ATOM     23  C   UNL     1      -0.307  13.258  18.815  0.00  0.00    +0.000 A 
BRANCH  21  24
ATOM     24  C   UNL     1       2.273  16.118  18.581  0.00  0.00    +0.000 C 
ATOM     25  C   UNL     1       2.994  16.644  19.842  0.00  0.00    +0.000 C 
ATOM     26  C   UNL     1       3.316  16.088  17.441  0.00  0.00    +0.000 C 
ATOM     27  C   UNL     1       1.176  17.143  18.222  0.00  0.00    +0.000 C 
ENDBRANCH  21  24
ENDBRANCH  15  18
ENDBRANCH   2  15
BRANCH   1  29
ATOM     28  C   UNL     1       1.610   9.288  22.127  0.00  0.00    +0.000 C 
ATOM     29  C   UNL     1       1.055   8.262  21.145  0.00  0.00    +0.000 C 
ENDBRANCH   1  29
TORSDOF 6
ENDMDL
MODEL 8
REMARK VINA RESULT:      -7.2      4.154      8.583
REMARK  Name = 
REMARK  11 active torsions:
REMARK  status: ('A' for Active; 'I' for Inactive)
REMARK    1  A    between atoms: C_1  and  C_2
REMARK    2  A    between atoms: C_2  and  C_3
REMARK    3  A    between atoms: C_4  and  S_5
REMARK    4  A    between atoms: S_5  and  C_8
REMARK    5  A    between atoms: C_11  and  C_12
REMARK    6  A    between atoms: C_12  and  C_13
REMARK    7  A    between atoms: C_12  and  C_14
REMARK    8  A    between atoms: C_12  and  C_15
REMARK    9  A    between atoms: N_20  and  C_21
REMARK   10  A    between atoms: C_27  and  O_28
REMARK   11  A    between atoms: O_28  and  C_29
REMARK                            x       y       z     vdW  Elec       q    Type
REMARK                         _______ _______ _______ _____ _____    ______ ____
ROOT
ATOM      1  C   UNL     1       0.959   9.230  19.440  0.00  0.00    +0.000 A 
ATOM      2  C   UNL     1       0.751   9.964  20.610  0.00  0.00    +0.000 A 
ATOM      3  N   UNL     1       1.054   9.210  21.700  0.00  0.00    +0.000 NA
ATOM      4  N   UNL     1       1.470   8.033  21.272  0.00  0.00    +0.000 NA
ATOM      5  N   UNL     1       1.571   8.061  19.916  0.00  0.00    +0.000 N 
ENDROOT
BRANCH   5   6
ATOM      6  C   UNL     1       2.354   7.077  19.240  0.00  0.00    +0.000 A 
ATOM      7  C   UNL     1       3.203   7.485  18.198  0.00  0.00    +0.000 A 
ATOM      8  C   UNL     1       3.974   6.553  17.505  0.00  0.00    +0.000 A 
ATOM      9 CL   UNL     1       4.925   7.060  16.165  0.00  0.00    +0.000 Cl
ATOM     10  C   UNL     1       3.963   5.218  17.878  0.00  0.00    +0.000 A 
ATOM     11  C   UNL     1       3.165   4.805  18.946  0.00  0.00    +0.000 A 
ATOM     12  C   UNL     1       2.350   5.719  19.635  0.00  0.00    +0.000 A 
BRANCH  12  13
ATOM     13  O   UNL     1       1.465   5.312  20.599  0.00  0.00    +0.000 OA
ATOM     14  C   UNL     1       1.190   3.916  20.683  0.00  0.00    +0.000 C 
ENDBRANCH  12  13
ENDBRANCH   5   6
BRANCH   2  15
ATOM     15  S   UNL     1       0.265  11.615  20.790  0.00  0.00    +0.000 S 
ATOM     16  O   UNL     1      -0.961  11.714  20.019  0.00  0.00    +0.000 OA
ATOM     17  O   UNL     1       0.280  11.871  22.219  0.00  0.00    +0.000 OA
BRANCH  15  18
ATOM     18  C   UNL     1       1.510  12.627  20.035  0.00  0.00    +0.000 A 
ATOM     19  C   UNL     1       1.547  12.790  18.651  0.00  0.00    +0.000 A 
ATOM     20  C   UNL     1       2.458  13.697  18.083  0.00  0.00    +0.000 A 
ATOM     21  C   UNL     1       3.328  14.470  18.877  0.00  0.00    +0.000 A 
ATOM     22  C   UNL     1       3.281  14.261  20.269  0.00  0.00    +0.000 A 
ATOM     23  C   UNL     1       2.376  13.361  20.847  0.00  0.00    +0.000 A 
BRANCH  21  24
ATOM     24  C   UNL     1       4.281  15.530  18.286  0.00  0.00    +0.000 C 
ATOM     25  C   UNL     1       5.620  14.948  17.779  0.00  0.00    +0.000 C 
ATOM     26  C   UNL     1       3.597  16.212  17.080  0.00  0.00    +0.000 C 
ATOM     27  C   UNL     1       4.622  16.608  19.337  0.00  0.00    +0.000 C 
ENDBRANCH  21  24
ENDBRANCH  15  18
ENDBRANCH   2  15
BRANCH   1  29
ATOM     28  C   UNL     1      -0.844   9.673  17.652  0.00  0.00    +0.000 C 
ATOM     29  C   UNL     1       0.633   9.591  18.019  0.00  0.00    +0.000 C 
ENDBRANCH   1  29
TORSDOF 6
ENDMDL
MODEL 9
REMARK VINA RESULT:      -7.2      5.686     10.901
REMARK  Name = 
REMARK  11 active torsions:
REMARK  status: ('A' for Active; 'I' for Inactive)
REMARK    1  A    between atoms: C_1  and  C_2
REMARK    2  A    between atoms: C_2  and  C_3
REMARK    3  A    between atoms: C_4  and  S_5
REMARK    4  A    between atoms: S_5  and  C_8
REMARK    5  A    between atoms: C_11  and  C_12
REMARK    6  A    between atoms: C_12  and  C_13
REMARK    7  A    between atoms: C_12  and  C_14
REMARK    8  A    between atoms: C_12  and  C_15
REMARK    9  A    between atoms: N_20  and  C_21
REMARK   10  A    between atoms: C_27  and  O_28
REMARK   11  A    between atoms: O_28  and  C_29
REMARK                            x       y       z     vdW  Elec       q    Type
REMARK                         _______ _______ _______ _____ _____    ______ ____
ROOT
ATOM      1  C   UNL     1       4.291   4.753  17.532  0.00  0.00    +0.000 A 
ATOM      2  C   UNL     1       3.556   5.779  18.131  0.00  0.00    +0.000 A 
ATOM      3  N   UNL     1       3.904   6.981  17.599  0.00  0.00    +0.000 NA
ATOM      4  N   UNL     1       4.813   6.760  16.667  0.00  0.00    +0.000 NA
ATOM      5  N   UNL     1       4.958   5.419  16.494  0.00  0.00    +0.000 N 
ENDROOT
BRANCH   5   6
ATOM      6  C   UNL     1       5.570   4.918  15.306  0.00  0.00    +0.000 A 
ATOM      7  C   UNL     1       4.750   4.444  14.268  0.00  0.00    +0.000 A 
ATOM      8  C   UNL     1       5.309   3.934  13.098  0.00  0.00    +0.000 A 
ATOM      9 CL   UNL     1       4.288   3.265  11.886  0.00  0.00    +0.000 Cl
ATOM     10  C   UNL     1       6.683   3.948  12.913  0.00  0.00    +0.000 A 
ATOM     11  C   UNL     1       7.509   4.464  13.912  0.00  0.00    +0.000 A 
ATOM     12  C   UNL     1       6.972   4.948  15.117  0.00  0.00    +0.000 A 
BRANCH  12  13
ATOM     13  O   UNL     1       7.772   5.337  16.158  0.00  0.00    +0.000 OA
ATOM     14  C   UNL     1       7.788   4.504  17.315  0.00  0.00    +0.000 C 
ENDBRANCH  12  13
ENDBRANCH   5   6
BRANCH   2  15
ATOM     15  S   UNL     1       2.305   5.673  19.321  0.00  0.00    +0.000 S 
ATOM     16  O   UNL     1       1.214   5.004  18.637  0.00  0.00    +0.000 OA
ATOM     17  O   UNL     1       2.932   5.089  20.493  0.00  0.00    +0.000 OA
BRANCH  15  18
ATOM     18  C   UNL     1       1.809   7.327  19.728  0.00  0.00    +0.000 A 
ATOM     19  C   UNL     1       1.696   8.297  18.732  0.00  0.00    +0.000 A 
ATOM     20  C   UNL     1       1.179   9.563  19.054  0.00  0.00    +0.000 A 
ATOM     21  C   UNL     1       0.745   9.880  20.357  0.00  0.00    +0.000 A 
ATOM     22  C   UNL     1       0.897   8.884  21.342  0.00  0.00    +0.000 A 
ATOM     23  C   UNL     1       1.411   7.618  21.033  0.00  0.00    +0.000 A 
BRANCH  21  24
ATOM     24  C   UNL     1       0.100  11.233  20.719  0.00  0.00    +0.000 C 
ATOM     25  C   UNL     1      -0.479  11.281  22.151  0.00  0.00    +0.000 C 
ATOM     26  C   UNL     1       1.166  12.347  20.623  0.00  0.00    +0.000 C 
ATOM     27  C   UNL     1      -1.054  11.568  19.750  0.00  0.00    +0.000 C 
ENDBRANCH  21  24
ENDBRANCH  15  18
ENDBRANCH   2  15
BRANCH   1  29
ATOM     28  C   UNL     1       3.137   2.448  17.518  0.00  0.00    +0.000 C 
ATOM     29  C   UNL     1       4.351   3.294  17.885  0.00  0.00    +0.000 C 
ENDBRANCH   1  29
TORSDOF 6
ENDMDL
