MODEL 1
REMARK VINA RESULT:      -7.0      0.000      0.000
REMARK  Name = 
REMARK  13 active torsions:
REMARK  status: ('A' for Active; 'I' for Inactive)
REMARK    1  A    between atoms: C_1  and  O_2
REMARK    2  A    between atoms: O_2  and  C_3
REMARK    3  A    between atoms: C_5  and  C_6
REMARK    4  A    between atoms: C_6  and  C_7
REMARK    5  A    between atoms: C_7  and  C_8
REMARK    6  A    between atoms: C_8  and  N_9
REMARK    7  A    between atoms: C_16  and  C_17
REMARK    8  A    between atoms: C_17  and  C_18
REMARK    9  A    between atoms: C_17  and  O_19
REMARK   10  A    between atoms: C_21  and  O_22
REMARK   11  A    between atoms: O_22  and  C_23
REMARK   12  A    between atoms: C_24  and  O_25
REMARK   13  A    between atoms: O_25  and  C_26
REMARK                            x       y       z     vdW  Elec       q    Type
REMARK                         _______ _______ _______ _____ _____    ______ ____
ROOT
ATOM      1  C   UNL     1       2.577   7.497  18.743  0.00  0.00    +0.000 C 
ENDROOT
BRANCH   1   2
ATOM      2  C   UNL     1       1.880   8.592  17.929  0.00  0.00    +0.000 C 
BRANCH   2   5
ATOM      3  C   UNL     1       0.295  10.450  20.886  0.00  0.00    +0.000 A 
ATOM      4  C   UNL     1       1.063   9.540  20.131  0.00  0.00    +0.000 A 
ATOM      5  C   UNL     1       0.934   9.452  18.743  0.00  0.00    +0.000 A 
ATOM      6  C   UNL     1      -0.063  10.218  18.133  0.00  0.00    +0.000 A 
ATOM      7  C   UNL     1      -0.879  11.103  18.870  0.00  0.00    +0.000 A 
ATOM      8  C   UNL     1      -0.695  11.242  20.263  0.00  0.00    +0.000 A 
BRANCH   3  10
ATOM      9  C   UNL     1      -0.287   9.625  23.039  0.00  0.00    +0.000 C 
ATOM     10  O   UNL     1       0.461  10.542  22.246  0.00  0.00    +0.000 OA
ENDBRANCH   3  10
BRANCH   7  11
ATOM     11  O   UNL     1      -1.778  11.750  18.054  0.00  0.00    +0.000 OA
ATOM     12  C   UNL     1      -3.062  11.188  17.836  0.00  0.00    +0.000 C 
ENDBRANCH   7  11
BRANCH   8  13
ATOM     13  O   UNL     1      -1.530  12.119  20.909  0.00  0.00    +0.000 OA
ATOM     14  C   UNL     1      -1.137  13.469  21.109  0.00  0.00    +0.000 C 
ENDBRANCH   8  13
ENDBRANCH   2   5
ENDBRANCH   1   2
BRANCH   1  15
ATOM     15  C   UNL     1       2.150   6.079  18.322  0.00  0.00    +0.000 C 
BRANCH  15  16
ATOM     16  N   UNL     1       3.185   5.070  18.612  0.00  0.00    +0.000 N 
ATOM     17  C   UNL     1       4.315   5.101  17.760  0.00  0.00    +0.000 C 
ATOM     18  O   UNL     1       4.358   5.745  16.718  0.00  0.00    +0.000 OA
ATOM     19  C   UNL     1       5.562   4.280  18.182  0.00  0.00    +0.000 C 
ATOM     20  O   UNL     1       6.642   4.412  17.622  0.00  0.00    +0.000 OA
ATOM     21  N   UNL     1       5.423   3.398  19.226  0.00  0.00    +0.000 N 
ATOM     22  C   UNL     1       4.132   3.120  19.802  0.00  0.00    +0.000 C 
ATOM     23  C   UNL     1       3.292   4.409  19.952  0.00  0.00    +0.000 C 
ATOM     24  H   UNL     1       6.217   2.804  19.390  0.00  0.00    +0.000 HD
BRANCH  23  25
ATOM     25  C   UNL     1       1.934   4.080  20.652  0.00  0.00    +0.000 C 
ATOM     26  C   UNL     1       1.075   3.053  19.911  0.00  0.00    +0.000 C 
BRANCH  25  27
ATOM     27  O   UNL     1       2.140   3.529  21.958  0.00  0.00    +0.000 OA
ATOM     28  H   UNL     1       3.083   3.615  22.180  0.00  0.00    +0.000 HD
ENDBRANCH  25  27
ENDBRANCH  23  25
ENDBRANCH  15  16
ENDBRANCH   1  15
TORSDOF 9
ENDMDL
MODEL 2
REMARK VINA RESULT:      -7.0      1.427      1.634
REMARK  Name = 
REMARK  13 active torsions:
REMARK  status: ('A' for Active; 'I' for Inactive)
REMARK    1  A    between atoms: C_1  and  O_2
REMARK    2  A    between atoms: O_2  and  C_3
REMARK    3  A    between atoms: C_5  and  C_6
REMARK    4  A    between atoms: C_6  and  C_7
REMARK    5  A    between atoms: C_7  and  C_8
REMARK    6  A    between atoms: C_8  and  N_9
REMARK    7  A    between atoms: C_16  and  C_17
REMARK    8  A    between atoms: C_17  and  C_18
REMARK    9  A    between atoms: C_17  and  O_19
REMARK   10  A    between atoms: C_21  and  O_22
REMARK   11  A    between atoms: O_22  and  C_23
REMARK   12  A    between atoms: C_24  and  O_25
REMARK   13  A    between atoms: O_25  and  C_26
REMARK                            x       y       z     vdW  Elec       q    Type
REMARK                         _______ _______ _______ _____ _____    ______ ____
ROOT
ATOM      1  C   UNL     1       2.348   7.189  18.816  0.00  0.00    +0.000 C 
ENDROOT
BRANCH   1   2
ATOM      2  C   UNL     1       1.788   8.419  18.095  0.00  0.00    +0.000 C 
BRANCH   2   5
ATOM      3  C   UNL     1       0.916  10.349  21.293  0.00  0.00    +0.000 A 
ATOM      4  C   UNL     1       1.145   9.297  20.382  0.00  0.00    +0.000 A 
ATOM      5  C   UNL     1       1.379   9.542  19.027  0.00  0.00    +0.000 A 
ATOM      6  C   UNL     1       1.270  10.860  18.577  0.00  0.00    +0.000 A 
ATOM      7  C   UNL     1       0.996  11.929  19.457  0.00  0.00    +0.000 A 
ATOM      8  C   UNL     1       0.832  11.684  20.838  0.00  0.00    +0.000 A 
BRANCH   3  10
ATOM      9  C   UNL     1      -0.597   9.703  23.009  0.00  0.00    +0.000 C 
ATOM     10  O   UNL     1       0.720  10.087  22.626  0.00  0.00    +0.000 OA
ENDBRANCH   3  10
BRANCH   7  11
ATOM     11  O   UNL     1       0.944  13.128  18.786  0.00  0.00    +0.000 OA
ATOM     12  C   UNL     1       2.136  13.866  18.568  0.00  0.00    +0.000 C 
ENDBRANCH   7  11
BRANCH   8  13
ATOM     13  O   UNL     1       0.563  12.774  21.628  0.00  0.00    +0.000 OA
ATOM     14  C   UNL     1      -0.773  13.223  21.800  0.00  0.00    +0.000 C 
ENDBRANCH   8  13
ENDBRANCH   2   5
ENDBRANCH   1   2
BRANCH   1  15
ATOM     15  C   UNL     1       2.254   5.907  17.968  0.00  0.00    +0.000 C 
BRANCH  15  16
ATOM     16  N   UNL     1       3.201   4.868  18.414  0.00  0.00    +0.000 N 
ATOM     17  C   UNL     1       4.535   5.036  17.972  0.00  0.00    +0.000 C 
ATOM     18  O   UNL     1       4.864   5.837  17.105  0.00  0.00    +0.000 OA
ATOM     19  C   UNL     1       5.632   4.162  18.635  0.00  0.00    +0.000 C 
ATOM     20  O   UNL     1       6.823   4.383  18.468  0.00  0.00    +0.000 OA
ATOM     21  N   UNL     1       5.224   3.125  19.439  0.00  0.00    +0.000 N 
ATOM     22  C   UNL     1       3.834   2.756  19.534  0.00  0.00    +0.000 C 
ATOM     23  C   UNL     1       2.923   4.003  19.604  0.00  0.00    +0.000 C 
ATOM     24  H   UNL     1       5.958   2.514  19.752  0.00  0.00    +0.000 HD
BRANCH  23  25
ATOM     25  C   UNL     1       1.434   3.564  19.787  0.00  0.00    +0.000 C 
ATOM     26  C   UNL     1       0.963   2.503  18.789  0.00  0.00    +0.000 C 
BRANCH  25  27
ATOM     27  O   UNL     1       1.214   2.991  21.081  0.00  0.00    +0.000 OA
ATOM     28  H   UNL     1       2.027   3.097  21.604  0.00  0.00    +0.000 HD
ENDBRANCH  25  27
ENDBRANCH  23  25
ENDBRANCH  15  16
ENDBRANCH   1  15
TORSDOF 9
ENDMDL
MODEL 3
REMARK VINA RESULT:      -7.0      1.204      3.742
REMARK  Name = 
REMARK  13 active torsions:
REMARK  status: ('A' for Active; 'I' for Inactive)
REMARK    1  A    between atoms: C_1  and  O_2
REMARK    2  A    between atoms: O_2  and  C_3
REMARK    3  A    between atoms: C_5  and  C_6
REMARK    4  A    between atoms: C_6  and  C_7
REMARK    5  A    between atoms: C_7  and  C_8
REMARK    6  A    between atoms: C_8  and  N_9
REMARK    7  A    between atoms: C_16  and  C_17
REMARK    8  A    between atoms: C_17  and  C_18
REMARK    9  A    between atoms: C_17  and  O_19
REMARK   10  A    between atoms: C_21  and  O_22
REMARK   11  A    between atoms: O_22  and  C_23
REMARK   12  A    between atoms: C_24  and  O_25
REMARK   13  A    between atoms: O_25  and  C_26
REMARK                            x       y       z     vdW  Elec       q    Type
REMARK                         _______ _______ _______ _____ _____    ______ ____
ROOT
ATOM      1  C   UNL     1       2.400   7.551  18.829  0.00  0.00    +0.000 C 
ENDROOT
BRANCH   1   2
ATOM      2  C   UNL     1       1.877   8.739  18.015  0.00  0.00    +0.000 C 
BRANCH   2   5
ATOM      3  C   UNL     1      -0.987  11.138  18.882  0.00  0.00    +0.000 A 
ATOM      4  C   UNL     1      -0.035  10.395  18.155  0.00  0.00    +0.000 A 
ATOM      5  C   UNL     1       0.967   9.664  18.798  0.00  0.00    +0.000 A 
ATOM      6  C   UNL     1       1.066   9.781  20.187  0.00  0.00    +0.000 A 
ATOM      7  C   UNL     1       0.155  10.554  20.937  0.00  0.00    +0.000 A 
ATOM      8  C   UNL     1      -0.900  11.233  20.289  0.00  0.00    +0.000 A 
BRANCH   3  10
ATOM      9  C   UNL     1      -2.497  11.219  17.046  0.00  0.00    +0.000 C 
ATOM     10  O   UNL     1      -1.983  11.823  18.230  0.00  0.00    +0.000 OA
ENDBRANCH   3  10
BRANCH   7  11
ATOM     11  O   UNL     1       0.449  10.510  22.280  0.00  0.00    +0.000 OA
ATOM     12  C   UNL     1      -0.102   9.481  23.089  0.00  0.00    +0.000 C 
ENDBRANCH   7  11
BRANCH   8  13
ATOM     13  O   UNL     1      -1.741  11.968  21.086  0.00  0.00    +0.000 OA
ATOM     14  C   UNL     1      -1.466  13.337  21.349  0.00  0.00    +0.000 C 
ENDBRANCH   8  13
ENDBRANCH   2   5
ENDBRANCH   1   2
BRANCH   1  15
ATOM     15  C   UNL     1       2.515   6.262  17.994  0.00  0.00    +0.000 C 
BRANCH  15  16
ATOM     16  N   UNL     1       3.667   5.434  18.394  0.00  0.00    +0.000 N 
ATOM     17  C   UNL     1       3.365   4.355  19.259  0.00  0.00    +0.000 C 
ATOM     18  O   UNL     1       2.288   4.228  19.830  0.00  0.00    +0.000 OA
ATOM     19  C   UNL     1       4.458   3.278  19.481  0.00  0.00    +0.000 C 
ATOM     20  O   UNL     1       4.216   2.216  20.038  0.00  0.00    +0.000 OA
ATOM     21  N   UNL     1       5.723   3.544  19.015  0.00  0.00    +0.000 N 
ATOM     22  C   UNL     1       6.066   4.841  18.488  0.00  0.00    +0.000 C 
ATOM     23  C   UNL     1       4.935   5.405  17.598  0.00  0.00    +0.000 C 
ATOM     24  H   UNL     1       6.425   2.876  19.282  0.00  0.00    +0.000 HD
BRANCH  23  25
ATOM     25  C   UNL     1       5.376   6.773  16.982  0.00  0.00    +0.000 C 
ATOM     26  C   UNL     1       6.817   7.175  17.307  0.00  0.00    +0.000 C 
BRANCH  25  27
ATOM     27  O   UNL     1       5.304   6.748  15.552  0.00  0.00    +0.000 OA
ATOM     28  H   UNL     1       5.229   5.821  15.266  0.00  0.00    +0.000 HD
ENDBRANCH  25  27
ENDBRANCH  23  25
ENDBRANCH  15  16
ENDBRANCH   1  15
TORSDOF 9
ENDMDL
MODEL 4
REMARK VINA RESULT:      -7.0      0.680      2.482
REMARK  Name = 
REMARK  13 active torsions:
REMARK  status: ('A' for Active; 'I' for Inactive)
REMARK    1  A    between atoms: C_1  and  O_2
REMARK    2  A    between atoms: O_2  and  C_3
REMARK    3  A    between atoms: C_5  and  C_6
REMARK    4  A    between atoms: C_6  and  C_7
REMARK    5  A    between atoms: C_7  and  C_8
REMARK    6  A    between atoms: C_8  and  N_9
REMARK    7  A    between atoms: C_16  and  C_17
REMARK    8  A    between atoms: C_17  and  C_18
REMARK    9  A    between atoms: C_17  and  O_19
REMARK   10  A    between atoms: C_21  and  O_22
REMARK   11  A    between atoms: O_22  and  C_23
REMARK   12  A    between atoms: C_24  and  O_25
REMARK   13  A    between atoms: O_25  and  C_26
REMARK                            x       y       z     vdW  Elec       q    Type
REMARK                         _______ _______ _______ _____ _____    ______ ____
ROOT
ATOM      1  C   UNL     1       2.249   7.313  19.034  0.00  0.00    +0.000 C 
ENDROOT
BRANCH   1   2
ATOM      2  C   UNL     1       2.124   8.677  18.347  0.00  0.00    +0.000 C 
BRANCH   2   5
ATOM      3  C   UNL     1      -0.954  10.918  18.814  0.00  0.00    +0.000 A 
ATOM      4  C   UNL     1       0.097  10.191  18.219  0.00  0.00    +0.000 A 
ATOM      5  C   UNL     1       1.098   9.593  18.986  0.00  0.00    +0.000 A 
ATOM      6  C   UNL     1       1.090   9.830  20.364  0.00  0.00    +0.000 A 
ATOM      7  C   UNL     1       0.077  10.592  20.983  0.00  0.00    +0.000 A 
ATOM      8  C   UNL     1      -0.973  11.135  20.211  0.00  0.00    +0.000 A 
BRANCH   3  10
ATOM      9  C   UNL     1      -3.016  10.609  17.673  0.00  0.00    +0.000 C 
ATOM     10  O   UNL     1      -1.945  11.472  18.042  0.00  0.00    +0.000 OA
ENDBRANCH   3  10
BRANCH   7  11
ATOM     11  O   UNL     1       0.277  10.680  22.341  0.00  0.00    +0.000 OA
ATOM     12  C   UNL     1      -0.170   9.633  23.188  0.00  0.00    +0.000 C 
ENDBRANCH   7  11
BRANCH   8  13
ATOM     13  O   UNL     1      -1.917  11.868  20.885  0.00  0.00    +0.000 OA
ATOM     14  C   UNL     1      -1.755  13.270  21.046  0.00  0.00    +0.000 C 
ENDBRANCH   8  13
ENDBRANCH   2   5
ENDBRANCH   1   2
BRANCH   1  15
ATOM     15  C   UNL     1       2.289   6.144  18.033  0.00  0.00    +0.000 C 
BRANCH  15  16
ATOM     16  N   UNL     1       3.206   5.071  18.458  0.00  0.00    +0.000 N 
ATOM     17  C   UNL     1       4.573   5.295  18.168  0.00  0.00    +0.000 C 
ATOM     18  O   UNL     1       4.970   6.185  17.425  0.00  0.00    +0.000 OA
ATOM     19  C   UNL     1       5.617   4.364  18.840  0.00  0.00    +0.000 C 
ATOM     20  O   UNL     1       6.815   4.611  18.814  0.00  0.00    +0.000 OA
ATOM     21  N   UNL     1       5.152   3.246  19.489  0.00  0.00    +0.000 N 
ATOM     22  C   UNL     1       3.767   2.859  19.410  0.00  0.00    +0.000 C 
ATOM     23  C   UNL     1       2.831   4.084  19.520  0.00  0.00    +0.000 C 
ATOM     24  H   UNL     1       5.864   2.611  19.807  0.00  0.00    +0.000 HD
BRANCH  23  25
ATOM     25  C   UNL     1       1.340   3.617  19.510  0.00  0.00    +0.000 C 
ATOM     26  C   UNL     1       1.114   2.240  18.881  0.00  0.00    +0.000 C 
BRANCH  25  27
ATOM     27  O   UNL     1       0.816   3.516  20.839  0.00  0.00    +0.000 OA
ATOM     28  H   UNL     1       1.274   4.167  21.399  0.00  0.00    +0.000 HD
ENDBRANCH  25  27
ENDBRANCH  23  25
ENDBRANCH  15  16
ENDBRANCH   1  15
TORSDOF 9
ENDMDL
MODEL 5
REMARK VINA RESULT:      -6.9      1.255      2.862
REMARK  Name = 
REMARK  13 active torsions:
REMARK  status: ('A' for Active; 'I' for Inactive)
REMARK    1  A    between atoms: C_1  and  O_2
REMARK    2  A    between atoms: O_2  and  C_3
REMARK    3  A    between atoms: C_5  and  C_6
REMARK    4  A    between atoms: C_6  and  C_7
REMARK    5  A    between atoms: C_7  and  C_8
REMARK    6  A    between atoms: C_8  and  N_9
REMARK    7  A    between atoms: C_16  and  C_17
REMARK    8  A    between atoms: C_17  and  C_18
REMARK    9  A    between atoms: C_17  and  O_19
REMARK   10  A    between atoms: C_21  and  O_22
REMARK   11  A    between atoms: O_22  and  C_23
REMARK   12  A    between atoms: C_24  and  O_25
REMARK   13  A    between atoms: O_25  and  C_26
REMARK                            x       y       z     vdW  Elec       q    Type
REMARK                         _______ _______ _______ _____ _____    ______ ____
ROOT
ATOM      1  C   UNL     1       2.329   7.442  18.909  0.00  0.00    +0.000 C 
ENDROOT
BRANCH   1   2
ATOM      2  C   UNL     1       1.834   8.644  18.098  0.00  0.00    +0.000 C 
BRANCH   2   5
ATOM      3  C   UNL     1       0.353  10.640  21.019  0.00  0.00    +0.000 A 
ATOM      4  C   UNL     1       1.043   9.657  20.281  0.00  0.00    +0.000 A 
ATOM      5  C   UNL     1       0.959   9.597  18.888  0.00  0.00    +0.000 A 
ATOM      6  C   UNL     1       0.079  10.476  18.252  0.00  0.00    +0.000 A 
ATOM      7  C   UNL     1      -0.661  11.440  18.969  0.00  0.00    +0.000 A 
ATOM      8  C   UNL     1      -0.517  11.544  20.370  0.00  0.00    +0.000 A 
BRANCH   3  10
ATOM      9  C   UNL     1      -0.367   9.829  23.135  0.00  0.00    +0.000 C 
ATOM     10  O   UNL     1       0.475  10.700  22.385  0.00  0.00    +0.000 OA
ENDBRANCH   3  10
BRANCH   7  11
ATOM     11  O   UNL     1      -1.449  12.191  18.129  0.00  0.00    +0.000 OA
ATOM     12  C   UNL     1      -2.386  11.548  17.278  0.00  0.00    +0.000 C 
ENDBRANCH   7  11
BRANCH   8  13
ATOM     13  O   UNL     1      -1.274  12.503  20.996  0.00  0.00    +0.000 OA
ATOM     14  C   UNL     1      -2.655  12.280  21.241  0.00  0.00    +0.000 C 
ENDBRANCH   8  13
ENDBRANCH   2   5
ENDBRANCH   1   2
BRANCH   1  15
ATOM     15  C   UNL     1       2.449   6.161  18.063  0.00  0.00    +0.000 C 
BRANCH  15  16
ATOM     16  N   UNL     1       3.632   5.358  18.424  0.00  0.00    +0.000 N 
ATOM     17  C   UNL     1       3.379   4.263  19.284  0.00  0.00    +0.000 C 
ATOM     18  O   UNL     1       2.321   4.103  19.883  0.00  0.00    +0.000 OA
ATOM     19  C   UNL     1       4.504   3.211  19.465  0.00  0.00    +0.000 C 
ATOM     20  O   UNL     1       4.303   2.138  20.018  0.00  0.00    +0.000 OA
ATOM     21  N   UNL     1       5.749   3.513  18.968  0.00  0.00    +0.000 N 
ATOM     22  C   UNL     1       6.046   4.823  18.447  0.00  0.00    +0.000 C 
ATOM     23  C   UNL     1       4.878   5.369  17.594  0.00  0.00    +0.000 C 
ATOM     24  H   UNL     1       6.474   2.860  19.209  0.00  0.00    +0.000 HD
BRANCH  23  25
ATOM     25  C   UNL     1       5.268   6.753  16.981  0.00  0.00    +0.000 C 
ATOM     26  C   UNL     1       6.689   7.213  17.317  0.00  0.00    +0.000 C 
BRANCH  25  27
ATOM     27  O   UNL     1       5.209   6.725  15.550  0.00  0.00    +0.000 OA
ATOM     28  H   UNL     1       5.732   5.967  15.237  0.00  0.00    +0.000 HD
ENDBRANCH  25  27
ENDBRANCH  23  25
ENDBRANCH  15  16
ENDBRANCH   1  15
TORSDOF 9
ENDMDL
MODEL 6
REMARK VINA RESULT:      -6.9      1.032      2.528
REMARK  Name = 
REMARK  13 active torsions:
REMARK  status: ('A' for Active; 'I' for Inactive)
REMARK    1  A    between atoms: C_1  and  O_2
REMARK    2  A    between atoms: O_2  and  C_3
REMARK    3  A    between atoms: C_5  and  C_6
REMARK    4  A    between atoms: C_6  and  C_7
REMARK    5  A    between atoms: C_7  and  C_8
REMARK    6  A    between atoms: C_8  and  N_9
REMARK    7  A    between atoms: C_16  and  C_17
REMARK    8  A    between atoms: C_17  and  C_18
REMARK    9  A    between atoms: C_17  and  O_19
REMARK   10  A    between atoms: C_21  and  O_22
REMARK   11  A    between atoms: O_22  and  C_23
REMARK   12  A    between atoms: C_24  and  O_25
REMARK   13  A    between atoms: O_25  and  C_26
REMARK                            x       y       z     vdW  Elec       q    Type
REMARK                         _______ _______ _______ _____ _____    ______ ____
ROOT
ATOM      1  C   UNL     1       2.400   7.326  18.745  0.00  0.00    +0.000 C 
ENDROOT
BRANCH   1   2
ATOM      2  C   UNL     1       1.783   8.517  18.007  0.00  0.00    +0.000 C 
BRANCH   2   5
ATOM      3  C   UNL     1      -0.158  11.583  19.249  0.00  0.00    +0.000 A 
ATOM      4  C   UNL     1       0.515  10.673  18.409  0.00  0.00    +0.000 A 
ATOM      5  C   UNL     1       1.207   9.576  18.926  0.00  0.00    +0.000 A 
ATOM      6  C   UNL     1       1.306   9.467  20.316  0.00  0.00    +0.000 A 
ATOM      7  C   UNL     1       0.681  10.389  21.183  0.00  0.00    +0.000 A 
ATOM      8  C   UNL     1      -0.078  11.455  20.654  0.00  0.00    +0.000 A 
BRANCH   3  10
ATOM      9  C   UNL     1      -0.130  13.845  18.515  0.00  0.00    +0.000 C 
ATOM     10  O   UNL     1      -0.859  12.637  18.716  0.00  0.00    +0.000 OA
ENDBRANCH   3  10
BRANCH   7  11
ATOM     11  O   UNL     1       0.913  10.071  22.500  0.00  0.00    +0.000 OA
ATOM     12  C   UNL     1      -0.065   9.351  23.235  0.00  0.00    +0.000 C 
ENDBRANCH   7  11
BRANCH   8  13
ATOM     13  O   UNL     1      -0.650  12.312  21.561  0.00  0.00    +0.000 OA
ATOM     14  C   UNL     1      -2.024  12.186  21.899  0.00  0.00    +0.000 C 
ENDBRANCH   8  13
ENDBRANCH   2   5
ENDBRANCH   1   2
BRANCH   1  15
ATOM     15  C   UNL     1       2.175   5.990  18.014  0.00  0.00    +0.000 C 
BRANCH  15  16
ATOM     16  N   UNL     1       3.094   4.933  18.476  0.00  0.00    +0.000 N 
ATOM     17  C   UNL     1       4.444   5.093  18.084  0.00  0.00    +0.000 C 
ATOM     18  O   UNL     1       4.813   5.904  17.241  0.00  0.00    +0.000 OA
ATOM     19  C   UNL     1       5.508   4.197  18.771  0.00  0.00    +0.000 C 
ATOM     20  O   UNL     1       6.707   4.408  18.649  0.00  0.00    +0.000 OA
ATOM     21  N   UNL     1       5.061   3.153  19.545  0.00  0.00    +0.000 N 
ATOM     22  C   UNL     1       3.665   2.798  19.585  0.00  0.00    +0.000 C 
ATOM     23  C   UNL     1       2.766   4.054  19.643  0.00  0.00    +0.000 C 
ATOM     24  H   UNL     1       5.778   2.530  19.873  0.00  0.00    +0.000 HD
BRANCH  23  25
ATOM     25  C   UNL     1       1.267   3.629  19.767  0.00  0.00    +0.000 C 
ATOM     26  C   UNL     1       0.850   2.502  18.817  0.00  0.00    +0.000 C 
BRANCH  25  27
ATOM     27  O   UNL     1       0.968   3.145  21.081  0.00  0.00    +0.000 OA
ATOM     28  H   UNL     1       0.002   3.087  21.173  0.00  0.00    +0.000 HD
ENDBRANCH  25  27
ENDBRANCH  23  25
ENDBRANCH  15  16
ENDBRANCH   1  15
TORSDOF 9
ENDMDL
MODEL 7
REMARK VINA RESULT:      -6.9      1.562      1.613
REMARK  Name = 
REMARK  13 active torsions:
REMARK  status: ('A' for Active; 'I' for Inactive)
REMARK    1  A    between atoms: C_1  and  O_2
REMARK    2  A    between atoms: O_2  and  C_3
REMARK    3  A    between atoms: C_5  and  C_6
REMARK    4  A    between atoms: C_6  and  C_7
REMARK    5  A    between atoms: C_7  and  C_8
REMARK    6  A    between atoms: C_8  and  N_9
REMARK    7  A    between atoms: C_16  and  C_17
REMARK    8  A    between atoms: C_17  and  C_18
REMARK    9  A    between atoms: C_17  and  O_19
REMARK   10  A    between atoms: C_21  and  O_22
REMARK   11  A    between atoms: O_22  and  C_23
REMARK   12  A    between atoms: C_24  and  O_25
REMARK   13  A    between atoms: O_25  and  C_26
REMARK                            x       y       z     vdW  Elec       q    Type
REMARK                         _______ _______ _______ _____ _____    ______ ____
ROOT
ATOM      1  C   UNL     1       2.502   7.466  18.829  0.00  0.00    +0.000 C 
ENDROOT
BRANCH   1   2
ATOM      2  C   UNL     1       2.366   8.591  17.798  0.00  0.00    +0.000 C 
BRANCH   2   5
ATOM      3  C   UNL     1       0.621  11.837  18.862  0.00  0.00    +0.000 A 
ATOM      4  C   UNL     1       1.596  10.833  18.691  0.00  0.00    +0.000 A 
ATOM      5  C   UNL     1       1.279   9.595  18.128  0.00  0.00    +0.000 A 
ATOM      6  C   UNL     1      -0.064   9.338  17.838  0.00  0.00    +0.000 A 
ATOM      7  C   UNL     1      -1.069  10.307  18.041  0.00  0.00    +0.000 A 
ATOM      8  C   UNL     1      -0.732  11.583  18.543  0.00  0.00    +0.000 A 
BRANCH   3  10
ATOM      9  C   UNL     1       1.325  13.075  20.766  0.00  0.00    +0.000 C 
ATOM     10  O   UNL     1       0.962  13.058  19.389  0.00  0.00    +0.000 OA
ENDBRANCH   3  10
BRANCH   7  11
ATOM     11  O   UNL     1      -2.306   9.828  17.677  0.00  0.00    +0.000 OA
ATOM     12  C   UNL     1      -2.747   9.963  16.334  0.00  0.00    +0.000 C 
ENDBRANCH   7  11
BRANCH   8  13
ATOM     13  O   UNL     1      -1.766  12.468  18.718  0.00  0.00    +0.000 OA
ATOM     14  C   UNL     1      -2.459  12.527  19.956  0.00  0.00    +0.000 C 
ENDBRANCH   8  13
ENDBRANCH   2   5
ENDBRANCH   1   2
BRANCH   1  15
ATOM     15  C   UNL     1       2.176   6.079  18.244  0.00  0.00    +0.000 C 
BRANCH  15  16
ATOM     16  N   UNL     1       3.216   5.080  18.552  0.00  0.00    +0.000 N 
ATOM     17  C   UNL     1       4.356   5.117  17.714  0.00  0.00    +0.000 C 
ATOM     18  O   UNL     1       4.407   5.758  16.670  0.00  0.00    +0.000 OA
ATOM     19  C   UNL     1       5.604   4.309  18.155  0.00  0.00    +0.000 C 
ATOM     20  O   UNL     1       6.690   4.448  17.609  0.00  0.00    +0.000 OA
ATOM     21  N   UNL     1       5.459   3.429  19.201  0.00  0.00    +0.000 N 
ATOM     22  C   UNL     1       4.163   3.143  19.761  0.00  0.00    +0.000 C 
ATOM     23  C   UNL     1       3.311   4.425  19.895  0.00  0.00    +0.000 C 
ATOM     24  H   UNL     1       6.256   2.842  19.377  0.00  0.00    +0.000 HD
BRANCH  23  25
ATOM     25  C   UNL     1       1.946   4.088  20.579  0.00  0.00    +0.000 C 
ATOM     26  C   UNL     1       1.144   2.988  19.877  0.00  0.00    +0.000 C 
BRANCH  25  27
ATOM     27  O   UNL     1       2.136   3.620  21.919  0.00  0.00    +0.000 OA
ATOM     28  H   UNL     1       2.482   4.356  22.453  0.00  0.00    +0.000 HD
ENDBRANCH  25  27
ENDBRANCH  23  25
ENDBRANCH  15  16
ENDBRANCH   1  15
TORSDOF 9
ENDMDL
MODEL 8
REMARK VINA RESULT:      -6.8      1.814      3.190
REMARK  Name = 
REMARK  13 active torsions:
REMARK  status: ('A' for Active; 'I' for Inactive)
REMARK    1  A    between atoms: C_1  and  O_2
REMARK    2  A    between atoms: O_2  and  C_3
REMARK    3  A    between atoms: C_5  and  C_6
REMARK    4  A    between atoms: C_6  and  C_7
REMARK    5  A    between atoms: C_7  and  C_8
REMARK    6  A    between atoms: C_8  and  N_9
REMARK    7  A    between atoms: C_16  and  C_17
REMARK    8  A    between atoms: C_17  and  C_18
REMARK    9  A    between atoms: C_17  and  O_19
REMARK   10  A    between atoms: C_21  and  O_22
REMARK   11  A    between atoms: O_22  and  C_23
REMARK   12  A    between atoms: C_24  and  O_25
REMARK   13  A    between atoms: O_25  and  C_26
REMARK                            x       y       z     vdW  Elec       q    Type
REMARK                         _______ _______ _______ _____ _____    ______ ____
ROOT
ATOM      1  C   UNL     1       2.701   7.819  18.486  0.00  0.00    +0.000 C 
ENDROOT
BRANCH   1   2
ATOM      2  C   UNL     1       1.599   8.764  17.995  0.00  0.00    +0.000 C 
BRANCH   2   5
ATOM      3  C   UNL     1       0.767  10.567  21.276  0.00  0.00    +0.000 A 
ATOM      4  C   UNL     1       0.944   9.556  20.309  0.00  0.00    +0.000 A 
ATOM      5  C   UNL     1       1.248   9.860  18.981  0.00  0.00    +0.000 A 
ATOM      6  C   UNL     1       1.263  11.207  18.610  0.00  0.00    +0.000 A 
ATOM      7  C   UNL     1       1.044  12.241  19.545  0.00  0.00    +0.000 A 
ATOM      8  C   UNL     1       0.809  11.930  20.902  0.00  0.00    +0.000 A 
BRANCH   3  10
ATOM      9  C   UNL     1      -0.435   9.191  22.797  0.00  0.00    +0.000 C 
ATOM     10  O   UNL     1       0.500  10.245  22.583  0.00  0.00    +0.000 OA
ENDBRANCH   3  10
BRANCH   7  11
ATOM     11  O   UNL     1       1.116  13.478  18.948  0.00  0.00    +0.000 OA
ATOM     12  C   UNL     1      -0.073  14.121  18.515  0.00  0.00    +0.000 C 
ENDBRANCH   7  11
BRANCH   8  13
ATOM     13  O   UNL     1       0.600  12.989  21.749  0.00  0.00    +0.000 OA
ATOM     14  C   UNL     1      -0.718  13.350  22.134  0.00  0.00    +0.000 C 
ENDBRANCH   8  13
ENDBRANCH   2   5
ENDBRANCH   1   2
BRANCH   1  15
ATOM     15  C   UNL     1       2.679   6.456  17.770  0.00  0.00    +0.000 C 
BRANCH  15  16
ATOM     16  N   UNL     1       3.719   5.539  18.273  0.00  0.00    +0.000 N 
ATOM     17  C   UNL     1       3.254   4.501  19.114  0.00  0.00    +0.000 C 
ATOM     18  O   UNL     1       2.124   4.471  19.591  0.00  0.00    +0.000 OA
ATOM     19  C   UNL     1       4.230   3.339  19.436  0.00  0.00    +0.000 C 
ATOM     20  O   UNL     1       3.851   2.308  19.977  0.00  0.00    +0.000 OA
ATOM     21  N   UNL     1       5.548   3.493  19.080  0.00  0.00    +0.000 N 
ATOM     22  C   UNL     1       6.042   4.750  18.578  0.00  0.00    +0.000 C 
ATOM     23  C   UNL     1       5.044   5.395  17.591  0.00  0.00    +0.000 C 
ATOM     24  H   UNL     1       6.165   2.773  19.411  0.00  0.00    +0.000 HD
BRANCH  23  25
ATOM     25  C   UNL     1       5.649   6.713  17.007  0.00  0.00    +0.000 C 
ATOM     26  C   UNL     1       7.123   6.938  17.355  0.00  0.00    +0.000 C 
BRANCH  25  27
ATOM     27  O   UNL     1       5.592   6.725  15.577  0.00  0.00    +0.000 OA
ATOM     28  H   UNL     1       6.492   6.589  15.234  0.00  0.00    +0.000 HD
ENDBRANCH  25  27
ENDBRANCH  23  25
ENDBRANCH  15  16
ENDBRANCH   1  15
TORSDOF 9
ENDMDL
MODEL 9
REMARK VINA RESULT:      -6.8      2.521      8.251
REMARK  Name = 
REMARK  13 active torsions:
REMARK  status: ('A' for Active; 'I' for Inactive)
REMARK    1  A    between atoms: C_1  and  O_2
REMARK    2  A    between atoms: O_2  and  C_3
REMARK    3  A    between atoms: C_5  and  C_6
REMARK    4  A    between atoms: C_6  and  C_7
REMARK    5  A    between atoms: C_7  and  C_8
REMARK    6  A    between atoms: C_8  and  N_9
REMARK    7  A    between atoms: C_16  and  C_17
REMARK    8  A    between atoms: C_17  and  C_18
REMARK    9  A    between atoms: C_17  and  O_19
REMARK   10  A    between atoms: C_21  and  O_22
REMARK   11  A    between atoms: O_22  and  C_23
REMARK   12  A    between atoms: C_24  and  O_25
REMARK   13  A    between atoms: O_25  and  C_26
REMARK                            x       y       z     vdW  Elec       q    Type
REMARK                         _______ _______ _______ _____ _____    ______ ____
ROOT
ATOM      1  C   UNL     1       1.343   9.024  18.311  0.00  0.00    +0.000 C 
ENDROOT
BRANCH   1   2
ATOM      2  C   UNL     1       2.576   8.514  17.558  0.00  0.00    +0.000 C 
BRANCH   2   5
ATOM      3  C   UNL     1       4.725   5.360  17.941  0.00  0.00    +0.000 A 
ATOM      4  C   UNL     1       4.147   6.532  17.412  0.00  0.00    +0.000 A 
ATOM      5  C   UNL     1       3.077   7.169  18.045  0.00  0.00    +0.000 A 
ATOM      6  C   UNL     1       2.521   6.545  19.165  0.00  0.00    +0.000 A 
ATOM      7  C   UNL     1       3.049   5.346  19.691  0.00  0.00    +0.000 A 
ATOM      8  C   UNL     1       4.176   4.746  19.089  0.00  0.00    +0.000 A 
BRANCH   3  10
ATOM      9  C   UNL     1       7.088   5.226  17.712  0.00  0.00    +0.000 C 
ATOM     10  O   UNL     1       5.797   4.769  17.319  0.00  0.00    +0.000 OA
ENDBRANCH   3  10
BRANCH   7  11
ATOM     11  O   UNL     1       2.341   4.931  20.794  0.00  0.00    +0.000 OA
ATOM     12  C   UNL     1       1.098   4.267  20.626  0.00  0.00    +0.000 C 
ENDBRANCH   7  11
BRANCH   8  13
ATOM     13  O   UNL     1       4.627   3.580  19.655  0.00  0.00    +0.000 OA
ATOM     14  C   UNL     1       4.050   2.335  19.290  0.00  0.00    +0.000 C 
ENDBRANCH   8  13
ENDBRANCH   2   5
ENDBRANCH   1   2
BRANCH   1  15
ATOM     15  C   UNL     1       1.610  10.338  19.068  0.00  0.00    +0.000 C 
BRANCH  15  16
ATOM     16  N   UNL     1       0.555  10.645  20.052  0.00  0.00    +0.000 N 
ATOM     17  C   UNL     1       0.656   9.953  21.282  0.00  0.00    +0.000 C 
ATOM     18  O   UNL     1       1.409   9.002  21.464  0.00  0.00    +0.000 OA
ATOM     19  C   UNL     1      -0.230  10.437  22.459  0.00  0.00    +0.000 C 
ATOM     20  O   UNL     1      -0.060  10.038  23.603  0.00  0.00    +0.000 OA
ATOM     21  N   UNL     1      -1.218  11.351  22.182  0.00  0.00    +0.000 N 
ATOM     22  C   UNL     1      -1.531  11.722  20.826  0.00  0.00    +0.000 C 
ATOM     23  C   UNL     1      -0.251  11.905  19.981  0.00  0.00    +0.000 C 
ATOM     24  H   UNL     1      -1.842  11.547  22.945  0.00  0.00    +0.000 HD
BRANCH  23  25
ATOM     25  C   UNL     1      -0.626  12.386  18.542  0.00  0.00    +0.000 C 
ATOM     26  C   UNL     1      -1.886  11.731  17.968  0.00  0.00    +0.000 C 
BRANCH  25  27
ATOM     27  O   UNL     1      -0.885  13.794  18.513  0.00  0.00    +0.000 OA
ATOM     28  H   UNL     1      -1.367  14.033  19.323  0.00  0.00    +0.000 HD
ENDBRANCH  25  27
ENDBRANCH  23  25
ENDBRANCH  15  16
ENDBRANCH   1  15
TORSDOF 9
ENDMDL
