MODEL 1
REMARK VINA RESULT:      -8.8      0.000      0.000
REMARK  Name = 
REMARK  6 active torsions:
REMARK  status: ('A' for Active; 'I' for Inactive)
REMARK    1  A    between atoms: C_2  and  C_11
REMARK    2  A    between atoms: N_3  and  S_4
REMARK    3  A    between atoms: S_4  and  N_7
REMARK    4  A    between atoms: C_13  and  C_14
REMARK    5  A    between atoms: C_17  and  O_18
REMARK    6  A    between atoms: O_18  and  C_19
REMARK                            x       y       z     vdW  Elec       q    Type
REMARK                         _______ _______ _______ _____ _____    ______ ____
ROOT
ATOM      1  C   UNL     1       1.071   8.330  20.517  0.00  0.00    +0.000 A 
ATOM      2  C   UNL     1       1.438   7.019  20.848  0.00  0.00    +0.000 A 
ATOM      3  C   UNL     1       2.236   6.213  19.988  0.00  0.00    +0.000 A 
ATOM      4  C   UNL     1       2.668   6.803  18.755  0.00  0.00    +0.000 A 
ATOM      5  C   UNL     1       2.326   8.134  18.468  0.00  0.00    +0.000 A 
ATOM      6  C   UNL     1       1.534   8.873  19.340  0.00  0.00    +0.000 A 
ATOM      7  F   UNL     1       1.258  10.142  19.008  0.00  0.00    +0.000 F 
ENDROOT
BRANCH   1   9
ATOM      8  O   UNL     1      -0.812   8.642  21.862  0.00  0.00    +0.000 OA
ATOM      9  C   UNL     1       0.170   9.153  21.343  0.00  0.00    +0.000 C 
ATOM     10  N   UNL     1       0.539  10.504  21.491  0.00  0.00    +0.000 N 
ATOM     11  H   UNL     1       1.099  10.910  20.751  0.00  0.00    +0.000 HD
BRANCH  10  12
ATOM     12  S   UNL     1      -0.601  11.616  22.003  0.00  0.00    +0.000 S 
ATOM     13  O   UNL     1      -1.566  11.756  20.938  0.00  0.00    +0.000 OA
ATOM     14  O   UNL     1      -0.968  11.407  23.379  0.00  0.00    +0.000 OA
BRANCH  12  15
ATOM     15  N   UNL     1       0.378  12.992  21.959  0.00  0.00    +0.000 NA
ATOM     16  C   UNL     1       1.087  13.426  20.714  0.00  0.00    +0.000 C 
ATOM     17  C   UNL     1       0.996  14.882  21.196  0.00  0.00    +0.000 C 
ATOM     18  C   UNL     1      -0.143  14.386  22.101  0.00  0.00    +0.000 C 
ENDBRANCH  12  15
ENDBRANCH  10  12
ENDBRANCH   1   9
BRANCH   3  19
ATOM     19  C   UNL     1       2.574   4.767  20.389  0.00  0.00    +0.000 C 
ATOM     20  C   UNL     1       1.500   3.882  20.991  0.00  0.00    +0.000 C 
ATOM     21  C   UNL     1       2.042   3.554  19.636  0.00  0.00    +0.000 C 
ENDBRANCH   3  19
BRANCH   4  22
ATOM     22  O   UNL     1       3.373   6.034  17.844  0.00  0.00    +0.000 OA
BRANCH  22  23
ATOM     23  C   UNL     1       4.827   5.937  17.970  0.00  0.00    +0.000 C 
ATOM     24  C   UNL     1       5.273   4.468  17.764  0.00  0.00    +0.000 C 
ATOM     25  C   UNL     1       4.838   4.016  16.358  0.00  0.00    +0.000 C 
ATOM     26  C   UNL     1       5.495   4.904  15.285  0.00  0.00    +0.000 C 
ATOM     27  C   UNL     1       7.020   4.740  15.400  0.00  0.00    +0.000 C 
ATOM     28  C   UNL     1       7.490   5.189  16.797  0.00  0.00    +0.000 C 
ATOM     29  C   UNL     1       6.805   4.339  17.877  0.00  0.00    +0.000 C 
ATOM     30  C   UNL     1       7.092   6.656  17.035  0.00  0.00    +0.000 C 
ATOM     31  C   UNL     1       5.553   6.820  16.913  0.00  0.00    +0.000 C 
ATOM     32  C   UNL     1       5.145   6.388  15.500  0.00  0.00    +0.000 C 
ENDBRANCH  22  23
ENDBRANCH   4  22
TORSDOF 6
ENDMDL
MODEL 2
REMARK VINA RESULT:      -8.5      1.273      1.521
REMARK  Name = 
REMARK  6 active torsions:
REMARK  status: ('A' for Active; 'I' for Inactive)
REMARK    1  A    between atoms: C_2  and  C_11
REMARK    2  A    between atoms: N_3  and  S_4
REMARK    3  A    between atoms: S_4  and  N_7
REMARK    4  A    between atoms: C_13  and  C_14
REMARK    5  A    between atoms: C_17  and  O_18
REMARK    6  A    between atoms: O_18  and  C_19
REMARK                            x       y       z     vdW  Elec       q    Type
REMARK                         _______ _______ _______ _____ _____    ______ ____
ROOT
ATOM      1  C   UNL     1       1.146   8.369  20.516  0.00  0.00    +0.000 A 
ATOM      2  C   UNL     1       1.491   7.056  20.866  0.00  0.00    +0.000 A 
ATOM      3  C   UNL     1       2.262   6.219  20.010  0.00  0.00    +0.000 A 
ATOM      4  C   UNL     1       2.687   6.778  18.760  0.00  0.00    +0.000 A 
ATOM      5  C   UNL     1       2.367   8.110  18.454  0.00  0.00    +0.000 A 
ATOM      6  C   UNL     1       1.602   8.880  19.323  0.00  0.00    +0.000 A 
ATOM      7  F   UNL     1       1.346  10.148  18.970  0.00  0.00    +0.000 F 
ENDROOT
BRANCH   1   9
ATOM      8  O   UNL     1      -0.774   8.773  21.782  0.00  0.00    +0.000 OA
ATOM      9  C   UNL     1       0.273   9.224  21.338  0.00  0.00    +0.000 C 
ATOM     10  N   UNL     1       0.741  10.530  21.573  0.00  0.00    +0.000 N 
ATOM     11  H   UNL     1       1.371  10.923  20.883  0.00  0.00    +0.000 HD
BRANCH  10  12
ATOM     12  S   UNL     1      -0.329  11.709  22.087  0.00  0.00    +0.000 S 
ATOM     13  O   UNL     1      -0.986  11.199  23.269  0.00  0.00    +0.000 OA
ATOM     14  O   UNL     1       0.250  13.024  22.012  0.00  0.00    +0.000 OA
BRANCH  12  15
ATOM     15  N   UNL     1      -1.440  11.586  20.821  0.00  0.00    +0.000 NA
ATOM     16  C   UNL     1      -2.695  12.399  20.780  0.00  0.00    +0.000 C 
ATOM     17  C   UNL     1      -2.645  12.360  19.245  0.00  0.00    +0.000 C 
ATOM     18  C   UNL     1      -1.156  12.027  19.422  0.00  0.00    +0.000 C 
ENDBRANCH  12  15
ENDBRANCH  10  12
ENDBRANCH   1   9
BRANCH   3  19
ATOM     19  C   UNL     1       2.578   4.774  20.433  0.00  0.00    +0.000 C 
ATOM     20  C   UNL     1       1.475   3.896  20.991  0.00  0.00    +0.000 C 
ATOM     21  C   UNL     1       2.076   3.559  19.663  0.00  0.00    +0.000 C 
ENDBRANCH   3  19
BRANCH   4  22
ATOM     22  O   UNL     1       3.364   5.979  17.854  0.00  0.00    +0.000 OA
BRANCH  22  23
ATOM     23  C   UNL     1       4.818   5.857  17.961  0.00  0.00    +0.000 C 
ATOM     24  C   UNL     1       5.251   4.418  17.587  0.00  0.00    +0.000 C 
ATOM     25  C   UNL     1       4.806   4.131  16.141  0.00  0.00    +0.000 C 
ATOM     26  C   UNL     1       5.466   5.130  15.172  0.00  0.00    +0.000 C 
ATOM     27  C   UNL     1       6.989   4.943  15.260  0.00  0.00    +0.000 C 
ATOM     28  C   UNL     1       7.470   5.227  16.696  0.00  0.00    +0.000 C 
ATOM     29  C   UNL     1       6.782   4.265  17.677  0.00  0.00    +0.000 C 
ATOM     30  C   UNL     1       7.084   6.660  17.101  0.00  0.00    +0.000 C 
ATOM     31  C   UNL     1       5.546   6.849  17.007  0.00  0.00    +0.000 C 
ATOM     32  C   UNL     1       5.128   6.583  15.556  0.00  0.00    +0.000 C 
ENDBRANCH  22  23
ENDBRANCH   4  22
TORSDOF 6
ENDMDL
MODEL 3
REMARK VINA RESULT:      -8.5      1.543      1.817
REMARK  Name = 
REMARK  6 active torsions:
REMARK  status: ('A' for Active; 'I' for Inactive)
REMARK    1  A    between atoms: C_2  and  C_11
REMARK    2  A    between atoms: N_3  and  S_4
REMARK    3  A    between atoms: S_4  and  N_7
REMARK    4  A    between atoms: C_13  and  C_14
REMARK    5  A    between atoms: C_17  and  O_18
REMARK    6  A    between atoms: O_18  and  C_19
REMARK                            x       y       z     vdW  Elec       q    Type
REMARK                         _______ _______ _______ _____ _____    ______ ____
ROOT
ATOM      1  C   UNL     1       1.222   9.085  19.453  0.00  0.00    +0.000 A 
ATOM      2  C   UNL     1       1.379   7.916  20.210  0.00  0.00    +0.000 A 
ATOM      3  C   UNL     1       2.156   6.814  19.753  0.00  0.00    +0.000 A 
ATOM      4  C   UNL     1       2.792   6.948  18.476  0.00  0.00    +0.000 A 
ATOM      5  C   UNL     1       2.657   8.147  17.759  0.00  0.00    +0.000 A 
ATOM      6  C   UNL     1       1.876   9.189  18.247  0.00  0.00    +0.000 A 
ATOM      7  F   UNL     1       1.803  10.309  17.515  0.00  0.00    +0.000 F 
ENDROOT
BRANCH   1   9
ATOM      8  O   UNL     1      -0.816  10.225  19.486  0.00  0.00    +0.000 OA
ATOM      9  C   UNL     1       0.349  10.201  19.858  0.00  0.00    +0.000 C 
ATOM     10  N   UNL     1       0.943  11.173  20.685  0.00  0.00    +0.000 N 
ATOM     11  H   UNL     1       1.948  11.283  20.616  0.00  0.00    +0.000 HD
BRANCH  10  12
ATOM     12  S   UNL     1       0.225  12.676  20.835  0.00  0.00    +0.000 S 
ATOM     13  O   UNL     1       0.998  13.421  21.802  0.00  0.00    +0.000 OA
ATOM     14  O   UNL     1      -0.165  13.210  19.557  0.00  0.00    +0.000 OA
BRANCH  12  15
ATOM     15  N   UNL     1      -1.189  12.185  21.617  0.00  0.00    +0.000 NA
ATOM     16  C   UNL     1      -1.166  11.460  22.926  0.00  0.00    +0.000 C 
ATOM     17  C   UNL     1      -2.530  12.079  23.268  0.00  0.00    +0.000 C 
ATOM     18  C   UNL     1      -2.185  13.132  22.203  0.00  0.00    +0.000 C 
ENDBRANCH  12  15
ENDBRANCH  10  12
ENDBRANCH   1   9
BRANCH   3  19
ATOM     19  C   UNL     1       2.261   5.542  20.612  0.00  0.00    +0.000 C 
ATOM     20  C   UNL     1       1.132   4.530  20.598  0.00  0.00    +0.000 C 
ATOM     21  C   UNL     1       2.457   4.155  20.014  0.00  0.00    +0.000 C 
ENDBRANCH   3  19
BRANCH   4  22
ATOM     22  O   UNL     1       3.488   5.873  17.947  0.00  0.00    +0.000 OA
BRANCH  22  23
ATOM     23  C   UNL     1       4.948   5.864  18.024  0.00  0.00    +0.000 C 
ATOM     24  C   UNL     1       5.474   4.423  17.812  0.00  0.00    +0.000 C 
ATOM     25  C   UNL     1       5.020   3.934  16.424  0.00  0.00    +0.000 C 
ATOM     26  C   UNL     1       5.587   4.851  15.324  0.00  0.00    +0.000 C 
ATOM     27  C   UNL     1       7.121   4.779  15.389  0.00  0.00    +0.000 C 
ATOM     28  C   UNL     1       7.611   5.266  16.767  0.00  0.00    +0.000 C 
ATOM     29  C   UNL     1       7.014   4.386  17.875  0.00  0.00    +0.000 C 
ATOM     30  C   UNL     1       7.133   6.709  17.009  0.00  0.00    +0.000 C 
ATOM     31  C   UNL     1       5.584   6.781  16.938  0.00  0.00    +0.000 C 
ATOM     32  C   UNL     1       5.156   6.313  15.542  0.00  0.00    +0.000 C 
ENDBRANCH  22  23
ENDBRANCH   4  22
TORSDOF 6
ENDMDL
MODEL 4
REMARK VINA RESULT:      -8.4      0.916      1.503
REMARK  Name = 
REMARK  6 active torsions:
REMARK  status: ('A' for Active; 'I' for Inactive)
REMARK    1  A    between atoms: C_2  and  C_11
REMARK    2  A    between atoms: N_3  and  S_4
REMARK    3  A    between atoms: S_4  and  N_7
REMARK    4  A    between atoms: C_13  and  C_14
REMARK    5  A    between atoms: C_17  and  O_18
REMARK    6  A    between atoms: O_18  and  C_19
REMARK                            x       y       z     vdW  Elec       q    Type
REMARK                         _______ _______ _______ _____ _____    ______ ____
ROOT
ATOM      1  C   UNL     1       1.192   8.617  20.258  0.00  0.00    +0.000 A 
ATOM      2  C   UNL     1       1.531   7.335  20.712  0.00  0.00    +0.000 A 
ATOM      3  C   UNL     1       2.206   6.391  19.887  0.00  0.00    +0.000 A 
ATOM      4  C   UNL     1       2.541   6.808  18.557  0.00  0.00    +0.000 A 
ATOM      5  C   UNL     1       2.231   8.113  18.142  0.00  0.00    +0.000 A 
ATOM      6  C   UNL     1       1.561   8.992  18.986  0.00  0.00    +0.000 A 
ATOM      7  F   UNL     1       1.310  10.226  18.528  0.00  0.00    +0.000 F 
ENDROOT
BRANCH   1   9
ATOM      8  O   UNL     1      -0.507   9.181  21.757  0.00  0.00    +0.000 OA
ATOM      9  C   UNL     1       0.413   9.580  21.056  0.00  0.00    +0.000 C 
ATOM     10  N   UNL     1       0.819  10.924  20.961  0.00  0.00    +0.000 N 
ATOM     11  H   UNL     1       1.291  11.201  20.108  0.00  0.00    +0.000 HD
BRANCH  10  12
ATOM     12  S   UNL     1      -0.230  12.137  21.438  0.00  0.00    +0.000 S 
ATOM     13  O   UNL     1      -1.370  12.084  20.551  0.00  0.00    +0.000 OA
ATOM     14  O   UNL     1      -0.347  12.207  22.870  0.00  0.00    +0.000 OA
BRANCH  12  15
ATOM     15  N   UNL     1       0.703  13.459  20.954  0.00  0.00    +0.000 NA
ATOM     16  C   UNL     1       2.174  13.348  20.704  0.00  0.00    +0.000 C 
ATOM     17  C   UNL     1       2.062  14.481  19.672  0.00  0.00    +0.000 C 
ATOM     18  C   UNL     1       0.567  14.129  19.625  0.00  0.00    +0.000 C 
ENDBRANCH  12  15
ENDBRANCH  10  12
ENDBRANCH   1   9
BRANCH   3  19
ATOM     19  C   UNL     1       2.518   4.986  20.428  0.00  0.00    +0.000 C 
ATOM     20  C   UNL     1       1.385   4.083  20.874  0.00  0.00    +0.000 C 
ATOM     21  C   UNL     1       2.181   3.712  19.664  0.00  0.00    +0.000 C 
ENDBRANCH   3  19
BRANCH   4  22
ATOM     22  O   UNL     1       3.120   5.900  17.685  0.00  0.00    +0.000 OA
BRANCH  22  23
ATOM     23  C   UNL     1       4.357   6.264  16.996  0.00  0.00    +0.000 C 
ATOM     24  C   UNL     1       5.459   6.586  18.036  0.00  0.00    +0.000 C 
ATOM     25  C   UNL     1       5.693   5.338  18.906  0.00  0.00    +0.000 C 
ATOM     26  C   UNL     1       6.147   4.155  18.031  0.00  0.00    +0.000 C 
ATOM     27  C   UNL     1       7.478   4.541  17.363  0.00  0.00    +0.000 C 
ATOM     28  C   UNL     1       7.278   5.787  16.480  0.00  0.00    +0.000 C 
ATOM     29  C   UNL     1       6.781   6.961  17.337  0.00  0.00    +0.000 C 
ATOM     30  C   UNL     1       6.208   5.503  15.411  0.00  0.00    +0.000 C 
ATOM     31  C   UNL     1       4.867   5.108  16.087  0.00  0.00    +0.000 C 
ATOM     32  C   UNL     1       5.116   3.851  16.928  0.00  0.00    +0.000 C 
ENDBRANCH  22  23
ENDBRANCH   4  22
TORSDOF 6
ENDMDL
MODEL 5
REMARK VINA RESULT:      -8.3      2.851      4.749
REMARK  Name = 
REMARK  6 active torsions:
REMARK  status: ('A' for Active; 'I' for Inactive)
REMARK    1  A    between atoms: C_2  and  C_11
REMARK    2  A    between atoms: N_3  and  S_4
REMARK    3  A    between atoms: S_4  and  N_7
REMARK    4  A    between atoms: C_13  and  C_14
REMARK    5  A    between atoms: C_17  and  O_18
REMARK    6  A    between atoms: O_18  and  C_19
REMARK                            x       y       z     vdW  Elec       q    Type
REMARK                         _______ _______ _______ _____ _____    ______ ____
ROOT
ATOM      1  C   UNL     1       1.457   9.341  18.923  0.00  0.00    +0.000 A 
ATOM      2  C   UNL     1       2.289   8.786  17.941  0.00  0.00    +0.000 A 
ATOM      3  C   UNL     1       2.992   7.564  18.144  0.00  0.00    +0.000 A 
ATOM      4  C   UNL     1       2.808   6.906  19.404  0.00  0.00    +0.000 A 
ATOM      5  C   UNL     1       1.934   7.460  20.352  0.00  0.00    +0.000 A 
ATOM      6  C   UNL     1       1.280   8.662  20.106  0.00  0.00    +0.000 A 
ATOM      7  F   UNL     1       0.450   9.124  21.052  0.00  0.00    +0.000 F 
ENDROOT
BRANCH   1   9
ATOM      8  O   UNL     1       1.295  11.643  19.281  0.00  0.00    +0.000 OA
ATOM      9  C   UNL     1       0.793  10.648  18.777  0.00  0.00    +0.000 C 
ATOM     10  N   UNL     1      -0.397  10.649  18.025  0.00  0.00    +0.000 N 
ATOM     11  H   UNL     1      -0.920   9.781  17.992  0.00  0.00    +0.000 HD
BRANCH  10  12
ATOM     12  S   UNL     1      -1.458  11.934  18.164  0.00  0.00    +0.000 S 
ATOM     13  O   UNL     1      -2.252  11.703  19.349  0.00  0.00    +0.000 OA
ATOM     14  O   UNL     1      -0.815  13.190  17.878  0.00  0.00    +0.000 OA
BRANCH  12  15
ATOM     15  N   UNL     1      -2.442  11.572  16.840  0.00  0.00    +0.000 NA
ATOM     16  C   UNL     1      -2.418  10.233  16.172  0.00  0.00    +0.000 C 
ATOM     17  C   UNL     1      -3.893  10.424  15.786  0.00  0.00    +0.000 C 
ATOM     18  C   UNL     1      -3.931  11.464  16.917  0.00  0.00    +0.000 C 
ENDBRANCH  12  15
ENDBRANCH  10  12
ENDBRANCH   1   9
BRANCH   3  19
ATOM     19  C   UNL     1       3.920   7.023  17.043  0.00  0.00    +0.000 C 
ATOM     20  C   UNL     1       5.307   7.612  16.872  0.00  0.00    +0.000 C 
ATOM     21  C   UNL     1       5.166   6.199  17.343  0.00  0.00    +0.000 C 
ENDBRANCH   3  19
BRANCH   4  22
ATOM     22  O   UNL     1       3.535   5.761  19.685  0.00  0.00    +0.000 OA
BRANCH  22  23
ATOM     23  C   UNL     1       2.826   4.554  20.109  0.00  0.00    +0.000 C 
ATOM     24  C   UNL     1       1.551   4.368  19.250  0.00  0.00    +0.000 C 
ATOM     25  C   UNL     1       1.968   4.239  17.774  0.00  0.00    +0.000 C 
ATOM     26  C   UNL     1       2.891   3.021  17.585  0.00  0.00    +0.000 C 
ATOM     27  C   UNL     1       2.105   1.761  17.982  0.00  0.00    +0.000 C 
ATOM     28  C   UNL     1       1.675   1.856  19.459  0.00  0.00    +0.000 C 
ATOM     29  C   UNL     1       0.790   3.094  19.667  0.00  0.00    +0.000 C 
ATOM     30  C   UNL     1       2.917   2.015  20.354  0.00  0.00    +0.000 C 
ATOM     31  C   UNL     1       3.713   3.284  19.948  0.00  0.00    +0.000 C 
ATOM     32  C   UNL     1       4.138   3.124  18.484  0.00  0.00    +0.000 C 
ENDBRANCH  22  23
ENDBRANCH   4  22
TORSDOF 6
ENDMDL
MODEL 6
REMARK VINA RESULT:      -8.3      1.461      2.082
REMARK  Name = 
REMARK  6 active torsions:
REMARK  status: ('A' for Active; 'I' for Inactive)
REMARK    1  A    between atoms: C_2  and  C_11
REMARK    2  A    between atoms: N_3  and  S_4
REMARK    3  A    between atoms: S_4  and  N_7
REMARK    4  A    between atoms: C_13  and  C_14
REMARK    5  A    between atoms: C_17  and  O_18
REMARK    6  A    between atoms: O_18  and  C_19
REMARK                            x       y       z     vdW  Elec       q    Type
REMARK                         _______ _______ _______ _____ _____    ______ ____
ROOT
ATOM      1  C   UNL     1       1.203   8.560  20.337  0.00  0.00    +0.000 A 
ATOM      2  C   UNL     1       1.548   7.272  20.769  0.00  0.00    +0.000 A 
ATOM      3  C   UNL     1       2.213   6.340  19.923  0.00  0.00    +0.000 A 
ATOM      4  C   UNL     1       2.531   6.774  18.595  0.00  0.00    +0.000 A 
ATOM      5  C   UNL     1       2.217   8.085  18.203  0.00  0.00    +0.000 A 
ATOM      6  C   UNL     1       1.557   8.952  19.067  0.00  0.00    +0.000 A 
ATOM      7  F   UNL     1       1.300  10.192  18.629  0.00  0.00    +0.000 F 
ENDROOT
BRANCH   1   9
ATOM      8  O   UNL     1      -0.540   9.120  21.786  0.00  0.00    +0.000 OA
ATOM      9  C   UNL     1       0.434   9.511  21.158  0.00  0.00    +0.000 C 
ATOM     10  N   UNL     1       0.912  10.835  21.171  0.00  0.00    +0.000 N 
ATOM     11  H   UNL     1       1.442  11.139  20.362  0.00  0.00    +0.000 HD
BRANCH  10  12
ATOM     12  S   UNL     1      -0.097  12.070  21.674  0.00  0.00    +0.000 S 
ATOM     13  O   UNL     1      -0.516  11.753  23.021  0.00  0.00    +0.000 OA
ATOM     14  O   UNL     1       0.407  13.361  21.288  0.00  0.00    +0.000 OA
BRANCH  12  15
ATOM     15  N   UNL     1      -1.407  11.730  20.664  0.00  0.00    +0.000 NA
ATOM     16  C   UNL     1      -2.712  12.454  20.779  0.00  0.00    +0.000 C 
ATOM     17  C   UNL     1      -2.941  12.236  19.276  0.00  0.00    +0.000 C 
ATOM     18  C   UNL     1      -1.422  12.017  19.198  0.00  0.00    +0.000 C 
ENDBRANCH  12  15
ENDBRANCH  10  12
ENDBRANCH   1   9
BRANCH   3  19
ATOM     19  C   UNL     1       2.532   4.927  20.442  0.00  0.00    +0.000 C 
ATOM     20  C   UNL     1       1.405   4.020  20.896  0.00  0.00    +0.000 C 
ATOM     21  C   UNL     1       2.180   3.663  19.667  0.00  0.00    +0.000 C 
ENDBRANCH   3  19
BRANCH   4  22
ATOM     22  O   UNL     1       3.100   5.878  17.705  0.00  0.00    +0.000 OA
BRANCH  22  23
ATOM     23  C   UNL     1       4.331   6.251  17.009  0.00  0.00    +0.000 C 
ATOM     24  C   UNL     1       5.434   6.587  18.043  0.00  0.00    +0.000 C 
ATOM     25  C   UNL     1       5.683   5.345  18.918  0.00  0.00    +0.000 C 
ATOM     26  C   UNL     1       6.144   4.162  18.047  0.00  0.00    +0.000 C 
ATOM     27  C   UNL     1       7.469   4.557  17.372  0.00  0.00    +0.000 C 
ATOM     28  C   UNL     1       7.255   5.797  16.484  0.00  0.00    +0.000 C 
ATOM     29  C   UNL     1       6.750   6.971  17.337  0.00  0.00    +0.000 C 
ATOM     30  C   UNL     1       6.183   5.498  15.421  0.00  0.00    +0.000 C 
ATOM     31  C   UNL     1       4.848   5.095  16.103  0.00  0.00    +0.000 C 
ATOM     32  C   UNL     1       5.112   3.843  16.949  0.00  0.00    +0.000 C 
ENDBRANCH  22  23
ENDBRANCH   4  22
TORSDOF 6
ENDMDL
MODEL 7
REMARK VINA RESULT:      -8.1      1.651      2.331
REMARK  Name = 
REMARK  6 active torsions:
REMARK  status: ('A' for Active; 'I' for Inactive)
REMARK    1  A    between atoms: C_2  and  C_11
REMARK    2  A    between atoms: N_3  and  S_4
REMARK    3  A    between atoms: S_4  and  N_7
REMARK    4  A    between atoms: C_13  and  C_14
REMARK    5  A    between atoms: C_17  and  O_18
REMARK    6  A    between atoms: O_18  and  C_19
REMARK                            x       y       z     vdW  Elec       q    Type
REMARK                         _______ _______ _______ _____ _____    ______ ____
ROOT
ATOM      1  C   UNL     1       1.208   9.378  19.542  0.00  0.00    +0.000 A 
ATOM      2  C   UNL     1       1.368   8.200  20.285  0.00  0.00    +0.000 A 
ATOM      3  C   UNL     1       2.070   7.071  19.777  0.00  0.00    +0.000 A 
ATOM      4  C   UNL     1       2.624   7.185  18.461  0.00  0.00    +0.000 A 
ATOM      5  C   UNL     1       2.490   8.391  17.756  0.00  0.00    +0.000 A 
ATOM      6  C   UNL     1       1.785   9.461  18.296  0.00  0.00    +0.000 A 
ATOM      7  F   UNL     1       1.708  10.586  17.572  0.00  0.00    +0.000 F 
ENDROOT
BRANCH   1   9
ATOM      8  O   UNL     1      -0.739  10.665  19.606  0.00  0.00    +0.000 OA
ATOM      9  C   UNL     1       0.409  10.526  20.005  0.00  0.00    +0.000 C 
ATOM     10  N   UNL     1       1.047  11.388  20.917  0.00  0.00    +0.000 N 
ATOM     11  H   UNL     1       2.059  11.425  20.882  0.00  0.00    +0.000 HD
BRANCH  10  12
ATOM     12  S   UNL     1       0.438  12.927  21.158  0.00  0.00    +0.000 S 
ATOM     13  O   UNL     1       1.518  13.733  21.682  0.00  0.00    +0.000 OA
ATOM     14  O   UNL     1      -0.400  13.346  20.066  0.00  0.00    +0.000 OA
BRANCH  12  15
ATOM     15  N   UNL     1      -0.582  12.576  22.457  0.00  0.00    +0.000 NA
ATOM     16  C   UNL     1      -2.053  12.847  22.411  0.00  0.00    +0.000 C 
ATOM     17  C   UNL     1      -2.278  11.671  23.375  0.00  0.00    +0.000 C 
ATOM     18  C   UNL     1      -0.891  11.189  22.919  0.00  0.00    +0.000 C 
ENDBRANCH  12  15
ENDBRANCH  10  12
ENDBRANCH   1   9
BRANCH   3  19
ATOM     19  C   UNL     1       2.180   5.792  20.626  0.00  0.00    +0.000 C 
ATOM     20  C   UNL     1       1.168   4.678  20.441  0.00  0.00    +0.000 C 
ATOM     21  C   UNL     1       2.591   4.446  20.042  0.00  0.00    +0.000 C 
ENDBRANCH   3  19
BRANCH   4  22
ATOM     22  O   UNL     1       3.241   6.086  17.886  0.00  0.00    +0.000 OA
BRANCH  22  23
ATOM     23  C   UNL     1       4.426   6.290  17.053  0.00  0.00    +0.000 C 
ATOM     24  C   UNL     1       5.631   6.682  17.944  0.00  0.00    +0.000 C 
ATOM     25  C   UNL     1       5.888   5.545  18.950  0.00  0.00    +0.000 C 
ATOM     26  C   UNL     1       6.209   4.236  18.205  0.00  0.00    +0.000 C 
ATOM     27  C   UNL     1       7.489   4.459  17.383  0.00  0.00    +0.000 C 
ATOM     28  C   UNL     1       7.265   5.590  16.361  0.00  0.00    +0.000 C 
ATOM     29  C   UNL     1       6.898   6.890  17.092  0.00  0.00    +0.000 C 
ATOM     30  C   UNL     1       6.091   5.229  15.434  0.00  0.00    +0.000 C 
ATOM     31  C   UNL     1       4.801   4.999  16.266  0.00  0.00    +0.000 C 
ATOM     32  C   UNL     1       5.070   3.849  17.243  0.00  0.00    +0.000 C 
ENDBRANCH  22  23
ENDBRANCH   4  22
TORSDOF 6
ENDMDL
MODEL 8
REMARK VINA RESULT:      -8.0      3.346      8.574
REMARK  Name = 
REMARK  6 active torsions:
REMARK  status: ('A' for Active; 'I' for Inactive)
REMARK    1  A    between atoms: C_2  and  C_11
REMARK    2  A    between atoms: N_3  and  S_4
REMARK    3  A    between atoms: S_4  and  N_7
REMARK    4  A    between atoms: C_13  and  C_14
REMARK    5  A    between atoms: C_17  and  O_18
REMARK    6  A    between atoms: O_18  and  C_19
REMARK                            x       y       z     vdW  Elec       q    Type
REMARK                         _______ _______ _______ _____ _____    ______ ____
ROOT
ATOM      1  C   UNL     1       2.547   7.203  19.261  0.00  0.00    +0.000 A 
ATOM      2  C   UNL     1       1.666   7.684  20.239  0.00  0.00    +0.000 A 
ATOM      3  C   UNL     1       1.022   8.949  20.125  0.00  0.00    +0.000 A 
ATOM      4  C   UNL     1       1.304   9.722  18.952  0.00  0.00    +0.000 A 
ATOM      5  C   UNL     1       2.154   9.197  17.966  0.00  0.00    +0.000 A 
ATOM      6  C   UNL     1       2.765   7.960  18.132  0.00  0.00    +0.000 A 
ATOM      7  F   UNL     1       3.555   7.516  17.144  0.00  0.00    +0.000 F 
ENDROOT
BRANCH   1   9
ATOM      8  O   UNL     1       2.917   5.092  20.189  0.00  0.00    +0.000 OA
ATOM      9  C   UNL     1       3.298   5.943  19.396  0.00  0.00    +0.000 C 
ATOM     10  N   UNL     1       4.419   5.805  18.557  0.00  0.00    +0.000 N 
ATOM     11  H   UNL     1       4.868   6.660  18.247  0.00  0.00    +0.000 HD
BRANCH  10  12
ATOM     12  S   UNL     1       5.585   4.663  18.921  0.00  0.00    +0.000 S 
ATOM     13  O   UNL     1       6.545   5.299  19.794  0.00  0.00    +0.000 OA
ATOM     14  O   UNL     1       5.003   3.375  19.194  0.00  0.00    +0.000 OA
BRANCH  12  15
ATOM     15  N   UNL     1       6.304   4.565  17.396  0.00  0.00    +0.000 NA
ATOM     16  C   UNL     1       5.579   4.017  16.207  0.00  0.00    +0.000 C 
ATOM     17  C   UNL     1       6.416   4.933  15.301  0.00  0.00    +0.000 C 
ATOM     18  C   UNL     1       6.671   5.757  16.573  0.00  0.00    +0.000 C 
ENDBRANCH  12  15
ENDBRANCH  10  12
ENDBRANCH   1   9
BRANCH   3  19
ATOM     19  C   UNL     1       0.093   9.439  21.249  0.00  0.00    +0.000 C 
ATOM     20  C   UNL     1      -0.423   8.456  22.281  0.00  0.00    +0.000 C 
ATOM     21  C   UNL     1       0.533   9.525  22.706  0.00  0.00    +0.000 C 
ENDBRANCH   3  19
BRANCH   4  22
ATOM     22  O   UNL     1       0.772  10.995  18.833  0.00  0.00    +0.000 OA
BRANCH  22  23
ATOM     23  C   UNL     1       1.624  12.151  19.108  0.00  0.00    +0.000 C 
ATOM     24  C   UNL     1       1.207  13.336  18.201  0.00  0.00    +0.000 C 
ATOM     25  C   UNL     1      -0.262  13.687  18.498  0.00  0.00    +0.000 C 
ATOM     26  C   UNL     1      -0.426  14.093  19.974  0.00  0.00    +0.000 C 
ATOM     27  C   UNL     1       0.434  15.342  20.223  0.00  0.00    +0.000 C 
ATOM     28  C   UNL     1       1.915  15.024  19.939  0.00  0.00    +0.000 C 
ATOM     29  C   UNL     1       2.082  14.574  18.480  0.00  0.00    +0.000 C 
ATOM     30  C   UNL     1       2.381  13.867  20.840  0.00  0.00    +0.000 C 
ATOM     31  C   UNL     1       1.508  12.608  20.592  0.00  0.00    +0.000 C 
ATOM     32  C   UNL     1       0.055  12.972  20.916  0.00  0.00    +0.000 C 
ENDBRANCH  22  23
ENDBRANCH   4  22
TORSDOF 6
ENDMDL
MODEL 9
REMARK VINA RESULT:      -8.0      1.375      1.567
REMARK  Name = 
REMARK  6 active torsions:
REMARK  status: ('A' for Active; 'I' for Inactive)
REMARK    1  A    between atoms: C_2  and  C_11
REMARK    2  A    between atoms: N_3  and  S_4
REMARK    3  A    between atoms: S_4  and  N_7
REMARK    4  A    between atoms: C_13  and  C_14
REMARK    5  A    between atoms: C_17  and  O_18
REMARK    6  A    between atoms: O_18  and  C_19
REMARK                            x       y       z     vdW  Elec       q    Type
REMARK                         _______ _______ _______ _____ _____    ______ ____
ROOT
ATOM      1  C   UNL     1       1.306   9.304  19.606  0.00  0.00    +0.000 A 
ATOM      2  C   UNL     1       1.423   8.082  20.281  0.00  0.00    +0.000 A 
ATOM      3  C   UNL     1       2.129   6.974  19.731  0.00  0.00    +0.000 A 
ATOM      4  C   UNL     1       2.734   7.160  18.445  0.00  0.00    +0.000 A 
ATOM      5  C   UNL     1       2.642   8.408  17.811  0.00  0.00    +0.000 A 
ATOM      6  C   UNL     1       1.931   9.454  18.389  0.00  0.00    +0.000 A 
ATOM      7  F   UNL     1       1.896  10.622  17.733  0.00  0.00    +0.000 F 
ENDROOT
BRANCH   1   9
ATOM      8  O   UNL     1       0.784  10.943  21.186  0.00  0.00    +0.000 OA
ATOM      9  C   UNL     1       0.505  10.434  20.108  0.00  0.00    +0.000 C 
ATOM     10  N   UNL     1      -0.539  10.865  19.269  0.00  0.00    +0.000 N 
ATOM     11  H   UNL     1      -0.929  10.179  18.633  0.00  0.00    +0.000 HD
BRANCH  10  12
ATOM     12  S   UNL     1      -1.770  11.804  19.902  0.00  0.00    +0.000 S 
ATOM     13  O   UNL     1      -2.948  11.553  19.103  0.00  0.00    +0.000 OA
ATOM     14  O   UNL     1      -1.772  11.780  21.341  0.00  0.00    +0.000 OA
BRANCH  12  15
ATOM     15  N   UNL     1      -1.178  13.315  19.435  0.00  0.00    +0.000 NA
ATOM     16  C   UNL     1      -0.355  14.166  20.350  0.00  0.00    +0.000 C 
ATOM     17  C   UNL     1       0.353  14.763  19.124  0.00  0.00    +0.000 C 
ATOM     18  C   UNL     1      -0.136  13.509  18.382  0.00  0.00    +0.000 C 
ENDBRANCH  12  15
ENDBRANCH  10  12
ENDBRANCH   1   9
BRANCH   3  19
ATOM     19  C   UNL     1       2.190   5.645  20.503  0.00  0.00    +0.000 C 
ATOM     20  C   UNL     1       0.969   4.749  20.556  0.00  0.00    +0.000 C 
ATOM     21  C   UNL     1       2.182   4.287  19.812  0.00  0.00    +0.000 C 
ENDBRANCH   3  19
BRANCH   4  22
ATOM     22  O   UNL     1       3.358   6.088  17.827  0.00  0.00    +0.000 OA
BRANCH  22  23
ATOM     23  C   UNL     1       4.803   5.923  17.977  0.00  0.00    +0.000 C 
ATOM     24  C   UNL     1       5.190   4.445  17.726  0.00  0.00    +0.000 C 
ATOM     25  C   UNL     1       4.765   4.063  16.296  0.00  0.00    +0.000 C 
ATOM     26  C   UNL     1       5.482   4.959  15.269  0.00  0.00    +0.000 C 
ATOM     27  C   UNL     1       6.995   4.724  15.408  0.00  0.00    +0.000 C 
ATOM     28  C   UNL     1       7.456   5.102  16.829  0.00  0.00    +0.000 C 
ATOM     29  C   UNL     1       6.712   4.244  17.864  0.00  0.00    +0.000 C 
ATOM     30  C   UNL     1       7.116   6.575  17.113  0.00  0.00    +0.000 C 
ATOM     31  C   UNL     1       5.588   6.811  16.968  0.00  0.00    +0.000 C 
ATOM     32  C   UNL     1       5.191   6.449  15.532  0.00  0.00    +0.000 C 
ENDBRANCH  22  23
ENDBRANCH   4  22
TORSDOF 6
ENDMDL
