MODEL 1
REMARK VINA RESULT:      -8.4      0.000      0.000
REMARK  Name = 
REMARK  4 active torsions:
REMARK  status: ('A' for Active; 'I' for Inactive)
REMARK    1  A    between atoms: N_1  and  C_2
REMARK    2  A    between atoms: C_5  and  C_6
REMARK    3  A    between atoms: C_11  and  C_12
REMARK    4  A    between atoms: C_12  and  C_13
REMARK                            x       y       z     vdW  Elec       q    Type
REMARK                         _______ _______ _______ _____ _____    ______ ____
ROOT
ATOM      1  C   UNL     1       6.846   4.493  16.346  0.00  0.00    +0.000 C 
ATOM      2  N   UNL     1       7.944   4.250  17.007  0.00  0.00    +0.000 NA
ATOM      3  N   UNL     1       7.971   4.330  18.370  0.00  0.00    +0.000 N 
ATOM      4  C   UNL     1       7.581   5.421  19.124  0.00  0.00    +0.000 C 
ATOM      5  O   UNL     1       7.930   5.500  20.304  0.00  0.00    +0.000 OA
ATOM      6  C   UNL     1       6.668   6.464  18.487  0.00  0.00    +0.000 C 
ATOM      7  C   UNL     1       5.420   5.731  18.002  0.00  0.00    +0.000 A 
ATOM      8  C   UNL     1       4.190   5.891  18.665  0.00  0.00    +0.000 A 
ATOM      9  C   UNL     1       3.144   5.067  18.300  0.00  0.00    +0.000 A 
ATOM     10  C   UNL     1       3.263   4.138  17.291  0.00  0.00    +0.000 A 
ATOM     11  C   UNL     1       4.435   3.967  16.595  0.00  0.00    +0.000 A 
ATOM     12  C   UNL     1       5.528   4.757  16.978  0.00  0.00    +0.000 A 
ATOM     13  O   UNL     1       2.129   3.406  17.121  0.00  0.00    +0.000 OA
ATOM     14  C   UNL     1       1.347   3.868  18.241  0.00  0.00    +0.000 C 
ATOM     15  O   UNL     1       1.920   5.023  18.891  0.00  0.00    +0.000 OA
ATOM     16  H   UNL     1       8.691   3.770  18.822  0.00  0.00    +0.000 HD
ENDROOT
BRANCH   1  20
ATOM     17  C   UNL     1       7.189   4.548  12.054  0.00  0.00    +0.000 A 
ATOM     18  C   UNL     1       6.272   3.705  12.688  0.00  0.00    +0.000 A 
ATOM     19  C   UNL     1       6.163   3.684  14.081  0.00  0.00    +0.000 A 
ATOM     20  C   UNL     1       6.932   4.555  14.853  0.00  0.00    +0.000 A 
ATOM     21  C   UNL     1       7.829   5.428  14.224  0.00  0.00    +0.000 A 
ATOM     22  C   UNL     1       7.933   5.437  12.831  0.00  0.00    +0.000 A 
BRANCH  17  23
ATOM     23  N   UNL     1       7.196   4.661  10.659  0.00  0.00    +0.000 N 
ATOM     24  H   UNL     1       6.994   3.793  10.175  0.00  0.00    +0.000 HD
ATOM     25  H   UNL     1       8.018   5.126  10.288  0.00  0.00    +0.000 HD
ENDBRANCH  17  23
ENDBRANCH   1  20
BRANCH   6  26
ATOM     26  C   UNL     1       7.335   7.339  17.403  0.00  0.00    +0.000 C 
BRANCH  26  27
ATOM     27  C   UNL     1       7.919   8.644  17.887  0.00  0.00    +0.000 A 
ATOM     28  C   UNL     1       8.837   8.657  18.950  0.00  0.00    +0.000 A 
ATOM     29  C   UNL     1       9.419   9.853  19.369  0.00  0.00    +0.000 A 
ATOM     30  C   UNL     1       9.097  11.047  18.728  0.00  0.00    +0.000 A 
ATOM     31  C   UNL     1       8.189  11.045  17.670  0.00  0.00    +0.000 A 
ATOM     32  C   UNL     1       7.600   9.849  17.253  0.00  0.00    +0.000 A 
ENDBRANCH  26  27
ENDBRANCH   6  26
TORSDOF 4
ENDMDL
MODEL 2
REMARK VINA RESULT:      -8.3      8.180     10.488
REMARK  Name = 
REMARK  4 active torsions:
REMARK  status: ('A' for Active; 'I' for Inactive)
REMARK    1  A    between atoms: N_1  and  C_2
REMARK    2  A    between atoms: C_5  and  C_6
REMARK    3  A    between atoms: C_11  and  C_12
REMARK    4  A    between atoms: C_12  and  C_13
REMARK                            x       y       z     vdW  Elec       q    Type
REMARK                         _______ _______ _______ _____ _____    ______ ____
ROOT
ATOM      1  C   UNL     1      -1.831  11.885  19.511  0.00  0.00    +0.000 C 
ATOM      2  N   UNL     1      -2.516  11.661  20.598  0.00  0.00    +0.000 NA
ATOM      3  N   UNL     1      -1.972  11.897  21.828  0.00  0.00    +0.000 N 
ATOM      4  C   UNL     1      -0.776  11.384  22.296  0.00  0.00    +0.000 C 
ATOM      5  O   UNL     1      -0.536  11.409  23.505  0.00  0.00    +0.000 OA
ATOM      6  C   UNL     1       0.242  10.862  21.288  0.00  0.00    +0.000 C 
ATOM      7  C   UNL     1       0.543  12.004  20.321  0.00  0.00    +0.000 A 
ATOM      8  C   UNL     1       1.780  12.673  20.364  0.00  0.00    +0.000 A 
ATOM      9  C   UNL     1       1.928  13.812  19.598  0.00  0.00    +0.000 A 
ATOM     10  C   UNL     1       0.925  14.276  18.776  0.00  0.00    +0.000 A 
ATOM     11  C   UNL     1      -0.288  13.639  18.680  0.00  0.00    +0.000 A 
ATOM     12  C   UNL     1      -0.483  12.508  19.483  0.00  0.00    +0.000 A 
ATOM     13  O   UNL     1       1.264  15.432  18.144  0.00  0.00    +0.000 OA
ATOM     14  C   UNL     1       2.522  15.724  18.785  0.00  0.00    +0.000 C 
ATOM     15  O   UNL     1       3.016  14.628  19.585  0.00  0.00    +0.000 OA
ATOM     16  H   UNL     1      -2.644  12.082  22.570  0.00  0.00    +0.000 HD
ENDROOT
BRANCH   1  20
ATOM     17  C   UNL     1      -3.623  10.505  15.847  0.00  0.00    +0.000 A 
ATOM     18  C   UNL     1      -4.289  11.418  16.669  0.00  0.00    +0.000 A 
ATOM     19  C   UNL     1      -3.709  11.863  17.861  0.00  0.00    +0.000 A 
ATOM     20  C   UNL     1      -2.426  11.442  18.211  0.00  0.00    +0.000 A 
ATOM     21  C   UNL     1      -1.737  10.555  17.375  0.00  0.00    +0.000 A 
ATOM     22  C   UNL     1      -2.328  10.112  16.189  0.00  0.00    +0.000 A 
BRANCH  17  23
ATOM     23  N   UNL     1      -4.149  10.170  14.594  0.00  0.00    +0.000 N 
ATOM     24  H   UNL     1      -4.455   9.206  14.521  0.00  0.00    +0.000 HD
ATOM     25  H   UNL     1      -3.562  10.447  13.814  0.00  0.00    +0.000 HD
ENDBRANCH  17  23
ENDBRANCH   1  20
BRANCH   6  26
ATOM     26  C   UNL     1      -0.153   9.543  20.586  0.00  0.00    +0.000 C 
BRANCH  26  27
ATOM     27  C   UNL     1       0.940   8.881  19.781  0.00  0.00    +0.000 A 
ATOM     28  C   UNL     1       1.627   7.771  20.300  0.00  0.00    +0.000 A 
ATOM     29  C   UNL     1       2.602   7.123  19.542  0.00  0.00    +0.000 A 
ATOM     30  C   UNL     1       2.897   7.571  18.256  0.00  0.00    +0.000 A 
ATOM     31  C   UNL     1       2.218   8.670  17.730  0.00  0.00    +0.000 A 
ATOM     32  C   UNL     1       1.246   9.324  18.490  0.00  0.00    +0.000 A 
ENDBRANCH  26  27
ENDBRANCH   6  26
TORSDOF 4
ENDMDL
MODEL 3
REMARK VINA RESULT:      -8.1      9.485     12.591
REMARK  Name = 
REMARK  4 active torsions:
REMARK  status: ('A' for Active; 'I' for Inactive)
REMARK    1  A    between atoms: N_1  and  C_2
REMARK    2  A    between atoms: C_5  and  C_6
REMARK    3  A    between atoms: C_11  and  C_12
REMARK    4  A    between atoms: C_12  and  C_13
REMARK                            x       y       z     vdW  Elec       q    Type
REMARK                         _______ _______ _______ _____ _____    ______ ____
ROOT
ATOM      1  C   UNL     1      -1.077  11.732  21.777  0.00  0.00    +0.000 C 
ATOM      2  N   UNL     1      -0.665  10.558  22.167  0.00  0.00    +0.000 NA
ATOM      3  N   UNL     1       0.418   9.967  21.582  0.00  0.00    +0.000 N 
ATOM      4  C   UNL     1       0.586   9.743  20.229  0.00  0.00    +0.000 C 
ATOM      5  O   UNL     1       1.442   8.942  19.846  0.00  0.00    +0.000 OA
ATOM      6  C   UNL     1      -0.254  10.550  19.242  0.00  0.00    +0.000 C 
ATOM      7  C   UNL     1       0.009  12.025  19.532  0.00  0.00    +0.000 A 
ATOM      8  C   UNL     1       0.770  12.806  18.643  0.00  0.00    +0.000 A 
ATOM      9  C   UNL     1       1.131  14.078  19.043  0.00  0.00    +0.000 A 
ATOM     10  C   UNL     1       0.735  14.604  20.252  0.00  0.00    +0.000 A 
ATOM     11  C   UNL     1      -0.034  13.889  21.138  0.00  0.00    +0.000 A 
ATOM     12  C   UNL     1      -0.374  12.578  20.779  0.00  0.00    +0.000 A 
ATOM     13  O   UNL     1       1.232  15.852  20.464  0.00  0.00    +0.000 OA
ATOM     14  C   UNL     1       2.114  15.980  19.329  0.00  0.00    +0.000 C 
ATOM     15  O   UNL     1       1.934  14.932  18.354  0.00  0.00    +0.000 OA
ATOM     16  H   UNL     1       0.906   9.287  22.163  0.00  0.00    +0.000 HD
ENDROOT
BRANCH   1  20
ATOM     17  C   UNL     1      -4.843  13.046  23.400  0.00  0.00    +0.000 A 
ATOM     18  C   UNL     1      -3.836  12.556  24.235  0.00  0.00    +0.000 A 
ATOM     19  C   UNL     1      -2.615  12.125  23.709  0.00  0.00    +0.000 A 
ATOM     20  C   UNL     1      -2.368  12.239  22.341  0.00  0.00    +0.000 A 
ATOM     21  C   UNL     1      -3.358  12.762  21.500  0.00  0.00    +0.000 A 
ATOM     22  C   UNL     1      -4.577  13.184  22.037  0.00  0.00    +0.000 A 
BRANCH  17  23
ATOM     23  N   UNL     1      -6.006  13.599  23.946  0.00  0.00    +0.000 N 
ATOM     24  H   UNL     1      -6.802  13.588  23.317  0.00  0.00    +0.000 HD
ATOM     25  H   UNL     1      -5.868  14.508  24.375  0.00  0.00    +0.000 HD
ENDBRANCH  17  23
ENDBRANCH   1  20
BRANCH   6  26
ATOM     26  C   UNL     1      -1.753  10.181  19.210  0.00  0.00    +0.000 C 
BRANCH  26  27
ATOM     27  C   UNL     1      -2.467  10.469  17.910  0.00  0.00    +0.000 A 
ATOM     28  C   UNL     1      -2.034   9.867  16.718  0.00  0.00    +0.000 A 
ATOM     29  C   UNL     1      -2.719  10.089  15.523  0.00  0.00    +0.000 A 
ATOM     30  C   UNL     1      -3.847  10.906  15.508  0.00  0.00    +0.000 A 
ATOM     31  C   UNL     1      -4.288  11.505  16.687  0.00  0.00    +0.000 A 
ATOM     32  C   UNL     1      -3.599  11.291  17.883  0.00  0.00    +0.000 A 
ENDBRANCH  26  27
ENDBRANCH   6  26
TORSDOF 4
ENDMDL
MODEL 4
REMARK VINA RESULT:      -8.1      9.221     12.408
REMARK  Name = 
REMARK  4 active torsions:
REMARK  status: ('A' for Active; 'I' for Inactive)
REMARK    1  A    between atoms: N_1  and  C_2
REMARK    2  A    between atoms: C_5  and  C_6
REMARK    3  A    between atoms: C_11  and  C_12
REMARK    4  A    between atoms: C_12  and  C_13
REMARK                            x       y       z     vdW  Elec       q    Type
REMARK                         _______ _______ _______ _____ _____    ______ ____
ROOT
ATOM      1  C   UNL     1      -0.257  11.997  21.858  0.00  0.00    +0.000 C 
ATOM      2  N   UNL     1       0.007  10.782  22.250  0.00  0.00    +0.000 NA
ATOM      3  N   UNL     1       0.904  10.008  21.572  0.00  0.00    +0.000 N 
ATOM      4  C   UNL     1       0.869   9.725  20.219  0.00  0.00    +0.000 C 
ATOM      5  O   UNL     1       1.534   8.786  19.776  0.00  0.00    +0.000 OA
ATOM      6  C   UNL     1       0.056  10.633  19.301  0.00  0.00    +0.000 C 
ATOM      7  C   UNL     1       0.583  12.053  19.492  0.00  0.00    +0.000 A 
ATOM      8  C   UNL     1       1.346  12.676  18.488  0.00  0.00    +0.000 A 
ATOM      9  C   UNL     1       1.950  13.881  18.787  0.00  0.00    +0.000 A 
ATOM     10  C   UNL     1       1.792  14.495  20.009  0.00  0.00    +0.000 A 
ATOM     11  C   UNL     1       1.032  13.939  21.009  0.00  0.00    +0.000 A 
ATOM     12  C   UNL     1       0.447  12.692  20.750  0.00  0.00    +0.000 A 
ATOM     13  O   UNL     1       2.504  15.650  20.107  0.00  0.00    +0.000 OA
ATOM     14  C   UNL     1       3.251  15.604  18.874  0.00  0.00    +0.000 C 
ATOM     15  O   UNL     1       2.790  14.575  17.973  0.00  0.00    +0.000 OA
ATOM     16  H   UNL     1       1.343   9.272  22.121  0.00  0.00    +0.000 HD
ENDROOT
BRANCH   1  20
ATOM     17  C   UNL     1      -3.440  13.999  23.956  0.00  0.00    +0.000 A 
ATOM     18  C   UNL     1      -2.114  14.414  24.104  0.00  0.00    +0.000 A 
ATOM     19  C   UNL     1      -1.080  13.763  23.427  0.00  0.00    +0.000 A 
ATOM     20  C   UNL     1      -1.373  12.723  22.544  0.00  0.00    +0.000 A 
ATOM     21  C   UNL     1      -2.702  12.323  22.362  0.00  0.00    +0.000 A 
ATOM     22  C   UNL     1      -3.728  12.978  23.050  0.00  0.00    +0.000 A 
BRANCH  17  23
ATOM     23  N   UNL     1      -4.479  14.740  24.530  0.00  0.00    +0.000 N 
ATOM     24  H   UNL     1      -5.262  14.176  24.844  0.00  0.00    +0.000 HD
ATOM     25  H   UNL     1      -4.777  15.533  23.971  0.00  0.00    +0.000 HD
ENDBRANCH  17  23
ENDBRANCH   1  20
BRANCH   6  26
ATOM     26  C   UNL     1      -1.476  10.514  19.457  0.00  0.00    +0.000 C 
BRANCH  26  27
ATOM     27  C   UNL     1      -2.274  10.652  18.183  0.00  0.00    +0.000 A 
ATOM     28  C   UNL     1      -1.890   9.950  17.029  0.00  0.00    +0.000 A 
ATOM     29  C   UNL     1      -2.651  10.033  15.862  0.00  0.00    +0.000 A 
ATOM     30  C   UNL     1      -3.806  10.811  15.838  0.00  0.00    +0.000 A 
ATOM     31  C   UNL     1      -4.199  11.510  16.980  0.00  0.00    +0.000 A 
ATOM     32  C   UNL     1      -3.434  11.433  18.146  0.00  0.00    +0.000 A 
ENDBRANCH  26  27
ENDBRANCH   6  26
TORSDOF 4
ENDMDL
MODEL 5
REMARK VINA RESULT:      -8.1      9.231     12.395
REMARK  Name = 
REMARK  4 active torsions:
REMARK  status: ('A' for Active; 'I' for Inactive)
REMARK    1  A    between atoms: N_1  and  C_2
REMARK    2  A    between atoms: C_5  and  C_6
REMARK    3  A    between atoms: C_11  and  C_12
REMARK    4  A    between atoms: C_12  and  C_13
REMARK                            x       y       z     vdW  Elec       q    Type
REMARK                         _______ _______ _______ _____ _____    ______ ____
ROOT
ATOM      1  C   UNL     1      -0.262  11.999  21.814  0.00  0.00    +0.000 C 
ATOM      2  N   UNL     1       0.002  10.773  22.170  0.00  0.00    +0.000 NA
ATOM      3  N   UNL     1       0.892  10.015  21.462  0.00  0.00    +0.000 N 
ATOM      4  C   UNL     1       0.842   9.769  20.102  0.00  0.00    +0.000 C 
ATOM      5  O   UNL     1       1.501   8.842  19.629  0.00  0.00    +0.000 OA
ATOM      6  C   UNL     1       0.022  10.703  19.217  0.00  0.00    +0.000 C 
ATOM      7  C   UNL     1       0.554  12.116  19.442  0.00  0.00    +0.000 A 
ATOM      8  C   UNL     1       1.309  12.765  18.447  0.00  0.00    +0.000 A 
ATOM      9  C   UNL     1       1.918  13.961  18.772  0.00  0.00    +0.000 A 
ATOM     10  C   UNL     1       1.773  14.542  20.012  0.00  0.00    +0.000 A 
ATOM     11  C   UNL     1       1.022  13.960  21.004  0.00  0.00    +0.000 A 
ATOM     12  C   UNL     1       0.432  12.722  20.717  0.00  0.00    +0.000 A 
ATOM     13  O   UNL     1       2.488  15.693  20.134  0.00  0.00    +0.000 OA
ATOM     14  C   UNL     1       3.223  15.679  18.893  0.00  0.00    +0.000 C 
ATOM     15  O   UNL     1       2.751  14.675  17.969  0.00  0.00    +0.000 OA
ATOM     16  H   UNL     1       1.335   9.265  21.987  0.00  0.00    +0.000 HD
ENDROOT
BRANCH   1  20
ATOM     17  C   UNL     1      -3.467  14.128  23.748  0.00  0.00    +0.000 A 
ATOM     18  C   UNL     1      -3.735  13.076  22.868  0.00  0.00    +0.000 A 
ATOM     19  C   UNL     1      -2.696  12.387  22.237  0.00  0.00    +0.000 A 
ATOM     20  C   UNL     1      -1.370  12.707  22.529  0.00  0.00    +0.000 A 
ATOM     21  C   UNL     1      -1.091  13.737  23.436  0.00  0.00    +0.000 A 
ATOM     22  C   UNL     1      -2.138  14.423  24.057  0.00  0.00    +0.000 A 
BRANCH  17  23
ATOM     23  N   UNL     1      -4.504  14.721  24.477  0.00  0.00    +0.000 N 
ATOM     24  H   UNL     1      -4.396  14.644  25.483  0.00  0.00    +0.000 HD
ATOM     25  H   UNL     1      -5.432  14.449  24.168  0.00  0.00    +0.000 HD
ENDBRANCH  17  23
ENDBRANCH   1  20
BRANCH   6  26
ATOM     26  C   UNL     1      -1.508  10.583  19.386  0.00  0.00    +0.000 C 
BRANCH  26  27
ATOM     27  C   UNL     1      -2.309  10.613  18.106  0.00  0.00    +0.000 A 
ATOM     28  C   UNL     1      -3.450  11.425  18.005  0.00  0.00    +0.000 A 
ATOM     29  C   UNL     1      -4.166  11.496  16.809  0.00  0.00    +0.000 A 
ATOM     30  C   UNL     1      -3.747  10.763  15.702  0.00  0.00    +0.000 A 
ATOM     31  C   UNL     1      -2.613   9.955  15.791  0.00  0.00    +0.000 A 
ATOM     32  C   UNL     1      -1.899   9.878  16.989  0.00  0.00    +0.000 A 
ENDBRANCH  26  27
ENDBRANCH   6  26
TORSDOF 4
ENDMDL
MODEL 6
REMARK VINA RESULT:      -8.1      7.584      9.855
REMARK  Name = 
REMARK  4 active torsions:
REMARK  status: ('A' for Active; 'I' for Inactive)
REMARK    1  A    between atoms: N_1  and  C_2
REMARK    2  A    between atoms: C_5  and  C_6
REMARK    3  A    between atoms: C_11  and  C_12
REMARK    4  A    between atoms: C_12  and  C_13
REMARK                            x       y       z     vdW  Elec       q    Type
REMARK                         _______ _______ _______ _____ _____    ______ ____
ROOT
ATOM      1  C   UNL     1      -1.270  10.937  18.925  0.00  0.00    +0.000 C 
ATOM      2  N   UNL     1      -1.439  10.142  19.946  0.00  0.00    +0.000 NA
ATOM      3  N   UNL     1      -0.589  10.187  21.014  0.00  0.00    +0.000 N 
ATOM      4  C   UNL     1       0.787  10.070  20.959  0.00  0.00    +0.000 C 
ATOM      5  O   UNL     1       1.417   9.819  21.988  0.00  0.00    +0.000 OA
ATOM      6  C   UNL     1       1.492  10.326  19.630  0.00  0.00    +0.000 C 
ATOM      7  C   UNL     1       1.099  11.729  19.177  0.00  0.00    +0.000 A 
ATOM      8  C   UNL     1       2.030  12.783  19.220  0.00  0.00    +0.000 A 
ATOM      9  C   UNL     1       1.572  14.063  18.975  0.00  0.00    +0.000 A 
ATOM     10  C   UNL     1       0.258  14.321  18.656  0.00  0.00    +0.000 A 
ATOM     11  C   UNL     1      -0.679  13.320  18.572  0.00  0.00    +0.000 A 
ATOM     12  C   UNL     1      -0.252  12.017  18.863  0.00  0.00    +0.000 A 
ATOM     13  O   UNL     1       0.013  15.649  18.495  0.00  0.00    +0.000 OA
ATOM     14  C   UNL     1       1.278  16.203  18.909  0.00  0.00    +0.000 C 
ATOM     15  O   UNL     1       2.308  15.203  19.062  0.00  0.00    +0.000 OA
ATOM     16  H   UNL     1      -0.983   9.857  21.893  0.00  0.00    +0.000 HD
ENDROOT
BRANCH   1  20
ATOM     17  C   UNL     1      -3.656  10.396  15.381  0.00  0.00    +0.000 A 
ATOM     18  C   UNL     1      -2.487   9.655  15.577  0.00  0.00    +0.000 A 
ATOM     19  C   UNL     1      -1.711   9.832  16.725  0.00  0.00    +0.000 A 
ATOM     20  C   UNL     1      -2.131  10.715  17.721  0.00  0.00    +0.000 A 
ATOM     21  C   UNL     1      -3.319  11.437  17.549  0.00  0.00    +0.000 A 
ATOM     22  C   UNL     1      -4.085  11.255  16.394  0.00  0.00    +0.000 A 
BRANCH  17  23
ATOM     23  N   UNL     1      -4.496  10.115  14.298  0.00  0.00    +0.000 N 
ATOM     24  H   UNL     1      -5.342   9.617  14.553  0.00  0.00    +0.000 HD
ATOM     25  H   UNL     1      -4.022   9.689  13.509  0.00  0.00    +0.000 HD
ENDBRANCH  17  23
ENDBRANCH   1  20
BRANCH   6  26
ATOM     26  C   UNL     1       1.267   9.241  18.554  0.00  0.00    +0.000 C 
BRANCH  26  27
ATOM     27  C   UNL     1       2.230   8.078  18.590  0.00  0.00    +0.000 A 
ATOM     28  C   UNL     1       2.159   7.132  19.625  0.00  0.00    +0.000 A 
ATOM     29  C   UNL     1       3.011   6.028  19.637  0.00  0.00    +0.000 A 
ATOM     30  C   UNL     1       3.938   5.853  18.612  0.00  0.00    +0.000 A 
ATOM     31  C   UNL     1       4.015   6.785  17.577  0.00  0.00    +0.000 A 
ATOM     32  C   UNL     1       3.167   7.894  17.567  0.00  0.00    +0.000 A 
ENDBRANCH  26  27
ENDBRANCH   6  26
TORSDOF 4
ENDMDL
MODEL 7
REMARK VINA RESULT:      -7.9      9.968     12.586
REMARK  Name = 
REMARK  4 active torsions:
REMARK  status: ('A' for Active; 'I' for Inactive)
REMARK    1  A    between atoms: N_1  and  C_2
REMARK    2  A    between atoms: C_5  and  C_6
REMARK    3  A    between atoms: C_11  and  C_12
REMARK    4  A    between atoms: C_12  and  C_13
REMARK                            x       y       z     vdW  Elec       q    Type
REMARK                         _______ _______ _______ _____ _____    ______ ____
ROOT
ATOM      1  C   UNL     1      -2.670  13.607  20.596  0.00  0.00    +0.000 C 
ATOM      2  N   UNL     1      -2.077  14.766  20.662  0.00  0.00    +0.000 NA
ATOM      3  N   UNL     1      -1.188  15.152  19.699  0.00  0.00    +0.000 N 
ATOM      4  C   UNL     1      -0.078  14.437  19.289  0.00  0.00    +0.000 C 
ATOM      5  O   UNL     1       0.808  15.006  18.648  0.00  0.00    +0.000 OA
ATOM      6  C   UNL     1      -0.017  12.942  19.588  0.00  0.00    +0.000 C 
ATOM      7  C   UNL     1      -1.262  12.311  18.971  0.00  0.00    +0.000 A 
ATOM      8  C   UNL     1      -1.164  11.505  17.822  0.00  0.00    +0.000 A 
ATOM      9  C   UNL     1      -2.334  11.114  17.202  0.00  0.00    +0.000 A 
ATOM     10  C   UNL     1      -3.573  11.454  17.697  0.00  0.00    +0.000 A 
ATOM     11  C   UNL     1      -3.718  12.213  18.833  0.00  0.00    +0.000 A 
ATOM     12  C   UNL     1      -2.546  12.664  19.455  0.00  0.00    +0.000 A 
ATOM     13  O   UNL     1      -4.588  11.001  16.913  0.00  0.00    +0.000 OA
ATOM     14  C   UNL     1      -3.845  10.485  15.791  0.00  0.00    +0.000 C 
ATOM     15  O   UNL     1      -2.425  10.413  16.040  0.00  0.00    +0.000 OA
ATOM     16  H   UNL     1      -1.077  16.158  19.591  0.00  0.00    +0.000 HD
ENDROOT
BRANCH   1  20
ATOM     17  C   UNL     1      -5.052  12.530  24.019  0.00  0.00    +0.000 A 
ATOM     18  C   UNL     1      -5.654  12.985  22.843  0.00  0.00    +0.000 A 
ATOM     19  C   UNL     1      -4.882  13.338  21.733  0.00  0.00    +0.000 A 
ATOM     20  C   UNL     1      -3.496  13.181  21.771  0.00  0.00    +0.000 A 
ATOM     21  C   UNL     1      -2.886  12.692  22.933  0.00  0.00    +0.000 A 
ATOM     22  C   UNL     1      -3.668  12.348  24.038  0.00  0.00    +0.000 A 
BRANCH  17  23
ATOM     23  N   UNL     1      -5.837  12.052  25.074  0.00  0.00    +0.000 N 
ATOM     24  H   UNL     1      -6.526  12.717  25.408  0.00  0.00    +0.000 HD
ATOM     25  H   UNL     1      -5.302  11.639  25.831  0.00  0.00    +0.000 HD
ENDBRANCH  17  23
ENDBRANCH   1  20
BRANCH   6  26
ATOM     26  C   UNL     1       0.188  12.582  21.076  0.00  0.00    +0.000 C 
BRANCH  26  27
ATOM     27  C   UNL     1       0.241  11.106  21.389  0.00  0.00    +0.000 A 
ATOM     28  C   UNL     1      -0.451  10.593  22.497  0.00  0.00    +0.000 A 
ATOM     29  C   UNL     1      -0.448   9.223  22.763  0.00  0.00    +0.000 A 
ATOM     30  C   UNL     1       0.240   8.352  21.922  0.00  0.00    +0.000 A 
ATOM     31  C   UNL     1       0.929   8.851  20.816  0.00  0.00    +0.000 A 
ATOM     32  C   UNL     1       0.932  10.223  20.553  0.00  0.00    +0.000 A 
ENDBRANCH  26  27
ENDBRANCH   6  26
TORSDOF 4
ENDMDL
MODEL 8
REMARK VINA RESULT:      -7.8     10.274     13.336
REMARK  Name = 
REMARK  4 active torsions:
REMARK  status: ('A' for Active; 'I' for Inactive)
REMARK    1  A    between atoms: N_1  and  C_2
REMARK    2  A    between atoms: C_5  and  C_6
REMARK    3  A    between atoms: C_11  and  C_12
REMARK    4  A    between atoms: C_12  and  C_13
REMARK                            x       y       z     vdW  Elec       q    Type
REMARK                         _______ _______ _______ _____ _____    ______ ____
ROOT
ATOM      1  C   UNL     1      -1.587  12.523  21.836  0.00  0.00    +0.000 C 
ATOM      2  N   UNL     1      -0.885  11.473  22.163  0.00  0.00    +0.000 NA
ATOM      3  N   UNL     1       0.279  11.181  21.513  0.00  0.00    +0.000 N 
ATOM      4  C   UNL     1       0.430  11.043  20.146  0.00  0.00    +0.000 C 
ATOM      5  O   UNL     1       1.434  10.486  19.698  0.00  0.00    +0.000 OA
ATOM      6  C   UNL     1      -0.626  11.649  19.226  0.00  0.00    +0.000 C 
ATOM      7  C   UNL     1      -0.715  13.135  19.563  0.00  0.00    +0.000 A 
ATOM      8  C   UNL     1      -0.209  14.103  18.676  0.00  0.00    +0.000 A 
ATOM      9  C   UNL     1      -0.147  15.412  19.110  0.00  0.00    +0.000 A 
ATOM     10  C   UNL     1      -0.599  15.791  20.354  0.00  0.00    +0.000 A 
ATOM     11  C   UNL     1      -1.129  14.886  21.242  0.00  0.00    +0.000 A 
ATOM     12  C   UNL     1      -1.159  13.543  20.845  0.00  0.00    +0.000 A 
ATOM     13  O   UNL     1      -0.409  17.117  20.595  0.00  0.00    +0.000 OA
ATOM     14  C   UNL     1       0.359  17.488  19.432  0.00  0.00    +0.000 C 
ATOM     15  O   UNL     1       0.391  16.455  18.424  0.00  0.00    +0.000 OA
ATOM     16  H   UNL     1       0.944  10.624  22.046  0.00  0.00    +0.000 HD
ENDROOT
BRANCH   1  20
ATOM     17  C   UNL     1      -5.472  12.834  23.670  0.00  0.00    +0.000 A 
ATOM     18  C   UNL     1      -4.324  12.666  24.449  0.00  0.00    +0.000 A 
ATOM     19  C   UNL     1      -3.063  12.561  23.855  0.00  0.00    +0.000 A 
ATOM     20  C   UNL     1      -2.933  12.685  22.471  0.00  0.00    +0.000 A 
ATOM     21  C   UNL     1      -4.074  12.888  21.685  0.00  0.00    +0.000 A 
ATOM     22  C   UNL     1      -5.330  12.986  22.290  0.00  0.00    +0.000 A 
BRANCH  17  23
ATOM     23  N   UNL     1      -6.708  13.073  24.278  0.00  0.00    +0.000 N 
ATOM     24  H   UNL     1      -7.138  12.245  24.676  0.00  0.00    +0.000 HD
ATOM     25  H   UNL     1      -7.355  13.603  23.702  0.00  0.00    +0.000 HD
ENDBRANCH  17  23
ENDBRANCH   1  20
BRANCH   6  26
ATOM     26  C   UNL     1      -1.992  10.928  19.239  0.00  0.00    +0.000 C 
BRANCH  26  27
ATOM     27  C   UNL     1      -2.660  10.771  17.894  0.00  0.00    +0.000 A 
ATOM     28  C   UNL     1      -3.843  11.470  17.606  0.00  0.00    +0.000 A 
ATOM     29  C   UNL     1      -4.438  11.369  16.348  0.00  0.00    +0.000 A 
ATOM     30  C   UNL     1      -3.854  10.576  15.363  0.00  0.00    +0.000 A 
ATOM     31  C   UNL     1      -2.677   9.880  15.638  0.00  0.00    +0.000 A 
ATOM     32  C   UNL     1      -2.084   9.974  16.899  0.00  0.00    +0.000 A 
ENDBRANCH  26  27
ENDBRANCH   6  26
TORSDOF 4
ENDMDL
MODEL 9
REMARK VINA RESULT:      -7.8      7.071      8.744
REMARK  Name = 
REMARK  4 active torsions:
REMARK  status: ('A' for Active; 'I' for Inactive)
REMARK    1  A    between atoms: N_1  and  C_2
REMARK    2  A    between atoms: C_5  and  C_6
REMARK    3  A    between atoms: C_11  and  C_12
REMARK    4  A    between atoms: C_12  and  C_13
REMARK                            x       y       z     vdW  Elec       q    Type
REMARK                         _______ _______ _______ _____ _____    ______ ____
ROOT
ATOM      1  C   UNL     1       0.553   9.910  20.104  0.00  0.00    +0.000 C 
ATOM      2  N   UNL     1       0.782  10.231  21.347  0.00  0.00    +0.000 NA
ATOM      3  N   UNL     1       0.081  11.237  21.949  0.00  0.00    +0.000 N 
ATOM      4  C   UNL     1      -0.042  12.531  21.479  0.00  0.00    +0.000 C 
ATOM      5  O   UNL     1      -0.430  13.420  22.240  0.00  0.00    +0.000 OA
ATOM      6  C   UNL     1       0.242  12.807  20.005  0.00  0.00    +0.000 C 
ATOM      7  C   UNL     1      -0.678  11.900  19.193  0.00  0.00    +0.000 A 
ATOM      8  C   UNL     1      -1.775  12.434  18.492  0.00  0.00    +0.000 A 
ATOM      9  C   UNL     1      -2.677  11.552  17.930  0.00  0.00    +0.000 A 
ATOM     10  C   UNL     1      -2.508  10.188  18.003  0.00  0.00    +0.000 A 
ATOM     11  C   UNL     1      -1.436   9.622  18.651  0.00  0.00    +0.000 A 
ATOM     12  C   UNL     1      -0.531  10.493  19.272  0.00  0.00    +0.000 A 
ATOM     13  O   UNL     1      -3.529   9.505  17.419  0.00  0.00    +0.000 OA
ATOM     14  C   UNL     1      -4.433  10.589  17.120  0.00  0.00    +0.000 C 
ATOM     15  O   UNL     1      -3.833  11.889  17.298  0.00  0.00    +0.000 OA
ATOM     16  H   UNL     1       0.017  11.173  22.962  0.00  0.00    +0.000 HD
ENDROOT
BRANCH   1  20
ATOM     17  C   UNL     1       3.080   7.005  18.175  0.00  0.00    +0.000 A 
ATOM     18  C   UNL     1       2.769   8.213  17.545  0.00  0.00    +0.000 A 
ATOM     19  C   UNL     1       1.946   9.154  18.169  0.00  0.00    +0.000 A 
ATOM     20  C   UNL     1       1.473   8.920  19.460  0.00  0.00    +0.000 A 
ATOM     21  C   UNL     1       1.809   7.727  20.113  0.00  0.00    +0.000 A 
ATOM     22  C   UNL     1       2.628   6.790  19.478  0.00  0.00    +0.000 A 
BRANCH  17  23
ATOM     23  N   UNL     1       4.011   6.131  17.603  0.00  0.00    +0.000 N 
ATOM     24  H   UNL     1       3.595   5.317  17.163  0.00  0.00    +0.000 HD
ATOM     25  H   UNL     1       4.777   5.883  18.221  0.00  0.00    +0.000 HD
ENDBRANCH  17  23
ENDBRANCH   1  20
BRANCH   6  26
ATOM     26  C   UNL     1       1.729  12.705  19.599  0.00  0.00    +0.000 C 
BRANCH  26  27
ATOM     27  C   UNL     1       2.321  13.947  18.976  0.00  0.00    +0.000 A 
ATOM     28  C   UNL     1       3.602  13.907  18.401  0.00  0.00    +0.000 A 
ATOM     29  C   UNL     1       4.134  15.037  17.779  0.00  0.00    +0.000 A 
ATOM     30  C   UNL     1       3.392  16.214  17.718  0.00  0.00    +0.000 A 
ATOM     31  C   UNL     1       2.118  16.263  18.283  0.00  0.00    +0.000 A 
ATOM     32  C   UNL     1       1.586  15.135  18.912  0.00  0.00    +0.000 A 
ENDBRANCH  26  27
ENDBRANCH   6  26
TORSDOF 4
ENDMDL
