MODEL 1
REMARK VINA RESULT:      -8.1      0.000      0.000
REMARK  Name = 
REMARK  5 active torsions:
REMARK  status: ('A' for Active; 'I' for Inactive)
REMARK    1  A    between atoms: C_1  and  C_2
REMARK    2  A    between atoms: C_4  and  C_5
REMARK    3  A    between atoms: C_8  and  C_9
REMARK    4  A    between atoms: N_11  and  C_12
REMARK    5  A    between atoms: N_14  and  C_15
REMARK                            x       y       z     vdW  Elec       q    Type
REMARK                         _______ _______ _______ _____ _____    ______ ____
ROOT
ATOM      1  C   UNL     1       6.939   6.547  16.928  0.00  0.00    +0.000 C 
ATOM      2  O   UNL     1       7.728   6.350  16.007  0.00  0.00    +0.000 OA
ATOM      3  N   UNL     1       7.064   7.598  17.811  0.00  0.00    +0.000 N 
ATOM      4  H   UNL     1       6.432   7.658  18.599  0.00  0.00    +0.000 HD
ENDROOT
BRANCH   1  12
ATOM      5  C   UNL     1       0.490   2.382  18.799  0.00  0.00    +0.000 C 
ATOM      6  C   UNL     1       1.590   3.387  18.626  0.00  0.00    +0.000 A 
ATOM      7  C   UNL     1       1.515   4.635  19.225  0.00  0.00    +0.000 A 
ATOM      8  C   UNL     1       2.558   5.548  19.036  0.00  0.00    +0.000 A 
ATOM      9  C   UNL     1       2.477   6.898  19.693  0.00  0.00    +0.000 C 
ATOM     10  C   UNL     1       3.660   5.169  18.231  0.00  0.00    +0.000 A 
ATOM     11  C   UNL     1       4.760   6.014  17.965  0.00  0.00    +0.000 A 
ATOM     12  C   UNL     1       5.820   5.599  17.149  0.00  0.00    +0.000 A 
ATOM     13  C   UNL     1       5.805   4.313  16.614  0.00  0.00    +0.000 A 
ATOM     14  C   UNL     1       4.719   3.472  16.884  0.00  0.00    +0.000 A 
ATOM     15  C   UNL     1       3.646   3.872  17.670  0.00  0.00    +0.000 A 
ATOM     16  N   UNL     1       2.639   3.006  17.862  0.00  0.00    +0.000 NA
ENDBRANCH   1  12
BRANCH   3  17
ATOM     17  C   UNL     1       8.150   8.597  17.651  0.00  0.00    +0.000 C 
ATOM     18  C   UNL     1       7.728  10.076  17.716  0.00  0.00    +0.000 C 
ATOM     19  N   UNL     1       8.853  10.292  18.557  0.00  0.00    +0.000 N 
ATOM     20  C   UNL     1       9.004   8.912  18.896  0.00  0.00    +0.000 C 
BRANCH  19  21
ATOM     21  C   UNL     1       9.607  11.398  18.950  0.00  0.00    +0.000 A 
ATOM     22  N   UNL     1      10.351  11.989  17.976  0.00  0.00    +0.000 NA
ATOM     23  C   UNL     1      11.064  13.102  18.280  0.00  0.00    +0.000 A 
ATOM     24  C   UNL     1      11.087  13.677  19.535  0.00  0.00    +0.000 A 
ATOM     25 CL   UNL     1      12.000  15.095  19.847  0.00  0.00    +0.000 Cl
ATOM     26  C   UNL     1      10.352  13.075  20.541  0.00  0.00    +0.000 A 
ATOM     27  C   UNL     1       9.607  11.924  20.256  0.00  0.00    +0.000 A 
ATOM     28 CL   UNL     1       8.752  11.227  21.587  0.00  0.00    +0.000 Cl
ENDBRANCH  19  21
ENDBRANCH   3  17
TORSDOF 3
ENDMDL
MODEL 2
REMARK VINA RESULT:      -7.8      6.112      8.407
REMARK  Name = 
REMARK  5 active torsions:
REMARK  status: ('A' for Active; 'I' for Inactive)
REMARK    1  A    between atoms: C_1  and  C_2
REMARK    2  A    between atoms: C_4  and  C_5
REMARK    3  A    between atoms: C_8  and  C_9
REMARK    4  A    between atoms: N_11  and  C_12
REMARK    5  A    between atoms: N_14  and  C_15
REMARK                            x       y       z     vdW  Elec       q    Type
REMARK                         _______ _______ _______ _____ _____    ______ ____
ROOT
ATOM      1  C   UNL     1       2.075   8.691  18.296  0.00  0.00    +0.000 C 
ATOM      2  O   UNL     1       2.217   9.511  17.393  0.00  0.00    +0.000 OA
ATOM      3  N   UNL     1       1.452   8.989  19.490  0.00  0.00    +0.000 N 
ATOM      4  H   UNL     1       1.440   8.296  20.227  0.00  0.00    +0.000 HD
ENDROOT
BRANCH   1  12
ATOM      5  C   UNL     1       4.161   1.070  18.246  0.00  0.00    +0.000 C 
ATOM      6  C   UNL     1       3.554   2.424  18.460  0.00  0.00    +0.000 A 
ATOM      7  C   UNL     1       2.461   2.592  19.297  0.00  0.00    +0.000 A 
ATOM      8  C   UNL     1       1.918   3.869  19.465  0.00  0.00    +0.000 A 
ATOM      9  C   UNL     1       0.738   4.048  20.379  0.00  0.00    +0.000 C 
ATOM     10  C   UNL     1       2.502   4.957  18.770  0.00  0.00    +0.000 A 
ATOM     11  C   UNL     1       2.028   6.285  18.859  0.00  0.00    +0.000 A 
ATOM     12  C   UNL     1       2.630   7.324  18.139  0.00  0.00    +0.000 A 
ATOM     13  C   UNL     1       3.740   7.049  17.343  0.00  0.00    +0.000 A 
ATOM     14  C   UNL     1       4.214   5.734  17.260  0.00  0.00    +0.000 A 
ATOM     15  C   UNL     1       3.617   4.685  17.946  0.00  0.00    +0.000 A 
ATOM     16  N   UNL     1       4.128   3.453  17.796  0.00  0.00    +0.000 NA
ENDBRANCH   1  12
BRANCH   3  17
ATOM     17  C   UNL     1       0.859  10.329  19.721  0.00  0.00    +0.000 C 
ATOM     18  C   UNL     1      -0.679  10.403  19.720  0.00  0.00    +0.000 C 
ATOM     19  N   UNL     1      -0.575  11.220  20.877  0.00  0.00    +0.000 N 
ATOM     20  C   UNL     1       0.759  10.811  21.182  0.00  0.00    +0.000 C 
BRANCH  19  21
ATOM     21  C   UNL     1      -1.406  12.127  21.535  0.00  0.00    +0.000 A 
ATOM     22  N   UNL     1      -2.023  11.666  22.657  0.00  0.00    +0.000 NA
ATOM     23  C   UNL     1      -2.800  12.514  23.374  0.00  0.00    +0.000 A 
ATOM     24  C   UNL     1      -3.013  13.834  23.029  0.00  0.00    +0.000 A 
ATOM     25 CL   UNL     1      -3.997  14.859  23.991  0.00  0.00    +0.000 Cl
ATOM     26  C   UNL     1      -2.408  14.313  21.880  0.00  0.00    +0.000 A 
ATOM     27  C   UNL     1      -1.601  13.458  21.119  0.00  0.00    +0.000 A 
ATOM     28 CL   UNL     1      -0.920  14.139  19.683  0.00  0.00    +0.000 Cl
ENDBRANCH  19  21
ENDBRANCH   3  17
TORSDOF 3
ENDMDL
MODEL 3
REMARK VINA RESULT:      -7.7      6.229      8.247
REMARK  Name = 
REMARK  5 active torsions:
REMARK  status: ('A' for Active; 'I' for Inactive)
REMARK    1  A    between atoms: C_1  and  C_2
REMARK    2  A    between atoms: C_4  and  C_5
REMARK    3  A    between atoms: C_8  and  C_9
REMARK    4  A    between atoms: N_11  and  C_12
REMARK    5  A    between atoms: N_14  and  C_15
REMARK                            x       y       z     vdW  Elec       q    Type
REMARK                         _______ _______ _______ _____ _____    ______ ____
ROOT
ATOM      1  C   UNL     1       2.220   8.682  18.072  0.00  0.00    +0.000 C 
ATOM      2  O   UNL     1       2.457   9.476  17.165  0.00  0.00    +0.000 OA
ATOM      3  N   UNL     1       1.507   9.024  19.202  0.00  0.00    +0.000 N 
ATOM      4  H   UNL     1       1.418   8.350  19.951  0.00  0.00    +0.000 HD
ENDROOT
BRANCH   1  12
ATOM      5  C   UNL     1       4.166   1.033  18.441  0.00  0.00    +0.000 C 
ATOM      6  C   UNL     1       3.579   2.406  18.575  0.00  0.00    +0.000 A 
ATOM      7  C   UNL     1       2.474   2.634  19.380  0.00  0.00    +0.000 A 
ATOM      8  C   UNL     1       1.952   3.928  19.475  0.00  0.00    +0.000 A 
ATOM      9  C   UNL     1       0.757   4.173  20.355  0.00  0.00    +0.000 C 
ATOM     10  C   UNL     1       2.569   4.969  18.739  0.00  0.00    +0.000 A 
ATOM     11  C   UNL     1       2.118   6.308  18.752  0.00  0.00    +0.000 A 
ATOM     12  C   UNL     1       2.753   7.300  17.994  0.00  0.00    +0.000 A 
ATOM     13  C   UNL     1       3.872   6.966  17.235  0.00  0.00    +0.000 A 
ATOM     14  C   UNL     1       4.324   5.641  17.227  0.00  0.00    +0.000 A 
ATOM     15  C   UNL     1       3.695   4.637  17.952  0.00  0.00    +0.000 A 
ATOM     16  N   UNL     1       4.186   3.391  17.873  0.00  0.00    +0.000 NA
ENDBRANCH   1  12
BRANCH   3  17
ATOM     17  C   UNL     1       0.930  10.383  19.351  0.00  0.00    +0.000 C 
ATOM     18  C   UNL     1      -0.606  10.473  19.353  0.00  0.00    +0.000 C 
ATOM     19  N   UNL     1      -0.488  11.360  20.456  0.00  0.00    +0.000 N 
ATOM     20  C   UNL     1       0.844  10.957  20.780  0.00  0.00    +0.000 C 
BRANCH  19  21
ATOM     21  C   UNL     1      -1.305  12.316  21.060  0.00  0.00    +0.000 A 
ATOM     22  N   UNL     1      -1.572  13.426  20.319  0.00  0.00    +0.000 NA
ATOM     23  C   UNL     1      -2.404  14.368  20.827  0.00  0.00    +0.000 A 
ATOM     24  C   UNL     1      -3.003  14.273  22.068  0.00  0.00    +0.000 A 
ATOM     25 CL   UNL     1      -4.059  15.496  22.644  0.00  0.00    +0.000 Cl
ATOM     26  C   UNL     1      -2.725  13.159  22.841  0.00  0.00    +0.000 A 
ATOM     27  C   UNL     1      -1.867  12.171  22.342  0.00  0.00    +0.000 A 
ATOM     28 CL   UNL     1      -1.555  10.838  23.398  0.00  0.00    +0.000 Cl
ENDBRANCH  19  21
ENDBRANCH   3  17
TORSDOF 3
ENDMDL
MODEL 4
REMARK VINA RESULT:      -7.7      1.111      1.217
REMARK  Name = 
REMARK  5 active torsions:
REMARK  status: ('A' for Active; 'I' for Inactive)
REMARK    1  A    between atoms: C_1  and  C_2
REMARK    2  A    between atoms: C_4  and  C_5
REMARK    3  A    between atoms: C_8  and  C_9
REMARK    4  A    between atoms: N_11  and  C_12
REMARK    5  A    between atoms: N_14  and  C_15
REMARK                            x       y       z     vdW  Elec       q    Type
REMARK                         _______ _______ _______ _____ _____    ______ ____
ROOT
ATOM      1  C   UNL     1       6.871   6.384  16.893  0.00  0.00    +0.000 C 
ATOM      2  O   UNL     1       7.590   6.244  15.908  0.00  0.00    +0.000 OA
ATOM      3  N   UNL     1       7.078   7.364  17.841  0.00  0.00    +0.000 N 
ATOM      4  H   UNL     1       6.503   7.376  18.673  0.00  0.00    +0.000 HD
ENDROOT
BRANCH   1  12
ATOM      5  C   UNL     1       0.428   2.238  18.825  0.00  0.00    +0.000 C 
ATOM      6  C   UNL     1       1.531   3.237  18.646  0.00  0.00    +0.000 A 
ATOM      7  C   UNL     1       1.477   4.477  19.266  0.00  0.00    +0.000 A 
ATOM      8  C   UNL     1       2.523   5.385  19.070  0.00  0.00    +0.000 A 
ATOM      9  C   UNL     1       2.464   6.725  19.749  0.00  0.00    +0.000 C 
ATOM     10  C   UNL     1       3.607   5.010  18.238  0.00  0.00    +0.000 A 
ATOM     11  C   UNL     1       4.707   5.852  17.964  0.00  0.00    +0.000 A 
ATOM     12  C   UNL     1       5.748   5.441  17.122  0.00  0.00    +0.000 A 
ATOM     13  C   UNL     1       5.713   4.164  16.568  0.00  0.00    +0.000 A 
ATOM     14  C   UNL     1       4.626   3.326  16.845  0.00  0.00    +0.000 A 
ATOM     15  C   UNL     1       3.572   3.722  17.658  0.00  0.00    +0.000 A 
ATOM     16  N   UNL     1       2.562   2.861  17.857  0.00  0.00    +0.000 NA
ENDBRANCH   1  12
BRANCH   3  17
ATOM     17  C   UNL     1       8.172   8.354  17.680  0.00  0.00    +0.000 C 
ATOM     18  C   UNL     1       7.740   9.814  17.451  0.00  0.00    +0.000 C 
ATOM     19  N   UNL     1       8.732  10.187  18.397  0.00  0.00    +0.000 N 
ATOM     20  C   UNL     1       8.839   8.881  18.966  0.00  0.00    +0.000 C 
BRANCH  19  21
ATOM     21  C   UNL     1       9.419  11.359  18.713  0.00  0.00    +0.000 A 
ATOM     22  N   UNL     1      10.493  11.218  19.537  0.00  0.00    +0.000 NA
ATOM     23  C   UNL     1      11.236  12.311  19.839  0.00  0.00    +0.000 A 
ATOM     24  C   UNL     1      10.965  13.577  19.360  0.00  0.00    +0.000 A 
ATOM     25 CL   UNL     1      11.956  14.916  19.770  0.00  0.00    +0.000 Cl
ATOM     26  C   UNL     1       9.864  13.741  18.537  0.00  0.00    +0.000 A 
ATOM     27  C   UNL     1       9.077  12.629  18.210  0.00  0.00    +0.000 A 
ATOM     28 CL   UNL     1       7.705  12.942  17.206  0.00  0.00    +0.000 Cl
ENDBRANCH  19  21
ENDBRANCH   3  17
TORSDOF 3
ENDMDL
MODEL 5
REMARK VINA RESULT:      -7.4      3.701      9.982
REMARK  Name = 
REMARK  5 active torsions:
REMARK  status: ('A' for Active; 'I' for Inactive)
REMARK    1  A    between atoms: C_1  and  C_2
REMARK    2  A    between atoms: C_4  and  C_5
REMARK    3  A    between atoms: C_8  and  C_9
REMARK    4  A    between atoms: N_11  and  C_12
REMARK    5  A    between atoms: N_14  and  C_15
REMARK                            x       y       z     vdW  Elec       q    Type
REMARK                         _______ _______ _______ _____ _____    ______ ____
ROOT
ATOM      1  C   UNL     1       8.585   8.787  18.502  0.00  0.00    +0.000 C 
ATOM      2  O   UNL     1       8.891   7.878  19.268  0.00  0.00    +0.000 OA
ATOM      3  N   UNL     1       7.763   8.605  17.410  0.00  0.00    +0.000 N 
ATOM      4  H   UNL     1       7.615   9.374  16.769  0.00  0.00    +0.000 HD
ENDROOT
BRANCH   1  12
ATOM      5  C   UNL     1      11.145  15.915  20.755  0.00  0.00    +0.000 C 
ATOM      6  C   UNL     1      10.544  14.549  20.613  0.00  0.00    +0.000 A 
ATOM      7  C   UNL     1       9.900  13.938  21.678  0.00  0.00    +0.000 A 
ATOM      8  C   UNL     1       9.356  12.661  21.508  0.00  0.00    +0.000 A 
ATOM      9  C   UNL     1       8.653  12.006  22.664  0.00  0.00    +0.000 C 
ATOM     10  C   UNL     1       9.485  12.026  20.248  0.00  0.00    +0.000 A 
ATOM     11  C   UNL     1       8.984  10.735  19.970  0.00  0.00    +0.000 A 
ATOM     12  C   UNL     1       9.150  10.144  18.712  0.00  0.00    +0.000 A 
ATOM     13  C   UNL     1       9.794  10.856  17.703  0.00  0.00    +0.000 A 
ATOM     14  C   UNL     1      10.284  12.138  17.975  0.00  0.00    +0.000 A 
ATOM     15  C   UNL     1      10.152  12.734  19.223  0.00  0.00    +0.000 A 
ATOM     16  N   UNL     1      10.666  13.961  19.401  0.00  0.00    +0.000 NA
ENDBRANCH   1  12
BRANCH   3  17
ATOM     17  C   UNL     1       7.148   7.282  17.138  0.00  0.00    +0.000 C 
ATOM     18  C   UNL     1       7.102   6.296  18.319  0.00  0.00    +0.000 C 
ATOM     19  N   UNL     1       5.761   6.013  17.946  0.00  0.00    +0.000 N 
ATOM     20  C   UNL     1       5.608   7.202  17.170  0.00  0.00    +0.000 C 
BRANCH  19  21
ATOM     21  C   UNL     1       4.857   4.977  18.184  0.00  0.00    +0.000 A 
ATOM     22  N   UNL     1       4.180   5.035  19.363  0.00  0.00    +0.000 NA
ATOM     23  C   UNL     1       3.247   4.089  19.630  0.00  0.00    +0.000 A 
ATOM     24  C   UNL     1       2.939   3.053  18.771  0.00  0.00    +0.000 A 
ATOM     25 CL   UNL     1       1.734   1.896  19.166  0.00  0.00    +0.000 Cl
ATOM     26  C   UNL     1       3.633   2.969  17.577  0.00  0.00    +0.000 A 
ATOM     27  C   UNL     1       4.604   3.932  17.276  0.00  0.00    +0.000 A 
ATOM     28 CL   UNL     1       5.440   3.720  15.777  0.00  0.00    +0.000 Cl
ENDBRANCH  19  21
ENDBRANCH   3  17
TORSDOF 3
ENDMDL
MODEL 6
REMARK VINA RESULT:      -7.4      1.006      1.030
REMARK  Name = 
REMARK  5 active torsions:
REMARK  status: ('A' for Active; 'I' for Inactive)
REMARK    1  A    between atoms: C_1  and  C_2
REMARK    2  A    between atoms: C_4  and  C_5
REMARK    3  A    between atoms: C_8  and  C_9
REMARK    4  A    between atoms: N_11  and  C_12
REMARK    5  A    between atoms: N_14  and  C_15
REMARK                            x       y       z     vdW  Elec       q    Type
REMARK                         _______ _______ _______ _____ _____    ______ ____
ROOT
ATOM      1  C   UNL     1       7.377   7.213  17.310  0.00  0.00    +0.000 C 
ATOM      2  O   UNL     1       8.143   7.022  16.368  0.00  0.00    +0.000 OA
ATOM      3  N   UNL     1       7.473   8.306  18.145  0.00  0.00    +0.000 N 
ATOM      4  H   UNL     1       6.866   8.364  18.953  0.00  0.00    +0.000 HD
ENDROOT
BRANCH   1  12
ATOM      5  C   UNL     1       0.984   2.843  18.878  0.00  0.00    +0.000 C 
ATOM      6  C   UNL     1       1.997   3.907  18.582  0.00  0.00    +0.000 A 
ATOM      7  C   UNL     1       1.616   5.231  18.421  0.00  0.00    +0.000 A 
ATOM      8  C   UNL     1       2.590   6.194  18.140  0.00  0.00    +0.000 A 
ATOM      9  C   UNL     1       2.174   7.629  17.974  0.00  0.00    +0.000 C 
ATOM     10  C   UNL     1       3.942   5.785  18.023  0.00  0.00    +0.000 A 
ATOM     11  C   UNL     1       5.003   6.670  17.731  0.00  0.00    +0.000 A 
ATOM     12  C   UNL     1       6.322   6.214  17.610  0.00  0.00    +0.000 A 
ATOM     13  C   UNL     1       6.598   4.864  17.813  0.00  0.00    +0.000 A 
ATOM     14  C   UNL     1       5.548   3.988  18.110  0.00  0.00    +0.000 A 
ATOM     15  C   UNL     1       4.230   4.414  18.211  0.00  0.00    +0.000 A 
ATOM     16  N   UNL     1       3.284   3.502  18.483  0.00  0.00    +0.000 NA
ENDBRANCH   1  12
BRANCH   3  17
ATOM     17  C   UNL     1       8.493   9.356  17.905  0.00  0.00    +0.000 C 
ATOM     18  C   UNL     1       7.989  10.810  17.915  0.00  0.00    +0.000 C 
ATOM     19  N   UNL     1       9.122  11.129  18.709  0.00  0.00    +0.000 N 
ATOM     20  C   UNL     1       9.363   9.778  19.106  0.00  0.00    +0.000 C 
BRANCH  19  21
ATOM     21  C   UNL     1       9.822  12.294  19.026  0.00  0.00    +0.000 A 
ATOM     22  N   UNL     1      10.506  12.876  18.004  0.00  0.00    +0.000 NA
ATOM     23  C   UNL     1      11.162  14.041  18.233  0.00  0.00    +0.000 A 
ATOM     24  C   UNL     1      11.184  14.678  19.457  0.00  0.00    +0.000 A 
ATOM     25 CL   UNL     1      12.022  16.159  19.675  0.00  0.00    +0.000 Cl
ATOM     26  C   UNL     1      10.510  14.088  20.512  0.00  0.00    +0.000 A 
ATOM     27  C   UNL     1       9.825  12.884  20.304  0.00  0.00    +0.000 A 
ATOM     28 CL   UNL     1       9.045  12.208  21.691  0.00  0.00    +0.000 Cl
ENDBRANCH  19  21
ENDBRANCH   3  17
TORSDOF 3
ENDMDL
MODEL 7
REMARK VINA RESULT:      -7.4      1.504      1.761
REMARK  Name = 
REMARK  5 active torsions:
REMARK  status: ('A' for Active; 'I' for Inactive)
REMARK    1  A    between atoms: C_1  and  C_2
REMARK    2  A    between atoms: C_4  and  C_5
REMARK    3  A    between atoms: C_8  and  C_9
REMARK    4  A    between atoms: N_11  and  C_12
REMARK    5  A    between atoms: N_14  and  C_15
REMARK                            x       y       z     vdW  Elec       q    Type
REMARK                         _______ _______ _______ _____ _____    ______ ____
ROOT
ATOM      1  C   UNL     1       7.518   7.338  17.376  0.00  0.00    +0.000 C 
ATOM      2  O   UNL     1       8.286   7.218  16.425  0.00  0.00    +0.000 OA
ATOM      3  N   UNL     1       7.606   8.370  18.286  0.00  0.00    +0.000 N 
ATOM      4  H   UNL     1       6.997   8.368  19.095  0.00  0.00    +0.000 HD
ENDROOT
BRANCH   1  12
ATOM      5  C   UNL     1       1.145   2.830  18.604  0.00  0.00    +0.000 C 
ATOM      6  C   UNL     1       2.153   3.918  18.384  0.00  0.00    +0.000 A 
ATOM      7  C   UNL     1       1.762   5.246  18.297  0.00  0.00    +0.000 A 
ATOM      8  C   UNL     1       2.731   6.232  18.086  0.00  0.00    +0.000 A 
ATOM      9  C   UNL     1       2.304   7.671  18.000  0.00  0.00    +0.000 C 
ATOM     10  C   UNL     1       4.087   5.842  17.961  0.00  0.00    +0.000 A 
ATOM     11  C   UNL     1       5.143   6.751  17.735  0.00  0.00    +0.000 A 
ATOM     12  C   UNL     1       6.468   6.315  17.603  0.00  0.00    +0.000 A 
ATOM     13  C   UNL     1       6.754   4.957  17.730  0.00  0.00    +0.000 A 
ATOM     14  C   UNL     1       5.708   4.056  17.961  0.00  0.00    +0.000 A 
ATOM     15  C   UNL     1       4.385   4.464  18.071  0.00  0.00    +0.000 A 
ATOM     16  N   UNL     1       3.444   3.530  18.276  0.00  0.00    +0.000 NA
ENDBRANCH   1  12
BRANCH   3  17
ATOM     17  C   UNL     1       8.620   9.440  18.122  0.00  0.00    +0.000 C 
ATOM     18  C   UNL     1       8.078  10.859  17.869  0.00  0.00    +0.000 C 
ATOM     19  N   UNL     1       9.027  11.320  18.820  0.00  0.00    +0.000 N 
ATOM     20  C   UNL     1       9.229  10.034  19.408  0.00  0.00    +0.000 C 
BRANCH  19  21
ATOM     21  C   UNL     1       9.617  12.547  19.126  0.00  0.00    +0.000 A 
ATOM     22  N   UNL     1       8.879  13.385  19.905  0.00  0.00    +0.000 NA
ATOM     23  C   UNL     1       9.417  14.570  20.284  0.00  0.00    +0.000 A 
ATOM     24  C   UNL     1      10.682  14.988  19.922  0.00  0.00    +0.000 A 
ATOM     25 CL   UNL     1      11.308  16.496  20.450  0.00  0.00    +0.000 Cl
ATOM     26  C   UNL     1      11.437  14.156  19.114  0.00  0.00    +0.000 A 
ATOM     27  C   UNL     1      10.905  12.926  18.705  0.00  0.00    +0.000 A 
ATOM     28 CL   UNL     1      11.911  11.974  17.669  0.00  0.00    +0.000 Cl
ENDBRANCH  19  21
ENDBRANCH   3  17
TORSDOF 3
ENDMDL
MODEL 8
REMARK VINA RESULT:      -7.3      6.040      9.028
REMARK  Name = 
REMARK  5 active torsions:
REMARK  status: ('A' for Active; 'I' for Inactive)
REMARK    1  A    between atoms: C_1  and  C_2
REMARK    2  A    between atoms: C_4  and  C_5
REMARK    3  A    between atoms: C_8  and  C_9
REMARK    4  A    between atoms: N_11  and  C_12
REMARK    5  A    between atoms: N_14  and  C_15
REMARK                            x       y       z     vdW  Elec       q    Type
REMARK                         _______ _______ _______ _____ _____    ______ ____
ROOT
ATOM      1  C   UNL     1       1.521   8.023  20.164  0.00  0.00    +0.000 C 
ATOM      2  O   UNL     1       1.864   8.377  19.040  0.00  0.00    +0.000 OA
ATOM      3  N   UNL     1       1.801   6.773  20.676  0.00  0.00    +0.000 N 
ATOM      4  H   UNL     1       1.419   6.512  21.576  0.00  0.00    +0.000 HD
ENDROOT
BRANCH   1  12
ATOM      5  C   UNL     1      -3.021  13.477  23.636  0.00  0.00    +0.000 C 
ATOM      6  C   UNL     1      -2.239  12.587  22.718  0.00  0.00    +0.000 A 
ATOM      7  C   UNL     1      -2.279  12.769  21.344  0.00  0.00    +0.000 A 
ATOM      8  C   UNL     1      -1.540  11.914  20.519  0.00  0.00    +0.000 A 
ATOM      9  C   UNL     1      -1.581  12.119  19.030  0.00  0.00    +0.000 C 
ATOM     10  C   UNL     1      -0.774  10.883  21.115  0.00  0.00    +0.000 A 
ATOM     11  C   UNL     1      -0.001   9.959  20.378  0.00  0.00    +0.000 A 
ATOM     12  C   UNL     1       0.729   8.946  21.014  0.00  0.00    +0.000 A 
ATOM     13  C   UNL     1       0.717   8.867  22.404  0.00  0.00    +0.000 A 
ATOM     14  C   UNL     1      -0.043   9.788  23.136  0.00  0.00    +0.000 A 
ATOM     15  C   UNL     1      -0.793  10.784  22.525  0.00  0.00    +0.000 A 
ATOM     16  N   UNL     1      -1.505  11.613  23.304  0.00  0.00    +0.000 NA
ENDBRANCH   1  12
BRANCH   3  17
ATOM     17  C   UNL     1       2.599   5.796  19.895  0.00  0.00    +0.000 C 
ATOM     18  C   UNL     1       2.187   5.602  18.424  0.00  0.00    +0.000 C 
ATOM     19  N   UNL     1       3.569   5.659  18.099  0.00  0.00    +0.000 N 
ATOM     20  C   UNL     1       3.946   6.284  19.326  0.00  0.00    +0.000 C 
BRANCH  19  21
ATOM     21  C   UNL     1       4.356   5.262  17.017  0.00  0.00    +0.000 A 
ATOM     22  N   UNL     1       4.839   6.263  16.232  0.00  0.00    +0.000 NA
ATOM     23  C   UNL     1       5.656   5.947  15.196  0.00  0.00    +0.000 A 
ATOM     24  C   UNL     1       6.030   4.656  14.882  0.00  0.00    +0.000 A 
ATOM     25 CL   UNL     1       7.080   4.328  13.566  0.00  0.00    +0.000 Cl
ATOM     26  C   UNL     1       5.531   3.626  15.660  0.00  0.00    +0.000 A 
ATOM     27  C   UNL     1       4.683   3.922  16.735  0.00  0.00    +0.000 A 
ATOM     28 CL   UNL     1       4.085   2.565  17.623  0.00  0.00    +0.000 Cl
ENDBRANCH  19  21
ENDBRANCH   3  17
TORSDOF 3
ENDMDL
MODEL 9
REMARK VINA RESULT:      -7.3      6.049      8.557
REMARK  Name = 
REMARK  5 active torsions:
REMARK  status: ('A' for Active; 'I' for Inactive)
REMARK    1  A    between atoms: C_1  and  C_2
REMARK    2  A    between atoms: C_4  and  C_5
REMARK    3  A    between atoms: C_8  and  C_9
REMARK    4  A    between atoms: N_11  and  C_12
REMARK    5  A    between atoms: N_14  and  C_15
REMARK                            x       y       z     vdW  Elec       q    Type
REMARK                         _______ _______ _______ _____ _____    ______ ____
ROOT
ATOM      1  C   UNL     1       1.724   7.609  19.867  0.00  0.00    +0.000 C 
ATOM      2  O   UNL     1       1.511   6.882  20.834  0.00  0.00    +0.000 OA
ATOM      3  N   UNL     1       1.105   8.829  19.695  0.00  0.00    +0.000 N 
ATOM      4  H   UNL     1       1.258   9.344  18.837  0.00  0.00    +0.000 HD
ENDROOT
BRANCH   1  12
ATOM      5  C   UNL     1       6.485   4.080  14.641  0.00  0.00    +0.000 C 
ATOM      6  C   UNL     1       5.549   4.466  15.747  0.00  0.00    +0.000 A 
ATOM      7  C   UNL     1       5.016   3.508  16.597  0.00  0.00    +0.000 A 
ATOM      8  C   UNL     1       4.142   3.906  17.613  0.00  0.00    +0.000 A 
ATOM      9  C   UNL     1       3.572   2.866  18.537  0.00  0.00    +0.000 C 
ATOM     10  C   UNL     1       3.824   5.281  17.741  0.00  0.00    +0.000 A 
ATOM     11  C   UNL     1       2.945   5.790  18.723  0.00  0.00    +0.000 A 
ATOM     12  C   UNL     1       2.650   7.157  18.800  0.00  0.00    +0.000 A 
ATOM     13  C   UNL     1       3.259   8.038  17.909  0.00  0.00    +0.000 A 
ATOM     14  C   UNL     1       4.136   7.534  16.940  0.00  0.00    +0.000 A 
ATOM     15  C   UNL     1       4.424   6.180  16.831  0.00  0.00    +0.000 A 
ATOM     16  N   UNL     1       5.263   5.783  15.862  0.00  0.00    +0.000 NA
ENDBRANCH   1  12
BRANCH   3  17
ATOM     17  C   UNL     1       0.175   9.359  20.723  0.00  0.00    +0.000 C 
ATOM     18  C   UNL     1       0.785  10.311  21.767  0.00  0.00    +0.000 C 
ATOM     19  N   UNL     1      -0.351  11.142  21.577  0.00  0.00    +0.000 N 
ATOM     20  C   UNL     1      -0.706  10.559  20.322  0.00  0.00    +0.000 C 
BRANCH  19  21
ATOM     21  C   UNL     1      -0.974  12.160  22.299  0.00  0.00    +0.000 A 
ATOM     22  N   UNL     1      -2.118  11.815  22.951  0.00  0.00    +0.000 NA
ATOM     23  C   UNL     1      -2.743  12.745  23.715  0.00  0.00    +0.000 A 
ATOM     24  C   UNL     1      -2.288  14.039  23.872  0.00  0.00    +0.000 A 
ATOM     25 CL   UNL     1      -3.120  15.161  24.868  0.00  0.00    +0.000 Cl
ATOM     26  C   UNL     1      -1.136  14.410  23.200  0.00  0.00    +0.000 A 
ATOM     27  C   UNL     1      -0.471  13.471  22.402  0.00  0.00    +0.000 A 
ATOM     28 CL   UNL     1       0.936  14.041  21.576  0.00  0.00    +0.000 Cl
ENDBRANCH  19  21
ENDBRANCH   3  17
TORSDOF 3
ENDMDL
