MODEL 1
REMARK VINA RESULT:      -7.5      0.000      0.000
REMARK  Name = 
REMARK  9 active torsions:
REMARK  status: ('A' for Active; 'I' for Inactive)
REMARK    1  A    between atoms: C_1  and  O_2
REMARK    2  A    between atoms: O_2  and  C_3
REMARK    3  A    between atoms: C_6  and  C_7
REMARK    4  A    between atoms: C_8  and  C_9
REMARK    5  A    between atoms: C_9  and  C_11
REMARK    6  A    between atoms: C_14  and  C_15
REMARK    7  A    between atoms: C_16  and  C_17
REMARK    8  A    between atoms: C_26  and  O_27
REMARK    9  A    between atoms: O_27  and  C_28
REMARK                            x       y       z     vdW  Elec       q    Type
REMARK                         _______ _______ _______ _____ _____    ______ ____
ROOT
ATOM      1  C   UNL     1       2.043   4.688  20.929  0.00  0.00    +0.000 C 
ATOM      2  O   UNL     1       2.032   3.894  21.861  0.00  0.00    +0.000 OA
ENDROOT
BRANCH   1   3
ATOM      3  C   UNL     1       2.881   4.450  19.721  0.00  0.00    +0.000 A 
ATOM      4  C   UNL     1       2.255   4.246  18.489  0.00  0.00    +0.000 A 
ATOM      5  C   UNL     1       3.024   4.031  17.337  0.00  0.00    +0.000 A 
ATOM      6  C   UNL     1       4.425   4.038  17.397  0.00  0.00    +0.000 A 
ATOM      7  C   UNL     1       5.043   4.231  18.637  0.00  0.00    +0.000 A 
ATOM      8  C   UNL     1       4.281   4.452  19.786  0.00  0.00    +0.000 A 
BRANCH   6   9
ATOM      9  C   UNL     1       5.194   3.835  16.160  0.00  0.00    +0.000 C 
ATOM     10  C   UNL     1       5.369   4.781  15.224  0.00  0.00    +0.000 C 
BRANCH  10  11
ATOM     11  C   UNL     1       6.059   4.496  13.967  0.00  0.00    +0.000 A 
ATOM     12  C   UNL     1       7.211   5.218  13.638  0.00  0.00    +0.000 A 
ATOM     13  C   UNL     1       7.885   4.960  12.444  0.00  0.00    +0.000 A 
ATOM     14  C   UNL     1       7.411   3.978  11.576  0.00  0.00    +0.000 A 
ATOM     15  C   UNL     1       6.263   3.254  11.900  0.00  0.00    +0.000 A 
ATOM     16  C   UNL     1       5.585   3.513  13.092  0.00  0.00    +0.000 A 
ENDBRANCH  10  11
ENDBRANCH   6   9
ENDBRANCH   1   3
BRANCH   1  18
ATOM     17  C   UNL     1       1.834   7.141  20.775  0.00  0.00    +0.000 C 
ATOM     18  C   UNL     1       1.252   5.946  20.945  0.00  0.00    +0.000 C 
BRANCH  17  22
ATOM     19  C   UNL     1      -0.335  10.839  21.128  0.00  0.00    +0.000 A 
ATOM     20  C   UNL     1      -0.347   9.878  22.153  0.00  0.00    +0.000 A 
ATOM     21  C   UNL     1       0.370   8.684  22.033  0.00  0.00    +0.000 A 
ATOM     22  C   UNL     1       1.087   8.404  20.871  0.00  0.00    +0.000 A 
ATOM     23  C   UNL     1       1.070   9.351  19.840  0.00  0.00    +0.000 A 
ATOM     24  C   UNL     1       0.356  10.557  19.943  0.00  0.00    +0.000 A 
BRANCH  19  26
ATOM     25  C   UNL     1      -0.358  13.016  22.054  0.00  0.00    +0.000 C 
ATOM     26  O   UNL     1      -1.003  12.028  21.254  0.00  0.00    +0.000 OA
ENDBRANCH  19  26
BRANCH  24  27
ATOM     27  O   UNL     1       0.473  11.310  18.805  0.00  0.00    +0.000 OA
ATOM     28  C   UNL     1       1.598  12.158  18.646  0.00  0.00    +0.000 C 
ENDBRANCH  24  27
ENDBRANCH  17  22
ENDBRANCH   1  18
TORSDOF 7
ENDMDL
MODEL 2
REMARK VINA RESULT:      -7.3      3.827      6.738
REMARK  Name = 
REMARK  9 active torsions:
REMARK  status: ('A' for Active; 'I' for Inactive)
REMARK    1  A    between atoms: C_1  and  O_2
REMARK    2  A    between atoms: O_2  and  C_3
REMARK    3  A    between atoms: C_6  and  C_7
REMARK    4  A    between atoms: C_8  and  C_9
REMARK    5  A    between atoms: C_9  and  C_11
REMARK    6  A    between atoms: C_14  and  C_15
REMARK    7  A    between atoms: C_16  and  C_17
REMARK    8  A    between atoms: C_26  and  O_27
REMARK    9  A    between atoms: O_27  and  C_28
REMARK                            x       y       z     vdW  Elec       q    Type
REMARK                         _______ _______ _______ _____ _____    ______ ____
ROOT
ATOM      1  C   UNL     1       0.791  12.083  19.074  0.00  0.00    +0.000 C 
ATOM      2  O   UNL     1       1.618  12.967  19.256  0.00  0.00    +0.000 OA
ENDROOT
BRANCH   1   3
ATOM      3  C   UNL     1       1.172  10.644  19.123  0.00  0.00    +0.000 A 
ATOM      4  C   UNL     1       1.716  10.045  17.984  0.00  0.00    +0.000 A 
ATOM      5  C   UNL     1       2.091   8.695  18.011  0.00  0.00    +0.000 A 
ATOM      6  C   UNL     1       1.948   7.933  19.179  0.00  0.00    +0.000 A 
ATOM      7  C   UNL     1       1.391   8.538  20.311  0.00  0.00    +0.000 A 
ATOM      8  C   UNL     1       1.022   9.885  20.291  0.00  0.00    +0.000 A 
BRANCH   6   9
ATOM      9  C   UNL     1       2.379   6.527  19.173  0.00  0.00    +0.000 C 
ATOM     10  C   UNL     1       2.177   5.687  18.145  0.00  0.00    +0.000 C 
BRANCH  10  11
ATOM     11  C   UNL     1       2.537   4.273  18.229  0.00  0.00    +0.000 A 
ATOM     12  C   UNL     1       1.742   3.407  18.987  0.00  0.00    +0.000 A 
ATOM     13  C   UNL     1       2.068   2.053  19.079  0.00  0.00    +0.000 A 
ATOM     14  C   UNL     1       3.189   1.561  18.412  0.00  0.00    +0.000 A 
ATOM     15  C   UNL     1       3.984   2.421  17.655  0.00  0.00    +0.000 A 
ATOM     16  C   UNL     1       3.662   3.776  17.564  0.00  0.00    +0.000 A 
ENDBRANCH  10  11
ENDBRANCH   6   9
ENDBRANCH   1   3
BRANCH   1  18
ATOM     17  C   UNL     1      -1.589  11.451  18.930  0.00  0.00    +0.000 C 
ATOM     18  C   UNL     1      -0.633  12.376  18.767  0.00  0.00    +0.000 C 
BRANCH  17  22
ATOM     19  C   UNL     1      -5.687  12.087  17.785  0.00  0.00    +0.000 A 
ATOM     20  C   UNL     1      -4.733  11.610  16.871  0.00  0.00    +0.000 A 
ATOM     21  C   UNL     1      -3.406  11.396  17.255  0.00  0.00    +0.000 A 
ATOM     22  C   UNL     1      -2.991  11.689  18.553  0.00  0.00    +0.000 A 
ATOM     23  C   UNL     1      -3.939  12.194  19.452  0.00  0.00    +0.000 A 
ATOM     24  C   UNL     1      -5.276  12.414  19.083  0.00  0.00    +0.000 A 
BRANCH  19  26
ATOM     25  C   UNL     1      -7.347  13.575  16.994  0.00  0.00    +0.000 C 
ATOM     26  O   UNL     1      -6.997  12.262  17.426  0.00  0.00    +0.000 OA
ENDBRANCH  19  26
BRANCH  24  27
ATOM     27  O   UNL     1      -6.006  12.929  20.122  0.00  0.00    +0.000 OA
ATOM     28  C   UNL     1      -6.744  12.050  20.954  0.00  0.00    +0.000 C 
ENDBRANCH  24  27
ENDBRANCH  17  22
ENDBRANCH   1  18
TORSDOF 7
ENDMDL
MODEL 3
REMARK VINA RESULT:      -7.3      0.450      1.364
REMARK  Name = 
REMARK  9 active torsions:
REMARK  status: ('A' for Active; 'I' for Inactive)
REMARK    1  A    between atoms: C_1  and  O_2
REMARK    2  A    between atoms: O_2  and  C_3
REMARK    3  A    between atoms: C_6  and  C_7
REMARK    4  A    between atoms: C_8  and  C_9
REMARK    5  A    between atoms: C_9  and  C_11
REMARK    6  A    between atoms: C_14  and  C_15
REMARK    7  A    between atoms: C_16  and  C_17
REMARK    8  A    between atoms: C_26  and  O_27
REMARK    9  A    between atoms: O_27  and  C_28
REMARK                            x       y       z     vdW  Elec       q    Type
REMARK                         _______ _______ _______ _____ _____    ______ ____
ROOT
ATOM      1  C   UNL     1       2.036   4.803  20.956  0.00  0.00    +0.000 C 
ATOM      2  O   UNL     1       2.083   3.990  21.870  0.00  0.00    +0.000 OA
ENDROOT
BRANCH   1   3
ATOM      3  C   UNL     1       2.820   4.606  19.704  0.00  0.00    +0.000 A 
ATOM      4  C   UNL     1       4.207   4.765  19.740  0.00  0.00    +0.000 A 
ATOM      5  C   UNL     1       4.966   4.575  18.577  0.00  0.00    +0.000 A 
ATOM      6  C   UNL     1       4.352   4.205  17.371  0.00  0.00    +0.000 A 
ATOM      7  C   UNL     1       2.961   4.061  17.343  0.00  0.00    +0.000 A 
ATOM      8  C   UNL     1       2.202   4.242  18.501  0.00  0.00    +0.000 A 
BRANCH   6   9
ATOM      9  C   UNL     1       5.188   3.990  16.180  0.00  0.00    +0.000 C 
ATOM     10  C   UNL     1       5.240   4.838  15.140  0.00  0.00    +0.000 C 
BRANCH  10  11
ATOM     11  C   UNL     1       6.012   4.527  13.938  0.00  0.00    +0.000 A 
ATOM     12  C   UNL     1       5.581   3.500  13.093  0.00  0.00    +0.000 A 
ATOM     13  C   UNL     1       6.303   3.189  11.940  0.00  0.00    +0.000 A 
ATOM     14  C   UNL     1       7.457   3.905  11.627  0.00  0.00    +0.000 A 
ATOM     15  C   UNL     1       7.891   4.932  12.467  0.00  0.00    +0.000 A 
ATOM     16  C   UNL     1       7.172   5.242  13.623  0.00  0.00    +0.000 A 
ENDBRANCH  10  11
ENDBRANCH   6   9
ENDBRANCH   1   3
BRANCH   1  18
ATOM     17  C   UNL     1       1.781   7.256  20.901  0.00  0.00    +0.000 C 
ATOM     18  C   UNL     1       1.223   6.044  21.035  0.00  0.00    +0.000 C 
BRANCH  17  22
ATOM     19  C   UNL     1      -0.440  10.901  21.437  0.00  0.00    +0.000 A 
ATOM     20  C   UNL     1      -0.331   9.948  22.463  0.00  0.00    +0.000 A 
ATOM     21  C   UNL     1       0.402   8.771  22.284  0.00  0.00    +0.000 A 
ATOM     22  C   UNL     1       1.014   8.501  21.060  0.00  0.00    +0.000 A 
ATOM     23  C   UNL     1       0.876   9.439  20.030  0.00  0.00    +0.000 A 
ATOM     24  C   UNL     1       0.144  10.627  20.194  0.00  0.00    +0.000 A 
BRANCH  19  26
ATOM     25  C   UNL     1      -2.065  12.078  22.691  0.00  0.00    +0.000 C 
ATOM     26  O   UNL     1      -1.124  12.073  21.619  0.00  0.00    +0.000 OA
ENDBRANCH  19  26
BRANCH  24  27
ATOM     27  O   UNL     1       0.134  11.374  19.046  0.00  0.00    +0.000 OA
ATOM     28  C   UNL     1       1.226  12.234  18.767  0.00  0.00    +0.000 C 
ENDBRANCH  24  27
ENDBRANCH  17  22
ENDBRANCH   1  18
TORSDOF 7
ENDMDL
MODEL 4
REMARK VINA RESULT:      -7.3      3.290      5.832
REMARK  Name = 
REMARK  9 active torsions:
REMARK  status: ('A' for Active; 'I' for Inactive)
REMARK    1  A    between atoms: C_1  and  O_2
REMARK    2  A    between atoms: O_2  and  C_3
REMARK    3  A    between atoms: C_6  and  C_7
REMARK    4  A    between atoms: C_8  and  C_9
REMARK    5  A    between atoms: C_9  and  C_11
REMARK    6  A    between atoms: C_14  and  C_15
REMARK    7  A    between atoms: C_16  and  C_17
REMARK    8  A    between atoms: C_26  and  O_27
REMARK    9  A    between atoms: O_27  and  C_28
REMARK                            x       y       z     vdW  Elec       q    Type
REMARK                         _______ _______ _______ _____ _____    ______ ____
ROOT
ATOM      1  C   UNL     1      -0.181  10.191  22.553  0.00  0.00    +0.000 C 
ATOM      2  O   UNL     1       0.118   9.958  23.717  0.00  0.00    +0.000 OA
ENDROOT
BRANCH   1   3
ATOM      3  C   UNL     1       0.522   9.521  21.423  0.00  0.00    +0.000 A 
ATOM      4  C   UNL     1       1.151   8.294  21.646  0.00  0.00    +0.000 A 
ATOM      5  C   UNL     1       1.809   7.641  20.595  0.00  0.00    +0.000 A 
ATOM      6  C   UNL     1       1.831   8.194  19.306  0.00  0.00    +0.000 A 
ATOM      7  C   UNL     1       1.209   9.429  19.096  0.00  0.00    +0.000 A 
ATOM      8  C   UNL     1       0.546  10.080  20.139  0.00  0.00    +0.000 A 
BRANCH   6   9
ATOM      9  C   UNL     1       2.510   7.463  18.226  0.00  0.00    +0.000 C 
ATOM     10  C   UNL     1       3.410   6.489  18.433  0.00  0.00    +0.000 C 
BRANCH  10  11
ATOM     11  C   UNL     1       4.129   5.864  17.324  0.00  0.00    +0.000 A 
ATOM     12  C   UNL     1       4.120   4.471  17.201  0.00  0.00    +0.000 A 
ATOM     13  C   UNL     1       4.799   3.854  16.149  0.00  0.00    +0.000 A 
ATOM     14  C   UNL     1       5.487   4.628  15.216  0.00  0.00    +0.000 A 
ATOM     15  C   UNL     1       5.498   6.018  15.334  0.00  0.00    +0.000 A 
ATOM     16  C   UNL     1       4.822   6.637  16.388  0.00  0.00    +0.000 A 
ENDBRANCH  10  11
ENDBRANCH   6   9
ENDBRANCH   1   3
BRANCH   1  18
ATOM     17  C   UNL     1      -1.997  11.764  23.113  0.00  0.00    +0.000 C 
ATOM     18  C   UNL     1      -1.238  11.169  22.183  0.00  0.00    +0.000 C 
BRANCH  17  22
ATOM     19  C   UNL     1      -5.204  14.464  22.146  0.00  0.00    +0.000 A 
ATOM     20  C   UNL     1      -4.602  14.460  23.415  0.00  0.00    +0.000 A 
ATOM     21  C   UNL     1      -3.553  13.587  23.717  0.00  0.00    +0.000 A 
ATOM     22  C   UNL     1      -3.104  12.669  22.768  0.00  0.00    +0.000 A 
ATOM     23  C   UNL     1      -3.729  12.654  21.515  0.00  0.00    +0.000 A 
ATOM     24  C   UNL     1      -4.784  13.525  21.195  0.00  0.00    +0.000 A 
BRANCH  19  26
ATOM     25  C   UNL     1      -7.525  14.922  22.175  0.00  0.00    +0.000 C 
ATOM     26  O   UNL     1      -6.206  15.342  21.832  0.00  0.00    +0.000 OA
ENDBRANCH  19  26
BRANCH  24  27
ATOM     27  O   UNL     1      -5.244  13.312  19.923  0.00  0.00    +0.000 OA
ATOM     28  C   UNL     1      -6.220  12.309  19.696  0.00  0.00    +0.000 C 
ENDBRANCH  24  27
ENDBRANCH  17  22
ENDBRANCH   1  18
TORSDOF 7
ENDMDL
MODEL 5
REMARK VINA RESULT:      -7.3      3.789      5.648
REMARK  Name = 
REMARK  9 active torsions:
REMARK  status: ('A' for Active; 'I' for Inactive)
REMARK    1  A    between atoms: C_1  and  O_2
REMARK    2  A    between atoms: O_2  and  C_3
REMARK    3  A    between atoms: C_6  and  C_7
REMARK    4  A    between atoms: C_8  and  C_9
REMARK    5  A    between atoms: C_9  and  C_11
REMARK    6  A    between atoms: C_14  and  C_15
REMARK    7  A    between atoms: C_16  and  C_17
REMARK    8  A    between atoms: C_26  and  O_27
REMARK    9  A    between atoms: O_27  and  C_28
REMARK                            x       y       z     vdW  Elec       q    Type
REMARK                         _______ _______ _______ _____ _____    ______ ____
ROOT
ATOM      1  C   UNL     1       0.246  11.250  20.660  0.00  0.00    +0.000 C 
ATOM      2  O   UNL     1       0.685  11.780  21.672  0.00  0.00    +0.000 OA
ENDROOT
BRANCH   1   3
ATOM      3  C   UNL     1       0.937  10.090  20.031  0.00  0.00    +0.000 A 
ATOM      4  C   UNL     1       1.345  10.182  18.698  0.00  0.00    +0.000 A 
ATOM      5  C   UNL     1       2.006   9.106  18.090  0.00  0.00    +0.000 A 
ATOM      6  C   UNL     1       2.285   7.935  18.809  0.00  0.00    +0.000 A 
ATOM      7  C   UNL     1       1.861   7.847  20.139  0.00  0.00    +0.000 A 
ATOM      8  C   UNL     1       1.208   8.919  20.752  0.00  0.00    +0.000 A 
BRANCH   6   9
ATOM      9  C   UNL     1       3.004   6.840  18.140  0.00  0.00    +0.000 C 
ATOM     10  C   UNL     1       4.091   7.017  17.373  0.00  0.00    +0.000 C 
BRANCH  10  11
ATOM     11  C   UNL     1       4.708   5.905  16.652  0.00  0.00    +0.000 A 
ATOM     12  C   UNL     1       4.543   4.602  17.130  0.00  0.00    +0.000 A 
ATOM     13  C   UNL     1       5.122   3.527  16.455  0.00  0.00    +0.000 A 
ATOM     14  C   UNL     1       5.867   3.751  15.299  0.00  0.00    +0.000 A 
ATOM     15  C   UNL     1       6.035   5.050  14.817  0.00  0.00    +0.000 A 
ATOM     16  C   UNL     1       5.458   6.128  15.493  0.00  0.00    +0.000 A 
ENDBRANCH  10  11
ENDBRANCH   6   9
ENDBRANCH   1   3
BRANCH   1  18
ATOM     17  C   UNL     1      -1.915  10.887  19.526  0.00  0.00    +0.000 C 
ATOM     18  C   UNL     1      -0.980  11.736  19.975  0.00  0.00    +0.000 C 
BRANCH  17  22
ATOM     19  C   UNL     1      -5.369  12.260  17.362  0.00  0.00    +0.000 A 
ATOM     20  C   UNL     1      -5.269  12.405  18.755  0.00  0.00    +0.000 A 
ATOM     21  C   UNL     1      -4.137  11.966  19.449  0.00  0.00    +0.000 A 
ATOM     22  C   UNL     1      -3.094  11.337  18.771  0.00  0.00    +0.000 A 
ATOM     23  C   UNL     1      -3.213  11.166  17.386  0.00  0.00    +0.000 A 
ATOM     24  C   UNL     1      -4.342  11.602  16.673  0.00  0.00    +0.000 A 
BRANCH  19  26
ATOM     25  C   UNL     1      -6.858  14.058  16.974  0.00  0.00    +0.000 C 
ATOM     26  O   UNL     1      -6.458  12.723  16.671  0.00  0.00    +0.000 OA
ENDBRANCH  19  26
BRANCH  24  27
ATOM     27  O   UNL     1      -4.240  11.309  15.339  0.00  0.00    +0.000 OA
ATOM     28  C   UNL     1      -3.423  10.226  14.927  0.00  0.00    +0.000 C 
ENDBRANCH  24  27
ENDBRANCH  17  22
ENDBRANCH   1  18
TORSDOF 7
ENDMDL
MODEL 6
REMARK VINA RESULT:      -7.2      3.853      5.669
REMARK  Name = 
REMARK  9 active torsions:
REMARK  status: ('A' for Active; 'I' for Inactive)
REMARK    1  A    between atoms: C_1  and  O_2
REMARK    2  A    between atoms: O_2  and  C_3
REMARK    3  A    between atoms: C_6  and  C_7
REMARK    4  A    between atoms: C_8  and  C_9
REMARK    5  A    between atoms: C_9  and  C_11
REMARK    6  A    between atoms: C_14  and  C_15
REMARK    7  A    between atoms: C_16  and  C_17
REMARK    8  A    between atoms: C_26  and  O_27
REMARK    9  A    between atoms: O_27  and  C_28
REMARK                            x       y       z     vdW  Elec       q    Type
REMARK                         _______ _______ _______ _____ _____    ______ ____
ROOT
ATOM      1  C   UNL     1       0.077  10.493  20.561  0.00  0.00    +0.000 C 
ATOM      2  O   UNL     1       0.487  11.204  21.468  0.00  0.00    +0.000 OA
ENDROOT
BRANCH   1   3
ATOM      3  C   UNL     1       0.948   9.462  19.929  0.00  0.00    +0.000 A 
ATOM      4  C   UNL     1       1.388   9.656  18.617  0.00  0.00    +0.000 A 
ATOM      5  C   UNL     1       2.216   8.705  18.007  0.00  0.00    +0.000 A 
ATOM      6  C   UNL     1       2.633   7.561  18.705  0.00  0.00    +0.000 A 
ATOM      7  C   UNL     1       2.177   7.370  20.013  0.00  0.00    +0.000 A 
ATOM      8  C   UNL     1       1.356   8.319  20.628  0.00  0.00    +0.000 A 
BRANCH   6   9
ATOM      9  C   UNL     1       3.524   6.601  18.036  0.00  0.00    +0.000 C 
ATOM     10  C   UNL     1       4.603   6.955  17.320  0.00  0.00    +0.000 C 
BRANCH  10  11
ATOM     11  C   UNL     1       5.398   5.966  16.595  0.00  0.00    +0.000 A 
ATOM     12  C   UNL     1       5.221   5.823  15.215  0.00  0.00    +0.000 A 
ATOM     13  C   UNL     1       5.971   4.885  14.503  0.00  0.00    +0.000 A 
ATOM     14  C   UNL     1       6.902   4.090  15.169  0.00  0.00    +0.000 A 
ATOM     15  C   UNL     1       7.083   4.229  16.545  0.00  0.00    +0.000 A 
ATOM     16  C   UNL     1       6.331   5.164  17.260  0.00  0.00    +0.000 A 
ENDBRANCH  10  11
ENDBRANCH   6   9
ENDBRANCH   1   3
BRANCH   1  18
ATOM     17  C   UNL     1      -1.702  11.735  19.385  0.00  0.00    +0.000 C 
ATOM     18  C   UNL     1      -1.298  10.620  20.009  0.00  0.00    +0.000 C 
BRANCH  17  22
ATOM     19  C   UNL     1      -5.729  12.207  17.948  0.00  0.00    +0.000 A 
ATOM     20  C   UNL     1      -4.717  11.665  17.138  0.00  0.00    +0.000 A 
ATOM     21  C   UNL     1      -3.413  11.505  17.618  0.00  0.00    +0.000 A 
ATOM     22  C   UNL     1      -3.080  11.918  18.907  0.00  0.00    +0.000 A 
ATOM     23  C   UNL     1      -4.085  12.486  19.700  0.00  0.00    +0.000 A 
ATOM     24  C   UNL     1      -5.400  12.653  19.234  0.00  0.00    +0.000 A 
BRANCH  19  26
ATOM     25  C   UNL     1      -7.339  13.580  16.892  0.00  0.00    +0.000 C 
ATOM     26  O   UNL     1      -7.016  12.331  17.498  0.00  0.00    +0.000 OA
ENDBRANCH  19  26
BRANCH  24  27
ATOM     27  O   UNL     1      -6.196  13.247  20.178  0.00  0.00    +0.000 OA
ATOM     28  C   UNL     1      -6.925  12.434  21.082  0.00  0.00    +0.000 C 
ENDBRANCH  24  27
ENDBRANCH  17  22
ENDBRANCH   1  18
TORSDOF 7
ENDMDL
MODEL 7
REMARK VINA RESULT:      -7.2      3.966      6.587
REMARK  Name = 
REMARK  9 active torsions:
REMARK  status: ('A' for Active; 'I' for Inactive)
REMARK    1  A    between atoms: C_1  and  O_2
REMARK    2  A    between atoms: O_2  and  C_3
REMARK    3  A    between atoms: C_6  and  C_7
REMARK    4  A    between atoms: C_8  and  C_9
REMARK    5  A    between atoms: C_9  and  C_11
REMARK    6  A    between atoms: C_14  and  C_15
REMARK    7  A    between atoms: C_16  and  C_17
REMARK    8  A    between atoms: C_26  and  O_27
REMARK    9  A    between atoms: O_27  and  C_28
REMARK                            x       y       z     vdW  Elec       q    Type
REMARK                         _______ _______ _______ _____ _____    ______ ____
ROOT
ATOM      1  C   UNL     1       0.631  12.034  19.212  0.00  0.00    +0.000 C 
ATOM      2  O   UNL     1       1.413  12.960  19.036  0.00  0.00    +0.000 OA
ENDROOT
BRANCH   1   3
ATOM      3  C   UNL     1       1.097  10.619  19.224  0.00  0.00    +0.000 A 
ATOM      4  C   UNL     1       0.963   9.869  20.394  0.00  0.00    +0.000 A 
ATOM      5  C   UNL     1       1.385   8.533  20.424  0.00  0.00    +0.000 A 
ATOM      6  C   UNL     1       1.926   7.924  19.283  0.00  0.00    +0.000 A 
ATOM      7  C   UNL     1       2.068   8.687  18.119  0.00  0.00    +0.000 A 
ATOM      8  C   UNL     1       1.642  10.017  18.082  0.00  0.00    +0.000 A 
BRANCH   6   9
ATOM      9  C   UNL     1       2.332   6.512  19.350  0.00  0.00    +0.000 C 
ATOM     10  C   UNL     1       2.720   5.794  18.284  0.00  0.00    +0.000 C 
BRANCH  10  11
ATOM     11  C   UNL     1       3.018   4.367  18.391  0.00  0.00    +0.000 A 
ATOM     12  C   UNL     1       2.317   3.458  17.592  0.00  0.00    +0.000 A 
ATOM     13  C   UNL     1       2.588   2.092  17.678  0.00  0.00    +0.000 A 
ATOM     14  C   UNL     1       3.563   1.630  18.561  0.00  0.00    +0.000 A 
ATOM     15  C   UNL     1       4.266   2.533  19.359  0.00  0.00    +0.000 A 
ATOM     16  C   UNL     1       3.994   3.900  19.278  0.00  0.00    +0.000 A 
ENDBRANCH  10  11
ENDBRANCH   6   9
ENDBRANCH   1   3
BRANCH   1  18
ATOM     17  C   UNL     1      -1.351  12.488  20.608  0.00  0.00    +0.000 C 
ATOM     18  C   UNL     1      -0.828  12.248  19.398  0.00  0.00    +0.000 C 
BRANCH  17  22
ATOM     19  C   UNL     1      -5.598  12.835  21.197  0.00  0.00    +0.000 A 
ATOM     20  C   UNL     1      -5.021  12.946  19.921  0.00  0.00    +0.000 A 
ATOM     21  C   UNL     1      -3.640  12.820  19.738  0.00  0.00    +0.000 A 
ATOM     22  C   UNL     1      -2.799  12.618  20.832  0.00  0.00    +0.000 A 
ATOM     23  C   UNL     1      -3.376  12.540  22.105  0.00  0.00    +0.000 A 
ATOM     24  C   UNL     1      -4.761  12.663  22.307  0.00  0.00    +0.000 A 
BRANCH  19  26
ATOM     25  C   UNL     1      -7.669  11.691  21.252  0.00  0.00    +0.000 C 
ATOM     26  O   UNL     1      -6.953  12.918  21.379  0.00  0.00    +0.000 OA
ENDBRANCH  19  26
BRANCH  24  27
ATOM     27  O   UNL     1      -5.086  12.573  23.635  0.00  0.00    +0.000 OA
ATOM     28  C   UNL     1      -4.063  12.680  24.609  0.00  0.00    +0.000 C 
ENDBRANCH  24  27
ENDBRANCH  17  22
ENDBRANCH   1  18
TORSDOF 7
ENDMDL
MODEL 8
REMARK VINA RESULT:      -7.2      3.543      5.331
REMARK  Name = 
REMARK  9 active torsions:
REMARK  status: ('A' for Active; 'I' for Inactive)
REMARK    1  A    between atoms: C_1  and  O_2
REMARK    2  A    between atoms: O_2  and  C_3
REMARK    3  A    between atoms: C_6  and  C_7
REMARK    4  A    between atoms: C_8  and  C_9
REMARK    5  A    between atoms: C_9  and  C_11
REMARK    6  A    between atoms: C_14  and  C_15
REMARK    7  A    between atoms: C_16  and  C_17
REMARK    8  A    between atoms: C_26  and  O_27
REMARK    9  A    between atoms: O_27  and  C_28
REMARK                            x       y       z     vdW  Elec       q    Type
REMARK                         _______ _______ _______ _____ _____    ______ ____
ROOT
ATOM      1  C   UNL     1       0.210  10.586  20.852  0.00  0.00    +0.000 C 
ATOM      2  O   UNL     1       0.737  11.227  21.752  0.00  0.00    +0.000 OA
ENDROOT
BRANCH   1   3
ATOM      3  C   UNL     1       0.944   9.502  20.141  0.00  0.00    +0.000 A 
ATOM      4  C   UNL     1       1.224   9.650  18.780  0.00  0.00    +0.000 A 
ATOM      5  C   UNL     1       1.922   8.647  18.094  0.00  0.00    +0.000 A 
ATOM      6  C   UNL     1       2.367   7.496  18.760  0.00  0.00    +0.000 A 
ATOM      7  C   UNL     1       2.071   7.352  20.119  0.00  0.00    +0.000 A 
ATOM      8  C   UNL     1       1.382   8.351  20.810  0.00  0.00    +0.000 A 
BRANCH   6   9
ATOM      9  C   UNL     1       3.119   6.481  18.008  0.00  0.00    +0.000 C 
ATOM     10  C   UNL     1       4.249   6.736  17.330  0.00  0.00    +0.000 C 
BRANCH  10  11
ATOM     11  C   UNL     1       4.903   5.711  16.518  0.00  0.00    +0.000 A 
ATOM     12  C   UNL     1       5.479   6.070  15.295  0.00  0.00    +0.000 A 
ATOM     13  C   UNL     1       6.109   5.107  14.506  0.00  0.00    +0.000 A 
ATOM     14  C   UNL     1       6.167   3.783  14.938  0.00  0.00    +0.000 A 
ATOM     15  C   UNL     1       5.595   3.421  16.157  0.00  0.00    +0.000 A 
ATOM     16  C   UNL     1       4.961   4.382  16.947  0.00  0.00    +0.000 A 
ENDBRANCH  10  11
ENDBRANCH   6   9
ENDBRANCH   1   3
BRANCH   1  18
ATOM     17  C   UNL     1      -1.653  12.104  20.295  0.00  0.00    +0.000 C 
ATOM     18  C   UNL     1      -1.176  10.855  20.390  0.00  0.00    +0.000 C 
BRANCH  17  22
ATOM     19  C   UNL     1      -5.723  13.012  19.238  0.00  0.00    +0.000 A 
ATOM     20  C   UNL     1      -5.175  13.413  20.468  0.00  0.00    +0.000 A 
ATOM     21  C   UNL     1      -3.847  13.123  20.798  0.00  0.00    +0.000 A 
ATOM     22  C   UNL     1      -3.046  12.392  19.922  0.00  0.00    +0.000 A 
ATOM     23  C   UNL     1      -3.606  11.968  18.711  0.00  0.00    +0.000 A 
ATOM     24  C   UNL     1      -4.938  12.251  18.363  0.00  0.00    +0.000 A 
BRANCH  19  26
ATOM     25  C   UNL     1      -7.896  13.579  19.981  0.00  0.00    +0.000 C 
ATOM     26  O   UNL     1      -7.010  13.326  18.893  0.00  0.00    +0.000 OA
ENDBRANCH  19  26
BRANCH  24  27
ATOM     27  O   UNL     1      -5.264  11.718  17.144  0.00  0.00    +0.000 OA
ATOM     28  C   UNL     1      -4.270  11.042  16.393  0.00  0.00    +0.000 C 
ENDBRANCH  24  27
ENDBRANCH  17  22
ENDBRANCH   1  18
TORSDOF 7
ENDMDL
MODEL 9
REMARK VINA RESULT:      -7.2      2.999     10.619
REMARK  Name = 
REMARK  9 active torsions:
REMARK  status: ('A' for Active; 'I' for Inactive)
REMARK    1  A    between atoms: C_1  and  O_2
REMARK    2  A    between atoms: O_2  and  C_3
REMARK    3  A    between atoms: C_6  and  C_7
REMARK    4  A    between atoms: C_8  and  C_9
REMARK    5  A    between atoms: C_9  and  C_11
REMARK    6  A    between atoms: C_14  and  C_15
REMARK    7  A    between atoms: C_16  and  C_17
REMARK    8  A    between atoms: C_26  and  O_27
REMARK    9  A    between atoms: O_27  and  C_28
REMARK                            x       y       z     vdW  Elec       q    Type
REMARK                         _______ _______ _______ _____ _____    ______ ____
ROOT
ATOM      1  C   UNL     1       2.085   6.272  20.162  0.00  0.00    +0.000 C 
ATOM      2  O   UNL     1       1.798   5.247  20.767  0.00  0.00    +0.000 OA
ENDROOT
BRANCH   1   3
ATOM      3  C   UNL     1       1.452   7.576  20.504  0.00  0.00    +0.000 A 
ATOM      4  C   UNL     1       1.524   8.627  19.586  0.00  0.00    +0.000 A 
ATOM      5  C   UNL     1       0.927   9.860  19.883  0.00  0.00    +0.000 A 
ATOM      6  C   UNL     1       0.234  10.052  21.087  0.00  0.00    +0.000 A 
ATOM      7  C   UNL     1       0.179   8.998  22.004  0.00  0.00    +0.000 A 
ATOM      8  C   UNL     1       0.766   7.765  21.711  0.00  0.00    +0.000 A 
BRANCH   6   9
ATOM      9  C   UNL     1      -0.401  11.353  21.347  0.00  0.00    +0.000 C 
ATOM     10  C   UNL     1      -0.766  11.776  22.567  0.00  0.00    +0.000 C 
BRANCH  10  11
ATOM     11  C   UNL     1      -1.483  13.036  22.757  0.00  0.00    +0.000 A 
ATOM     12  C   UNL     1      -0.762  14.233  22.817  0.00  0.00    +0.000 A 
ATOM     13  C   UNL     1      -1.427  15.446  22.997  0.00  0.00    +0.000 A 
ATOM     14  C   UNL     1      -2.816  15.467  23.114  0.00  0.00    +0.000 A 
ATOM     15  C   UNL     1      -3.540  14.276  23.053  0.00  0.00    +0.000 A 
ATOM     16  C   UNL     1      -2.876  13.061  22.878  0.00  0.00    +0.000 A 
ENDBRANCH  10  11
ENDBRANCH   6   9
ENDBRANCH   1   3
BRANCH   1  18
ATOM     17  C   UNL     1       3.711   5.178  18.663  0.00  0.00    +0.000 C 
ATOM     18  C   UNL     1       3.057   6.286  19.038  0.00  0.00    +0.000 C 
BRANCH  17  22
ATOM     19  C   UNL     1       6.664   5.181  15.535  0.00  0.00    +0.000 A 
ATOM     20  C   UNL     1       5.577   4.292  15.520  0.00  0.00    +0.000 A 
ATOM     21  C   UNL     1       4.616   4.306  16.535  0.00  0.00    +0.000 A 
ATOM     22  C   UNL     1       4.738   5.184  17.611  0.00  0.00    +0.000 A 
ATOM     23  C   UNL     1       5.840   6.047  17.638  0.00  0.00    +0.000 A 
ATOM     24  C   UNL     1       6.815   6.047  16.626  0.00  0.00    +0.000 A 
BRANCH  19  26
ATOM     25  C   UNL     1       7.128   4.729  13.260  0.00  0.00    +0.000 C 
ATOM     26  O   UNL     1       7.588   5.200  14.525  0.00  0.00    +0.000 OA
ENDBRANCH  19  26
BRANCH  24  27
ATOM     27  O   UNL     1       7.804   6.961  16.879  0.00  0.00    +0.000 OA
ATOM     28  C   UNL     1       7.495   8.132  17.616  0.00  0.00    +0.000 C 
ENDBRANCH  24  27
ENDBRANCH  17  22
ENDBRANCH   1  18
TORSDOF 7
ENDMDL
