MODEL 1
REMARK VINA RESULT:      -7.3      0.000      0.000
REMARK  Name = 
REMARK  5 active torsions:
REMARK  status: ('A' for Active; 'I' for Inactive)
REMARK    1  A    between atoms: C_1  and  C_2
REMARK    2  A    between atoms: C_3  and  C_4
REMARK    3  A    between atoms: C_4  and  N_5
REMARK    4  A    between atoms: C_11  and  O_12
REMARK    5  A    between atoms: C_16  and  C_17
REMARK                            x       y       z     vdW  Elec       q    Type
REMARK                         _______ _______ _______ _____ _____    ______ ____
ROOT
ATOM      1  C   UNL     1       4.727   6.758  16.263  0.00  0.00    +0.000 C 
ATOM      2  C   UNL     1       5.293   5.835  17.322  0.00  0.00    +0.000 A 
ATOM      3  C   UNL     1       4.579   4.591  17.723  0.00  0.00    +0.000 A 
ATOM      4  C   UNL     1       5.178   3.794  18.634  0.00  0.00    +0.000 A 
ATOM      5  N   UNL     1       6.370   4.116  19.194  0.00  0.00    +0.000 N 
ATOM      6  C   UNL     1       7.083   5.246  18.918  0.00  0.00    +0.000 A 
ATOM      7  O   UNL     1       8.149   5.490  19.477  0.00  0.00    +0.000 OA
ATOM      8  C   UNL     1       6.485   6.152  17.897  0.00  0.00    +0.000 A 
ATOM      9  H   UNL     1       6.757   3.480  19.880  0.00  0.00    +0.000 HD
ENDROOT
BRANCH   4  10
ATOM     10  O   UNL     1       4.676   2.605  19.088  0.00  0.00    +0.000 OA
ATOM     11  H   UNL     1       3.791   2.799  19.472  0.00  0.00    +0.000 HD
ENDBRANCH   4  10
BRANCH   8  12
ATOM     12  C   UNL     1       7.220   7.326  17.562  0.00  0.00    +0.000 C 
ATOM     13  N   UNL     1       7.829   8.257  17.215  0.00  0.00    +0.000 NA
ENDBRANCH   8  12
BRANCH   3  14
ATOM     14  C   UNL     1       3.241   4.213  17.092  0.00  0.00    +0.000 C 
BRANCH  14  15
ATOM     15  N   UNL     1       2.033   4.278  17.985  0.00  0.00    +0.000 NA
ATOM     16  C   UNL     1       1.612   2.899  18.336  0.00  0.00    +0.000 C 
ATOM     17  C   UNL     1       0.649   2.786  19.519  0.00  0.00    +0.000 C 
ATOM     18  C   UNL     1       1.168   3.526  20.738  0.00  0.00    +0.000 C 
ATOM     19  C   UNL     1       1.439   4.974  20.372  0.00  0.00    +0.000 C 
ATOM     20  C   UNL     1       2.382   5.091  19.173  0.00  0.00    +0.000 C 
ENDBRANCH  14  15
ENDBRANCH   3  14
TORSDOF 4
ENDMDL
MODEL 2
REMARK VINA RESULT:      -7.2      1.308      1.359
REMARK  Name = 
REMARK  5 active torsions:
REMARK  status: ('A' for Active; 'I' for Inactive)
REMARK    1  A    between atoms: C_1  and  C_2
REMARK    2  A    between atoms: C_3  and  C_4
REMARK    3  A    between atoms: C_4  and  N_5
REMARK    4  A    between atoms: C_11  and  O_12
REMARK    5  A    between atoms: C_16  and  C_17
REMARK                            x       y       z     vdW  Elec       q    Type
REMARK                         _______ _______ _______ _____ _____    ______ ____
ROOT
ATOM      1  C   UNL     1       3.836   7.393  17.519  0.00  0.00    +0.000 C 
ATOM      2  C   UNL     1       4.548   6.056  17.497  0.00  0.00    +0.000 A 
ATOM      3  C   UNL     1       3.790   4.777  17.569  0.00  0.00    +0.000 A 
ATOM      4  C   UNL     1       4.494   3.628  17.489  0.00  0.00    +0.000 A 
ATOM      5  N   UNL     1       5.846   3.623  17.379  0.00  0.00    +0.000 N 
ATOM      6  C   UNL     1       6.631   4.739  17.340  0.00  0.00    +0.000 A 
ATOM      7  O   UNL     1       7.854   4.666  17.261  0.00  0.00    +0.000 OA
ATOM      8  C   UNL     1       5.905   6.040  17.396  0.00  0.00    +0.000 A 
ATOM      9  H   UNL     1       6.313   2.726  17.336  0.00  0.00    +0.000 HD
ENDROOT
BRANCH   4  10
ATOM     10  O   UNL     1       3.953   2.372  17.507  0.00  0.00    +0.000 OA
ATOM     11  H   UNL     1       4.687   1.744  17.316  0.00  0.00    +0.000 HD
ENDBRANCH   4  10
BRANCH   8  12
ATOM     12  C   UNL     1       6.693   7.225  17.325  0.00  0.00    +0.000 C 
ATOM     13  N   UNL     1       7.402   8.148  17.276  0.00  0.00    +0.000 NA
ENDBRANCH   8  12
BRANCH   3  14
ATOM     14  C   UNL     1       2.267   4.770  17.683  0.00  0.00    +0.000 C 
BRANCH  14  15
ATOM     15  N   UNL     1       1.695   4.565  19.058  0.00  0.00    +0.000 NA
ATOM     16  C   UNL     1       1.176   3.180  19.169  0.00  0.00    +0.000 C 
ATOM     17  C   UNL     1       0.907   2.690  20.593  0.00  0.00    +0.000 C 
ATOM     18  C   UNL     1       2.111   2.896  21.495  0.00  0.00    +0.000 C 
ATOM     19  C   UNL     1       2.514   4.360  21.472  0.00  0.00    +0.000 C 
ATOM     20  C   UNL     1       2.758   4.860  20.046  0.00  0.00    +0.000 C 
ENDBRANCH  14  15
ENDBRANCH   3  14
TORSDOF 4
ENDMDL
MODEL 3
REMARK VINA RESULT:      -6.8      2.286      2.577
REMARK  Name = 
REMARK  5 active torsions:
REMARK  status: ('A' for Active; 'I' for Inactive)
REMARK    1  A    between atoms: C_1  and  C_2
REMARK    2  A    between atoms: C_3  and  C_4
REMARK    3  A    between atoms: C_4  and  N_5
REMARK    4  A    between atoms: C_11  and  O_12
REMARK    5  A    between atoms: C_16  and  C_17
REMARK                            x       y       z     vdW  Elec       q    Type
REMARK                         _______ _______ _______ _____ _____    ______ ____
ROOT
ATOM      1  C   UNL     1       5.345   3.314  15.413  0.00  0.00    +0.000 C 
ATOM      2  C   UNL     1       5.749   4.404  16.383  0.00  0.00    +0.000 A 
ATOM      3  C   UNL     1       5.191   4.455  17.763  0.00  0.00    +0.000 A 
ATOM      4  C   UNL     1       5.643   5.426  18.584  0.00  0.00    +0.000 A 
ATOM      5  N   UNL     1       6.550   6.347  18.174  0.00  0.00    +0.000 N 
ATOM      6  C   UNL     1       7.093   6.405  16.923  0.00  0.00    +0.000 A 
ATOM      7  O   UNL     1       7.894   7.280  16.607  0.00  0.00    +0.000 OA
ATOM      8  C   UNL     1       6.652   5.339  15.979  0.00  0.00    +0.000 A 
ATOM      9  H   UNL     1       6.837   7.056  18.837  0.00  0.00    +0.000 HD
ENDROOT
BRANCH   4  10
ATOM     10  O   UNL     1       5.260   5.594  19.887  0.00  0.00    +0.000 OA
ATOM     11  H   UNL     1       5.699   6.415  20.207  0.00  0.00    +0.000 HD
ENDBRANCH   4  10
BRANCH   8  12
ATOM     12  C   UNL     1       7.224   5.352  14.674  0.00  0.00    +0.000 C 
ATOM     13  N   UNL     1       7.763   5.372  13.642  0.00  0.00    +0.000 NA
ENDBRANCH   8  12
BRANCH   3  14
ATOM     14  C   UNL     1       4.177   3.417  18.240  0.00  0.00    +0.000 C 
BRANCH  14  15
ATOM     15  N   UNL     1       3.403   3.752  19.484  0.00  0.00    +0.000 NA
ATOM     16  C   UNL     1       1.993   4.035  19.120  0.00  0.00    +0.000 C 
ATOM     17  C   UNL     1       0.998   4.024  20.281  0.00  0.00    +0.000 C 
ATOM     18  C   UNL     1       1.106   2.750  21.101  0.00  0.00    +0.000 C 
ATOM     19  C   UNL     1       2.535   2.581  21.584  0.00  0.00    +0.000 C 
ATOM     20  C   UNL     1       3.535   2.618  20.427  0.00  0.00    +0.000 C 
ENDBRANCH  14  15
ENDBRANCH   3  14
TORSDOF 4
ENDMDL
MODEL 4
REMARK VINA RESULT:      -6.7      1.820      1.969
REMARK  Name = 
REMARK  5 active torsions:
REMARK  status: ('A' for Active; 'I' for Inactive)
REMARK    1  A    between atoms: C_1  and  C_2
REMARK    2  A    between atoms: C_3  and  C_4
REMARK    3  A    between atoms: C_4  and  N_5
REMARK    4  A    between atoms: C_11  and  O_12
REMARK    5  A    between atoms: C_16  and  C_17
REMARK                            x       y       z     vdW  Elec       q    Type
REMARK                         _______ _______ _______ _____ _____    ______ ____
ROOT
ATOM      1  C   UNL     1       4.759   6.662  15.443  0.00  0.00    +0.000 C 
ATOM      2  C   UNL     1       5.434   5.916  16.575  0.00  0.00    +0.000 A 
ATOM      3  C   UNL     1       4.803   5.819  17.920  0.00  0.00    +0.000 A 
ATOM      4  C   UNL     1       5.442   5.091  18.859  0.00  0.00    +0.000 A 
ATOM      5  N   UNL     1       6.632   4.489  18.611  0.00  0.00    +0.000 N 
ATOM      6  C   UNL     1       7.305   4.547  17.425  0.00  0.00    +0.000 A 
ATOM      7  O   UNL     1       8.392   3.997  17.272  0.00  0.00    +0.000 OA
ATOM      8  C   UNL     1       6.633   5.316  16.340  0.00  0.00    +0.000 A 
ATOM      9  H   UNL     1       7.064   3.968  19.364  0.00  0.00    +0.000 HD
ENDROOT
BRANCH   4  10
ATOM     10  O   UNL     1       4.987   4.874  20.130  0.00  0.00    +0.000 OA
ATOM     11  H   UNL     1       4.018   4.711  20.061  0.00  0.00    +0.000 HD
ENDBRANCH   4  10
BRANCH   8  12
ATOM     12  C   UNL     1       7.295   5.370  15.079  0.00  0.00    +0.000 C 
ATOM     13  N   UNL     1       7.795   5.480  14.033  0.00  0.00    +0.000 NA
ENDBRANCH   8  12
BRANCH   3  14
ATOM     14  C   UNL     1       3.458   6.484  18.207  0.00  0.00    +0.000 C 
BRANCH  14  15
ATOM     15  N   UNL     1       2.279   5.570  18.390  0.00  0.00    +0.000 NA
ATOM     16  C   UNL     1       2.572   4.263  17.753  0.00  0.00    +0.000 C 
ATOM     17  C   UNL     1       1.653   3.110  18.162  0.00  0.00    +0.000 C 
ATOM     18  C   UNL     1       1.562   2.973  19.671  0.00  0.00    +0.000 C 
ATOM     19  C   UNL     1       1.109   4.292  20.271  0.00  0.00    +0.000 C 
ATOM     20  C   UNL     1       2.011   5.452  19.842  0.00  0.00    +0.000 C 
ENDBRANCH  14  15
ENDBRANCH   3  14
TORSDOF 4
ENDMDL
MODEL 5
REMARK VINA RESULT:      -6.7      1.921      2.728
REMARK  Name = 
REMARK  5 active torsions:
REMARK  status: ('A' for Active; 'I' for Inactive)
REMARK    1  A    between atoms: C_1  and  C_2
REMARK    2  A    between atoms: C_3  and  C_4
REMARK    3  A    between atoms: C_4  and  N_5
REMARK    4  A    between atoms: C_11  and  O_12
REMARK    5  A    between atoms: C_16  and  C_17
REMARK                            x       y       z     vdW  Elec       q    Type
REMARK                         _______ _______ _______ _____ _____    ______ ____
ROOT
ATOM      1  C   UNL     1       6.913   5.473  19.563  0.00  0.00    +0.000 C 
ATOM      2  C   UNL     1       6.035   5.317  18.339  0.00  0.00    +0.000 A 
ATOM      3  C   UNL     1       5.013   4.237  18.254  0.00  0.00    +0.000 A 
ATOM      4  C   UNL     1       4.234   4.199  17.152  0.00  0.00    +0.000 A 
ATOM      5  N   UNL     1       4.386   5.086  16.137  0.00  0.00    +0.000 N 
ATOM      6  C   UNL     1       5.314   6.086  16.106  0.00  0.00    +0.000 A 
ATOM      7  O   UNL     1       5.414   6.843  15.144  0.00  0.00    +0.000 OA
ATOM      8  C   UNL     1       6.185   6.195  17.310  0.00  0.00    +0.000 A 
ATOM      9  H   UNL     1       3.777   4.993  15.334  0.00  0.00    +0.000 HD
ENDROOT
BRANCH   4  10
ATOM     10  O   UNL     1       3.231   3.297  16.931  0.00  0.00    +0.000 OA
ATOM     11  H   UNL     1       2.912   3.447  16.011  0.00  0.00    +0.000 HD
ENDBRANCH   4  10
BRANCH   8  12
ATOM     12  C   UNL     1       7.143   7.250  17.322  0.00  0.00    +0.000 C 
ATOM     13  N   UNL     1       7.891   8.141  17.268  0.00  0.00    +0.000 NA
ENDBRANCH   8  12
BRANCH   3  14
ATOM     14  C   UNL     1       4.826   3.240  19.395  0.00  0.00    +0.000 C 
BRANCH  14  15
ATOM     15  N   UNL     1       3.682   3.498  20.336  0.00  0.00    +0.000 NA
ATOM     16  C   UNL     1       3.158   4.865  20.102  0.00  0.00    +0.000 C 
ATOM     17  C   UNL     1       1.778   5.152  20.698  0.00  0.00    +0.000 C 
ATOM     18  C   UNL     1       0.761   4.101  20.290  0.00  0.00    +0.000 C 
ATOM     19  C   UNL     1       1.270   2.726  20.687  0.00  0.00    +0.000 C 
ATOM     20  C   UNL     1       2.661   2.447  20.116  0.00  0.00    +0.000 C 
ENDBRANCH  14  15
ENDBRANCH   3  14
TORSDOF 4
ENDMDL
MODEL 6
REMARK VINA RESULT:      -6.6      3.466      6.202
REMARK  Name = 
REMARK  5 active torsions:
REMARK  status: ('A' for Active; 'I' for Inactive)
REMARK    1  A    between atoms: C_1  and  C_2
REMARK    2  A    between atoms: C_3  and  C_4
REMARK    3  A    between atoms: C_4  and  N_5
REMARK    4  A    between atoms: C_11  and  O_12
REMARK    5  A    between atoms: C_16  and  C_17
REMARK                            x       y       z     vdW  Elec       q    Type
REMARK                         _______ _______ _______ _____ _____    ______ ____
ROOT
ATOM      1  C   UNL     1       3.541   2.740  17.517  0.00  0.00    +0.000 C 
ATOM      2  C   UNL     1       3.708   4.244  17.576  0.00  0.00    +0.000 A 
ATOM      3  C   UNL     1       4.761   4.936  16.784  0.00  0.00    +0.000 A 
ATOM      4  C   UNL     1       4.809   6.283  16.850  0.00  0.00    +0.000 A 
ATOM      5  N   UNL     1       3.955   6.993  17.628  0.00  0.00    +0.000 N 
ATOM      6  C   UNL     1       2.981   6.450  18.415  0.00  0.00    +0.000 A 
ATOM      7  O   UNL     1       2.253   7.149  19.115  0.00  0.00    +0.000 OA
ATOM      8  C   UNL     1       2.862   4.966  18.362  0.00  0.00    +0.000 A 
ATOM      9  H   UNL     1       4.054   8.000  17.641  0.00  0.00    +0.000 HD
ENDROOT
BRANCH   4  10
ATOM     10  O   UNL     1       5.690   7.073  16.163  0.00  0.00    +0.000 OA
ATOM     11  H   UNL     1       5.639   7.970  16.564  0.00  0.00    +0.000 HD
ENDBRANCH   4  10
BRANCH   8  12
ATOM     12  C   UNL     1       1.833   4.370  19.147  0.00  0.00    +0.000 C 
ATOM     13  N   UNL     1       1.008   3.937  19.845  0.00  0.00    +0.000 NA
ENDBRANCH   8  12
BRANCH   3  14
ATOM     14  C   UNL     1       5.722   4.148  15.896  0.00  0.00    +0.000 C 
BRANCH  14  15
ATOM     15  N   UNL     1       5.799   4.562  14.452  0.00  0.00    +0.000 NA
ATOM     16  C   UNL     1       7.210   4.861  14.106  0.00  0.00    +0.000 C 
ATOM     17  C   UNL     1       7.520   4.930  12.609  0.00  0.00    +0.000 C 
ATOM     18  C   UNL     1       7.027   3.695  11.876  0.00  0.00    +0.000 C 
ATOM     19  C   UNL     1       5.542   3.514  12.134  0.00  0.00    +0.000 C 
ATOM     20  C   UNL     1       5.226   3.471  13.631  0.00  0.00    +0.000 C 
ENDBRANCH  14  15
ENDBRANCH   3  14
TORSDOF 4
ENDMDL
MODEL 7
REMARK VINA RESULT:      -6.5      2.382      3.097
REMARK  Name = 
REMARK  5 active torsions:
REMARK  status: ('A' for Active; 'I' for Inactive)
REMARK    1  A    between atoms: C_1  and  C_2
REMARK    2  A    between atoms: C_3  and  C_4
REMARK    3  A    between atoms: C_4  and  N_5
REMARK    4  A    between atoms: C_11  and  O_12
REMARK    5  A    between atoms: C_16  and  C_17
REMARK                            x       y       z     vdW  Elec       q    Type
REMARK                         _______ _______ _______ _____ _____    ______ ____
ROOT
ATOM      1  C   UNL     1       3.959   3.241  16.531  0.00  0.00    +0.000 C 
ATOM      2  C   UNL     1       5.238   4.031  16.709  0.00  0.00    +0.000 A 
ATOM      3  C   UNL     1       5.765   4.354  18.065  0.00  0.00    +0.000 A 
ATOM      4  C   UNL     1       6.939   5.015  18.137  0.00  0.00    +0.000 A 
ATOM      5  N   UNL     1       7.612   5.405  17.026  0.00  0.00    +0.000 N 
ATOM      6  C   UNL     1       7.196   5.187  15.745  0.00  0.00    +0.000 A 
ATOM      7  O   UNL     1       7.842   5.587  14.780  0.00  0.00    +0.000 OA
ATOM      8  C   UNL     1       5.917   4.436  15.601  0.00  0.00    +0.000 A 
ATOM      9  H   UNL     1       8.481   5.908  17.152  0.00  0.00    +0.000 HD
ENDROOT
BRANCH   4  10
ATOM     10  O   UNL     1       7.576   5.359  19.298  0.00  0.00    +0.000 OA
ATOM     11  H   UNL     1       6.876   5.483  19.979  0.00  0.00    +0.000 HD
ENDBRANCH   4  10
BRANCH   8  12
ATOM     12  C   UNL     1       5.471   4.164  14.275  0.00  0.00    +0.000 C 
ATOM     13  N   UNL     1       5.168   3.893  13.184  0.00  0.00    +0.000 NA
ENDBRANCH   8  12
BRANCH   3  14
ATOM     14  C   UNL     1       5.021   3.911  19.322  0.00  0.00    +0.000 C 
BRANCH  14  15
ATOM     15  N   UNL     1       3.520   3.876  19.241  0.00  0.00    +0.000 NA
ATOM     16  C   UNL     1       3.040   2.537  19.660  0.00  0.00    +0.000 C 
ATOM     17  C   UNL     1       1.550   2.446  19.994  0.00  0.00    +0.000 C 
ATOM     18  C   UNL     1       1.132   3.512  20.991  0.00  0.00    +0.000 C 
ATOM     19  C   UNL     1       1.504   4.881  20.451  0.00  0.00    +0.000 C 
ATOM     20  C   UNL     1       2.989   4.967  20.091  0.00  0.00    +0.000 C 
ENDBRANCH  14  15
ENDBRANCH   3  14
TORSDOF 4
ENDMDL
MODEL 8
REMARK VINA RESULT:      -6.5      1.692      1.935
REMARK  Name = 
REMARK  5 active torsions:
REMARK  status: ('A' for Active; 'I' for Inactive)
REMARK    1  A    between atoms: C_1  and  C_2
REMARK    2  A    between atoms: C_3  and  C_4
REMARK    3  A    between atoms: C_4  and  N_5
REMARK    4  A    between atoms: C_11  and  O_12
REMARK    5  A    between atoms: C_16  and  C_17
REMARK                            x       y       z     vdW  Elec       q    Type
REMARK                         _______ _______ _______ _____ _____    ______ ____
ROOT
ATOM      1  C   UNL     1       4.205   7.120  17.965  0.00  0.00    +0.000 C 
ATOM      2  C   UNL     1       4.869   5.851  17.475  0.00  0.00    +0.000 A 
ATOM      3  C   UNL     1       4.130   4.558  17.432  0.00  0.00    +0.000 A 
ATOM      4  C   UNL     1       4.777   3.485  16.931  0.00  0.00    +0.000 A 
ATOM      5  N   UNL     1       6.063   3.557  16.506  0.00  0.00    +0.000 N 
ATOM      6  C   UNL     1       6.833   4.684  16.537  0.00  0.00    +0.000 A 
ATOM      7  O   UNL     1       8.001   4.677  16.157  0.00  0.00    +0.000 OA
ATOM      8  C   UNL     1       6.163   5.910  17.055  0.00  0.00    +0.000 A 
ATOM      9  H   UNL     1       6.492   2.712  16.153  0.00  0.00    +0.000 HD
ENDROOT
BRANCH   4  10
ATOM     10  O   UNL     1       4.236   2.237  16.792  0.00  0.00    +0.000 OA
ATOM     11  H   UNL     1       4.543   1.890  15.923  0.00  0.00    +0.000 HD
ENDBRANCH   4  10
BRANCH   8  12
ATOM     12  C   UNL     1       6.930   7.110  17.070  0.00  0.00    +0.000 C 
ATOM     13  N   UNL     1       7.548   8.093  17.161  0.00  0.00    +0.000 NA
ENDBRANCH   8  12
BRANCH   3  14
ATOM     14  C   UNL     1       2.679   4.467  17.899  0.00  0.00    +0.000 C 
BRANCH  14  15
ATOM     15  N   UNL     1       2.358   3.391  18.898  0.00  0.00    +0.000 NA
ATOM     16  C   UNL     1       3.430   3.342  19.923  0.00  0.00    +0.000 C 
ATOM     17  C   UNL     1       3.084   2.577  21.201  0.00  0.00    +0.000 C 
ATOM     18  C   UNL     1       1.774   3.054  21.804  0.00  0.00    +0.000 C 
ATOM     19  C   UNL     1       0.671   2.941  20.766  0.00  0.00    +0.000 C 
ATOM     20  C   UNL     1       1.026   3.683  19.476  0.00  0.00    +0.000 C 
ENDBRANCH  14  15
ENDBRANCH   3  14
TORSDOF 4
ENDMDL
MODEL 9
REMARK VINA RESULT:      -6.5      2.499      3.294
REMARK  Name = 
REMARK  5 active torsions:
REMARK  status: ('A' for Active; 'I' for Inactive)
REMARK    1  A    between atoms: C_1  and  C_2
REMARK    2  A    between atoms: C_3  and  C_4
REMARK    3  A    between atoms: C_4  and  N_5
REMARK    4  A    between atoms: C_11  and  O_12
REMARK    5  A    between atoms: C_16  and  C_17
REMARK                            x       y       z     vdW  Elec       q    Type
REMARK                         _______ _______ _______ _____ _____    ______ ____
ROOT
ATOM      1  C   UNL     1       5.361   4.497  19.504  0.00  0.00    +0.000 C 
ATOM      2  C   UNL     1       4.813   5.468  18.480  0.00  0.00    +0.000 A 
ATOM      3  C   UNL     1       3.572   6.249  18.742  0.00  0.00    +0.000 A 
ATOM      4  C   UNL     1       3.180   7.133  17.801  0.00  0.00    +0.000 A 
ATOM      5  N   UNL     1       3.863   7.296  16.641  0.00  0.00    +0.000 N 
ATOM      6  C   UNL     1       4.989   6.605  16.295  0.00  0.00    +0.000 A 
ATOM      7  O   UNL     1       5.549   6.784  15.217  0.00  0.00    +0.000 OA
ATOM      8  C   UNL     1       5.486   5.632  17.308  0.00  0.00    +0.000 A 
ATOM      9  H   UNL     1       3.508   7.967  15.973  0.00  0.00    +0.000 HD
ENDROOT
BRANCH   4  10
ATOM     10  O   UNL     1       2.086   7.949  17.897  0.00  0.00    +0.000 OA
ATOM     11  H   UNL     1       1.534   7.598  18.633  0.00  0.00    +0.000 HD
ENDBRANCH   4  10
BRANCH   8  12
ATOM     12  C   UNL     1       6.677   4.918  16.991  0.00  0.00    +0.000 C 
ATOM     13  N   UNL     1       7.692   4.397  16.758  0.00  0.00    +0.000 NA
ENDBRANCH   8  12
BRANCH   3  14
ATOM     14  C   UNL     1       2.800   6.082  20.049  0.00  0.00    +0.000 C 
BRANCH  14  15
ATOM     15  N   UNL     1       1.765   4.991  20.086  0.00  0.00    +0.000 NA
ATOM     16  C   UNL     1       1.738   4.300  18.774  0.00  0.00    +0.000 C 
ATOM     17  C   UNL     1       1.025   2.947  18.758  0.00  0.00    +0.000 C 
ATOM     18  C   UNL     1       1.542   2.027  19.849  0.00  0.00    +0.000 C 
ATOM     19  C   UNL     1       1.408   2.715  21.195  0.00  0.00    +0.000 C 
ATOM     20  C   UNL     1       2.097   4.082  21.207  0.00  0.00    +0.000 C 
ENDBRANCH  14  15
ENDBRANCH   3  14
TORSDOF 4
ENDMDL
