MODEL 1
REMARK VINA RESULT:      -5.6      0.000      0.000
REMARK  Name = 
REMARK  12 active torsions:
REMARK  status: ('A' for Active; 'I' for Inactive)
REMARK    1  A    between atoms: C_1  and  C_2
REMARK    2  A    between atoms: C_2  and  C_3
REMARK    3  A    between atoms: C_3  and  C_4
REMARK    4  A    between atoms: C_4  and  C_5
REMARK    5  A    between atoms: C_5  and  C_6
REMARK    6  A    between atoms: C_6  and  C_7
REMARK    7  A    between atoms: C_7  and  C_8
REMARK    8  A    between atoms: C_8  and  O_9
REMARK    9  A    between atoms: O_9  and  C_10
REMARK   10  A    between atoms: C_10  and  C_12
REMARK   11  A    between atoms: C_12  and  N_13
REMARK   12  A    between atoms: N_13  and  C_14
REMARK                            x       y       z     vdW  Elec       q    Type
REMARK                         _______ _______ _______ _____ _____    ______ ____
ROOT
ATOM      1  C   UNL     1       4.144   6.558  17.407  0.00  0.00    +0.000 C 
ATOM      2  O   UNL     1       3.716   7.668  17.697  0.00  0.00    +0.000 OA
ENDROOT
BRANCH   1   3
ATOM      3  O   UNL     1       3.747   5.389  17.987  0.00  0.00    +0.000 OA
BRANCH   3   4
ATOM      4  C   UNL     1       4.114   5.214  19.367  0.00  0.00    +0.000 C 
BRANCH   4   5
ATOM      5  C   UNL     1       2.938   5.603  20.254  0.00  0.00    +0.000 C 
BRANCH   5   6
ATOM      6  C   UNL     1       1.630   4.965  19.796  0.00  0.00    +0.000 C 
BRANCH   6   7
ATOM      7  C   UNL     1       1.281   3.777  20.692  0.00  0.00    +0.000 C 
BRANCH   7   8
ATOM      8  C   UNL     1       1.485   2.445  19.975  0.00  0.00    +0.000 C 
BRANCH   8   9
ATOM      9  C   UNL     1       1.289   2.609  18.468  0.00  0.00    +0.000 C 
BRANCH   9  11
ATOM     10  C   UNL     1       3.576   1.577  18.624  0.00  0.00    +0.000 C 
ATOM     11  C   UNL     1       2.499   2.100  17.688  0.00  0.00    +0.000 C 
ENDBRANCH   9  11
ENDBRANCH   8   9
ENDBRANCH   7   8
ENDBRANCH   6   7
ENDBRANCH   5   6
ENDBRANCH   4   5
ENDBRANCH   3   4
ENDBRANCH   1   3
BRANCH   1  12
ATOM     12  C   UNL     1       5.209   6.279  16.353  0.00  0.00    +0.000 C 
BRANCH  12  13
ATOM     13  N   UNL     1       6.495   5.887  16.959  0.00  0.00    +0.000 N 
ATOM     14  C   UNL     1       7.335   6.995  17.397  0.00  0.00    +0.000 C 
ATOM     15  C   UNL     1       6.924   4.595  17.045  0.00  0.00    +0.000 C 
ATOM     16  N   UNL     1       8.018   4.183  17.583  0.00  0.00    +0.000 NA
ATOM     17  N   UNL     1       6.157   3.637  16.483  0.00  0.00    +0.000 N 
ATOM     18  H   UNL     1       8.542   4.975  17.957  0.00  0.00    +0.000 HD
ATOM     19  H   UNL     1       5.158   3.711  16.581  0.00  0.00    +0.000 HD
ATOM     20  H   UNL     1       6.492   2.725  16.784  0.00  0.00    +0.000 HD
ENDBRANCH  12  13
ENDBRANCH   1  12
TORSDOF 10
ENDMDL
MODEL 2
REMARK VINA RESULT:      -5.5      3.969      6.130
REMARK  Name = 
REMARK  12 active torsions:
REMARK  status: ('A' for Active; 'I' for Inactive)
REMARK    1  A    between atoms: C_1  and  C_2
REMARK    2  A    between atoms: C_2  and  C_3
REMARK    3  A    between atoms: C_3  and  C_4
REMARK    4  A    between atoms: C_4  and  C_5
REMARK    5  A    between atoms: C_5  and  C_6
REMARK    6  A    between atoms: C_6  and  C_7
REMARK    7  A    between atoms: C_7  and  C_8
REMARK    8  A    between atoms: C_8  and  O_9
REMARK    9  A    between atoms: O_9  and  C_10
REMARK   10  A    between atoms: C_10  and  C_12
REMARK   11  A    between atoms: C_12  and  N_13
REMARK   12  A    between atoms: N_13  and  C_14
REMARK                            x       y       z     vdW  Elec       q    Type
REMARK                         _______ _______ _______ _____ _____    ______ ____
ROOT
ATOM      1  C   UNL     1       6.089   4.829  18.066  0.00  0.00    +0.000 C 
ATOM      2  O   UNL     1       7.168   4.292  18.281  0.00  0.00    +0.000 OA
ENDROOT
BRANCH   1   3
ATOM      3  O   UNL     1       5.834   5.696  17.044  0.00  0.00    +0.000 OA
BRANCH   3   4
ATOM      4  C   UNL     1       6.725   5.620  15.917  0.00  0.00    +0.000 C 
BRANCH   4   5
ATOM      5  C   UNL     1       6.181   4.614  14.910  0.00  0.00    +0.000 C 
BRANCH   5   6
ATOM      6  C   UNL     1       6.952   4.636  13.594  0.00  0.00    +0.000 C 
BRANCH   6   7
ATOM      7  C   UNL     1       6.443   3.533  12.668  0.00  0.00    +0.000 C 
BRANCH   7   8
ATOM      8  C   UNL     1       4.929   3.599  12.482  0.00  0.00    +0.000 C 
BRANCH   8   9
ATOM      9  C   UNL     1       4.511   2.877  11.201  0.00  0.00    +0.000 C 
BRANCH   9  11
ATOM     10  C   UNL     1       3.088   4.132   9.552  0.00  0.00    +0.000 C 
ATOM     11  C   UNL     1       3.089   3.248  10.789  0.00  0.00    +0.000 C 
ENDBRANCH   9  11
ENDBRANCH   8   9
ENDBRANCH   7   8
ENDBRANCH   6   7
ENDBRANCH   5   6
ENDBRANCH   4   5
ENDBRANCH   3   4
ENDBRANCH   1   3
BRANCH   1  12
ATOM     12  C   UNL     1       4.833   4.637  18.908  0.00  0.00    +0.000 C 
BRANCH  12  13
ATOM     13  N   UNL     1       3.970   3.566  18.375  0.00  0.00    +0.000 N 
ATOM     14  C   UNL     1       2.987   3.997  17.388  0.00  0.00    +0.000 C 
ATOM     15  C   UNL     1       4.018   2.274  18.811  0.00  0.00    +0.000 C 
ATOM     16  N   UNL     1       3.316   1.289  18.372  0.00  0.00    +0.000 NA
ATOM     17  N   UNL     1       4.851   1.983  19.833  0.00  0.00    +0.000 N 
ATOM     18  H   UNL     1       2.700   1.606  17.624  0.00  0.00    +0.000 HD
ATOM     19  H   UNL     1       5.759   2.419  19.843  0.00  0.00    +0.000 HD
ATOM     20  H   UNL     1       4.925   0.974  19.923  0.00  0.00    +0.000 HD
ENDBRANCH  12  13
ENDBRANCH   1  12
TORSDOF 10
ENDMDL
MODEL 3
REMARK VINA RESULT:      -5.4      3.735      6.018
REMARK  Name = 
REMARK  12 active torsions:
REMARK  status: ('A' for Active; 'I' for Inactive)
REMARK    1  A    between atoms: C_1  and  C_2
REMARK    2  A    between atoms: C_2  and  C_3
REMARK    3  A    between atoms: C_3  and  C_4
REMARK    4  A    between atoms: C_4  and  C_5
REMARK    5  A    between atoms: C_5  and  C_6
REMARK    6  A    between atoms: C_6  and  C_7
REMARK    7  A    between atoms: C_7  and  C_8
REMARK    8  A    between atoms: C_8  and  O_9
REMARK    9  A    between atoms: O_9  and  C_10
REMARK   10  A    between atoms: C_10  and  C_12
REMARK   11  A    between atoms: C_12  and  N_13
REMARK   12  A    between atoms: N_13  and  C_14
REMARK                            x       y       z     vdW  Elec       q    Type
REMARK                         _______ _______ _______ _____ _____    ______ ____
ROOT
ATOM      1  C   UNL     1       5.165   4.972  18.964  0.00  0.00    +0.000 C 
ATOM      2  O   UNL     1       6.034   5.451  19.680  0.00  0.00    +0.000 OA
ENDROOT
BRANCH   1   3
ATOM      3  O   UNL     1       5.358   4.519  17.692  0.00  0.00    +0.000 OA
BRANCH   3   4
ATOM      4  C   UNL     1       6.339   5.228  16.913  0.00  0.00    +0.000 C 
BRANCH   4   5
ATOM      5  C   UNL     1       6.905   4.297  15.848  0.00  0.00    +0.000 C 
BRANCH   5   6
ATOM      6  C   UNL     1       6.697   4.837  14.436  0.00  0.00    +0.000 C 
BRANCH   6   7
ATOM      7  C   UNL     1       5.736   3.935  13.664  0.00  0.00    +0.000 C 
BRANCH   7   8
ATOM      8  C   UNL     1       6.325   3.485  12.329  0.00  0.00    +0.000 C 
BRANCH   8   9
ATOM      9  C   UNL     1       5.284   2.724  11.510  0.00  0.00    +0.000 C 
BRANCH   9  11
ATOM     10  C   UNL     1       3.289   3.435  10.155  0.00  0.00    +0.000 C 
ATOM     11  C   UNL     1       3.929   3.429  11.534  0.00  0.00    +0.000 C 
ENDBRANCH   9  11
ENDBRANCH   8   9
ENDBRANCH   7   8
ENDBRANCH   6   7
ENDBRANCH   5   6
ENDBRANCH   4   5
ENDBRANCH   3   4
ENDBRANCH   1   3
BRANCH   1  12
ATOM     12  C   UNL     1       3.702   4.804  19.358  0.00  0.00    +0.000 C 
BRANCH  12  13
ATOM     13  N   UNL     1       3.275   3.393  19.303  0.00  0.00    +0.000 N 
ATOM     14  C   UNL     1       3.687   2.578  20.439  0.00  0.00    +0.000 C 
ATOM     15  C   UNL     1       2.609   2.849  18.244  0.00  0.00    +0.000 C 
ATOM     16  N   UNL     1       2.185   1.638  18.143  0.00  0.00    +0.000 NA
ATOM     17  N   UNL     1       2.394   3.631  17.165  0.00  0.00    +0.000 N 
ATOM     18  H   UNL     1       2.413   1.118  18.991  0.00  0.00    +0.000 HD
ATOM     19  H   UNL     1       2.137   4.592  17.319  0.00  0.00    +0.000 HD
ATOM     20  H   UNL     1       1.734   3.167  16.545  0.00  0.00    +0.000 HD
ENDBRANCH  12  13
ENDBRANCH   1  12
TORSDOF 10
ENDMDL
MODEL 4
REMARK VINA RESULT:      -5.4      1.736      2.761
REMARK  Name = 
REMARK  12 active torsions:
REMARK  status: ('A' for Active; 'I' for Inactive)
REMARK    1  A    between atoms: C_1  and  C_2
REMARK    2  A    between atoms: C_2  and  C_3
REMARK    3  A    between atoms: C_3  and  C_4
REMARK    4  A    between atoms: C_4  and  C_5
REMARK    5  A    between atoms: C_5  and  C_6
REMARK    6  A    between atoms: C_6  and  C_7
REMARK    7  A    between atoms: C_7  and  C_8
REMARK    8  A    between atoms: C_8  and  O_9
REMARK    9  A    between atoms: O_9  and  C_10
REMARK   10  A    between atoms: C_10  and  C_12
REMARK   11  A    between atoms: C_12  and  N_13
REMARK   12  A    between atoms: N_13  and  C_14
REMARK                            x       y       z     vdW  Elec       q    Type
REMARK                         _______ _______ _______ _____ _____    ______ ____
ROOT
ATOM      1  C   UNL     1       6.864   4.844  19.061  0.00  0.00    +0.000 C 
ATOM      2  O   UNL     1       7.327   5.414  20.040  0.00  0.00    +0.000 OA
ENDROOT
BRANCH   1   3
ATOM      3  O   UNL     1       5.586   4.378  18.956  0.00  0.00    +0.000 OA
BRANCH   3   4
ATOM      4  C   UNL     1       4.555   5.380  18.878  0.00  0.00    +0.000 C 
BRANCH   4   5
ATOM      5  C   UNL     1       3.528   4.966  17.832  0.00  0.00    +0.000 C 
BRANCH   5   6
ATOM      6  C   UNL     1       3.660   3.498  17.439  0.00  0.00    +0.000 C 
BRANCH   6   7
ATOM      7  C   UNL     1       2.360   2.753  17.740  0.00  0.00    +0.000 C 
BRANCH   7   8
ATOM      8  C   UNL     1       1.256   3.701  18.203  0.00  0.00    +0.000 C 
BRANCH   8   9
ATOM      9  C   UNL     1       0.795   3.341  19.615  0.00  0.00    +0.000 C 
BRANCH   9  11
ATOM     10  C   UNL     1       2.170   2.912  21.675  0.00  0.00    +0.000 C 
ATOM     11  C   UNL     1       1.779   2.396  20.300  0.00  0.00    +0.000 C 
ENDBRANCH   9  11
ENDBRANCH   8   9
ENDBRANCH   7   8
ENDBRANCH   6   7
ENDBRANCH   5   6
ENDBRANCH   4   5
ENDBRANCH   3   4
ENDBRANCH   1   3
BRANCH   1  12
ATOM     12  C   UNL     1       7.634   4.539  17.781  0.00  0.00    +0.000 C 
BRANCH  12  13
ATOM     13  N   UNL     1       7.171   5.364  16.649  0.00  0.00    +0.000 N 
ATOM     14  C   UNL     1       7.233   6.804  16.867  0.00  0.00    +0.000 C 
ATOM     15  C   UNL     1       6.648   4.841  15.503  0.00  0.00    +0.000 C 
ATOM     16  N   UNL     1       6.251   5.500  14.470  0.00  0.00    +0.000 NA
ATOM     17  N   UNL     1       6.484   3.503  15.436  0.00  0.00    +0.000 N 
ATOM     18  H   UNL     1       6.389   6.499  14.620  0.00  0.00    +0.000 HD
ATOM     19  H   UNL     1       7.206   2.917  15.823  0.00  0.00    +0.000 HD
ATOM     20  H   UNL     1       6.271   3.242  14.477  0.00  0.00    +0.000 HD
ENDBRANCH  12  13
ENDBRANCH   1  12
TORSDOF 10
ENDMDL
MODEL 5
REMARK VINA RESULT:      -5.4      1.564      2.667
REMARK  Name = 
REMARK  12 active torsions:
REMARK  status: ('A' for Active; 'I' for Inactive)
REMARK    1  A    between atoms: C_1  and  C_2
REMARK    2  A    between atoms: C_2  and  C_3
REMARK    3  A    between atoms: C_3  and  C_4
REMARK    4  A    between atoms: C_4  and  C_5
REMARK    5  A    between atoms: C_5  and  C_6
REMARK    6  A    between atoms: C_6  and  C_7
REMARK    7  A    between atoms: C_7  and  C_8
REMARK    8  A    between atoms: C_8  and  O_9
REMARK    9  A    between atoms: O_9  and  C_10
REMARK   10  A    between atoms: C_10  and  C_12
REMARK   11  A    between atoms: C_12  and  N_13
REMARK   12  A    between atoms: N_13  and  C_14
REMARK                            x       y       z     vdW  Elec       q    Type
REMARK                         _______ _______ _______ _____ _____    ______ ____
ROOT
ATOM      1  C   UNL     1       6.209   5.658  18.991  0.00  0.00    +0.000 C 
ATOM      2  O   UNL     1       6.922   5.267  19.907  0.00  0.00    +0.000 OA
ENDROOT
BRANCH   1   3
ATOM      3  O   UNL     1       4.878   5.392  18.865  0.00  0.00    +0.000 OA
BRANCH   3   4
ATOM      4  C   UNL     1       4.470   4.051  19.193  0.00  0.00    +0.000 C 
BRANCH   4   5
ATOM      5  C   UNL     1       4.345   3.235  17.912  0.00  0.00    +0.000 C 
BRANCH   5   6
ATOM      6  C   UNL     1       3.080   3.574  17.130  0.00  0.00    +0.000 C 
BRANCH   6   7
ATOM      7  C   UNL     1       1.951   3.945  18.090  0.00  0.00    +0.000 C 
BRANCH   7   8
ATOM      8  C   UNL     1       1.144   2.722  18.521  0.00  0.00    +0.000 C 
BRANCH   8   9
ATOM      9  C   UNL     1       0.468   2.972  19.868  0.00  0.00    +0.000 C 
BRANCH   9  11
ATOM     10  C   UNL     1       2.210   2.896  21.679  0.00  0.00    +0.000 C 
ATOM     11  C   UNL     1       1.358   3.794  20.797  0.00  0.00    +0.000 C 
ENDBRANCH   9  11
ENDBRANCH   8   9
ENDBRANCH   7   8
ENDBRANCH   6   7
ENDBRANCH   5   6
ENDBRANCH   4   5
ENDBRANCH   3   4
ENDBRANCH   1   3
BRANCH   1  12
ATOM     12  C   UNL     1       6.682   6.505  17.816  0.00  0.00    +0.000 C 
BRANCH  12  13
ATOM     13  N   UNL     1       6.322   5.900  16.520  0.00  0.00    +0.000 N 
ATOM     14  C   UNL     1       5.180   6.508  15.849  0.00  0.00    +0.000 C 
ATOM     15  C   UNL     1       6.949   4.804  16.002  0.00  0.00    +0.000 C 
ATOM     16  N   UNL     1       6.704   4.243  14.869  0.00  0.00    +0.000 NA
ATOM     17  N   UNL     1       7.899   4.206  16.752  0.00  0.00    +0.000 N 
ATOM     18  H   UNL     1       5.958   4.745  14.386  0.00  0.00    +0.000 HD
ATOM     19  H   UNL     1       8.532   4.793  17.271  0.00  0.00    +0.000 HD
ATOM     20  H   UNL     1       8.403   3.537  16.177  0.00  0.00    +0.000 HD
ENDBRANCH  12  13
ENDBRANCH   1  12
TORSDOF 10
ENDMDL
MODEL 6
REMARK VINA RESULT:      -5.4      3.341      5.575
REMARK  Name = 
REMARK  12 active torsions:
REMARK  status: ('A' for Active; 'I' for Inactive)
REMARK    1  A    between atoms: C_1  and  C_2
REMARK    2  A    between atoms: C_2  and  C_3
REMARK    3  A    between atoms: C_3  and  C_4
REMARK    4  A    between atoms: C_4  and  C_5
REMARK    5  A    between atoms: C_5  and  C_6
REMARK    6  A    between atoms: C_6  and  C_7
REMARK    7  A    between atoms: C_7  and  C_8
REMARK    8  A    between atoms: C_8  and  O_9
REMARK    9  A    between atoms: O_9  and  C_10
REMARK   10  A    between atoms: C_10  and  C_12
REMARK   11  A    between atoms: C_12  and  N_13
REMARK   12  A    between atoms: N_13  and  C_14
REMARK                            x       y       z     vdW  Elec       q    Type
REMARK                         _______ _______ _______ _____ _____    ______ ____
ROOT
ATOM      1  C   UNL     1       4.202   5.061  18.238  0.00  0.00    +0.000 C 
ATOM      2  O   UNL     1       3.864   6.160  17.817  0.00  0.00    +0.000 OA
ENDROOT
BRANCH   1   3
ATOM      3  O   UNL     1       5.437   4.754  18.727  0.00  0.00    +0.000 OA
BRANCH   3   4
ATOM      4  C   UNL     1       6.533   5.521  18.195  0.00  0.00    +0.000 C 
BRANCH   4   5
ATOM      5  C   UNL     1       7.436   4.609  17.375  0.00  0.00    +0.000 C 
BRANCH   5   6
ATOM      6  C   UNL     1       7.181   4.736  15.876  0.00  0.00    +0.000 C 
BRANCH   6   7
ATOM      7  C   UNL     1       6.102   3.746  15.440  0.00  0.00    +0.000 C 
BRANCH   7   8
ATOM      8  C   UNL     1       5.424   4.179  14.142  0.00  0.00    +0.000 C 
BRANCH   8   9
ATOM      9  C   UNL     1       6.346   3.939  12.947  0.00  0.00    +0.000 C 
BRANCH   9  11
ATOM     10  C   UNL     1       4.404   3.289  11.490  0.00  0.00    +0.000 C 
ATOM     11  C   UNL     1       5.776   2.883  12.003  0.00  0.00    +0.000 C 
ENDBRANCH   9  11
ENDBRANCH   8   9
ENDBRANCH   7   8
ENDBRANCH   6   7
ENDBRANCH   5   6
ENDBRANCH   4   5
ENDBRANCH   3   4
ENDBRANCH   1   3
BRANCH   1  12
ATOM     12  C   UNL     1       3.306   3.828  18.282  0.00  0.00    +0.000 C 
BRANCH  12  13
ATOM     13  N   UNL     1       2.808   3.557  19.644  0.00  0.00    +0.000 N 
ATOM     14  C   UNL     1       1.625   4.315  20.032  0.00  0.00    +0.000 C 
ATOM     15  C   UNL     1       3.434   2.720  20.521  0.00  0.00    +0.000 C 
ATOM     16  N   UNL     1       3.041   2.420  21.709  0.00  0.00    +0.000 NA
ATOM     17  N   UNL     1       4.606   2.170  20.141  0.00  0.00    +0.000 N 
ATOM     18  H   UNL     1       2.165   2.899  21.918  0.00  0.00    +0.000 HD
ATOM     19  H   UNL     1       4.696   1.854  19.189  0.00  0.00    +0.000 HD
ATOM     20  H   UNL     1       4.857   1.436  20.799  0.00  0.00    +0.000 HD
ENDBRANCH  12  13
ENDBRANCH   1  12
TORSDOF 10
ENDMDL
MODEL 7
REMARK VINA RESULT:      -5.3      1.126      2.336
REMARK  Name = 
REMARK  12 active torsions:
REMARK  status: ('A' for Active; 'I' for Inactive)
REMARK    1  A    between atoms: C_1  and  C_2
REMARK    2  A    between atoms: C_2  and  C_3
REMARK    3  A    between atoms: C_3  and  C_4
REMARK    4  A    between atoms: C_4  and  C_5
REMARK    5  A    between atoms: C_5  and  C_6
REMARK    6  A    between atoms: C_6  and  C_7
REMARK    7  A    between atoms: C_7  and  C_8
REMARK    8  A    between atoms: C_8  and  O_9
REMARK    9  A    between atoms: O_9  and  C_10
REMARK   10  A    between atoms: C_10  and  C_12
REMARK   11  A    between atoms: C_12  and  N_13
REMARK   12  A    between atoms: N_13  and  C_14
REMARK                            x       y       z     vdW  Elec       q    Type
REMARK                         _______ _______ _______ _____ _____    ______ ____
ROOT
ATOM      1  C   UNL     1       4.607   6.714  17.557  0.00  0.00    +0.000 C 
ATOM      2  O   UNL     1       3.596   7.354  17.294  0.00  0.00    +0.000 OA
ENDROOT
BRANCH   1   3
ATOM      3  O   UNL     1       4.740   5.855  18.608  0.00  0.00    +0.000 OA
BRANCH   3   4
ATOM      4  C   UNL     1       3.727   4.839  18.722  0.00  0.00    +0.000 C 
BRANCH   4   5
ATOM      5  C   UNL     1       4.393   3.480  18.895  0.00  0.00    +0.000 C 
BRANCH   5   6
ATOM      6  C   UNL     1       3.865   2.445  17.906  0.00  0.00    +0.000 C 
BRANCH   6   7
ATOM      7  C   UNL     1       2.353   2.595  17.745  0.00  0.00    +0.000 C 
BRANCH   7   8
ATOM      8  C   UNL     1       1.593   1.995  18.925  0.00  0.00    +0.000 C 
BRANCH   8   9
ATOM      9  C   UNL     1       0.617   3.016  19.511  0.00  0.00    +0.000 C 
BRANCH   9  11
ATOM     10  C   UNL     1       1.926   2.629  21.621  0.00  0.00    +0.000 C 
ATOM     11  C   UNL     1       1.168   3.648  20.787  0.00  0.00    +0.000 C 
ENDBRANCH   9  11
ENDBRANCH   8   9
ENDBRANCH   7   8
ENDBRANCH   6   7
ENDBRANCH   5   6
ENDBRANCH   4   5
ENDBRANCH   3   4
ENDBRANCH   1   3
BRANCH   1  12
ATOM     12  C   UNL     1       5.907   6.769  16.765  0.00  0.00    +0.000 C 
BRANCH  12  13
ATOM     13  N   UNL     1       6.613   5.474  16.773  0.00  0.00    +0.000 N 
ATOM     14  C   UNL     1       6.179   4.526  15.754  0.00  0.00    +0.000 C 
ATOM     15  C   UNL     1       7.553   5.136  17.703  0.00  0.00    +0.000 C 
ATOM     16  N   UNL     1       8.224   4.038  17.752  0.00  0.00    +0.000 NA
ATOM     17  N   UNL     1       7.794   6.008  18.704  0.00  0.00    +0.000 N 
ATOM     18  H   UNL     1       7.958   3.432  16.975  0.00  0.00    +0.000 HD
ATOM     19  H   UNL     1       7.819   6.990  18.481  0.00  0.00    +0.000 HD
ATOM     20  H   UNL     1       8.632   5.720  19.201  0.00  0.00    +0.000 HD
ENDBRANCH  12  13
ENDBRANCH   1  12
TORSDOF 10
ENDMDL
MODEL 8
REMARK VINA RESULT:      -5.2      4.044      6.285
REMARK  Name = 
REMARK  12 active torsions:
REMARK  status: ('A' for Active; 'I' for Inactive)
REMARK    1  A    between atoms: C_1  and  C_2
REMARK    2  A    between atoms: C_2  and  C_3
REMARK    3  A    between atoms: C_3  and  C_4
REMARK    4  A    between atoms: C_4  and  C_5
REMARK    5  A    between atoms: C_5  and  C_6
REMARK    6  A    between atoms: C_6  and  C_7
REMARK    7  A    between atoms: C_7  and  C_8
REMARK    8  A    between atoms: C_8  and  O_9
REMARK    9  A    between atoms: O_9  and  C_10
REMARK   10  A    between atoms: C_10  and  C_12
REMARK   11  A    between atoms: C_12  and  N_13
REMARK   12  A    between atoms: N_13  and  C_14
REMARK                            x       y       z     vdW  Elec       q    Type
REMARK                         _______ _______ _______ _____ _____    ______ ____
ROOT
ATOM      1  C   UNL     1       4.884   4.059  18.522  0.00  0.00    +0.000 C 
ATOM      2  O   UNL     1       5.368   3.480  19.487  0.00  0.00    +0.000 OA
ENDROOT
BRANCH   1   3
ATOM      3  O   UNL     1       5.324   3.942  17.237  0.00  0.00    +0.000 OA
BRANCH   3   4
ATOM      4  C   UNL     1       6.645   4.448  16.974  0.00  0.00    +0.000 C 
BRANCH   4   5
ATOM      5  C   UNL     1       6.579   5.472  15.848  0.00  0.00    +0.000 C 
BRANCH   5   6
ATOM      6  C   UNL     1       6.884   4.856  14.486  0.00  0.00    +0.000 C 
BRANCH   6   7
ATOM      7  C   UNL     1       5.619   4.236  13.893  0.00  0.00    +0.000 C 
BRANCH   7   8
ATOM      8  C   UNL     1       5.940   3.251  12.772  0.00  0.00    +0.000 C 
BRANCH   8   9
ATOM      9  C   UNL     1       5.318   3.715  11.455  0.00  0.00    +0.000 C 
BRANCH   9  11
ATOM     10  C   UNL     1       3.198   3.739  10.105  0.00  0.00    +0.000 C 
ATOM     11  C   UNL     1       3.982   3.023  11.193  0.00  0.00    +0.000 C 
ENDBRANCH   9  11
ENDBRANCH   8   9
ENDBRANCH   7   8
ENDBRANCH   6   7
ENDBRANCH   5   6
ENDBRANCH   4   5
ENDBRANCH   3   4
ENDBRANCH   1   3
BRANCH   1  12
ATOM     12  C   UNL     1       3.708   5.026  18.583  0.00  0.00    +0.000 C 
BRANCH  12  13
ATOM     13  N   UNL     1       2.441   4.335  18.884  0.00  0.00    +0.000 N 
ATOM     14  C   UNL     1       1.810   3.676  17.747  0.00  0.00    +0.000 C 
ATOM     15  C   UNL     1       1.844   4.359  20.111  0.00  0.00    +0.000 C 
ATOM     16  N   UNL     1       0.756   3.758  20.448  0.00  0.00    +0.000 NA
ATOM     17  N   UNL     1       2.412   5.114  21.074  0.00  0.00    +0.000 N 
ATOM     18  H   UNL     1       0.386   3.236  19.653  0.00  0.00    +0.000 HD
ATOM     19  H   UNL     1       3.417   5.118  21.143  0.00  0.00    +0.000 HD
ATOM     20  H   UNL     1       1.981   4.892  21.968  0.00  0.00    +0.000 HD
ENDBRANCH  12  13
ENDBRANCH   1  12
TORSDOF 10
ENDMDL
MODEL 9
REMARK VINA RESULT:      -5.2      1.385      2.336
REMARK  Name = 
REMARK  12 active torsions:
REMARK  status: ('A' for Active; 'I' for Inactive)
REMARK    1  A    between atoms: C_1  and  C_2
REMARK    2  A    between atoms: C_2  and  C_3
REMARK    3  A    between atoms: C_3  and  C_4
REMARK    4  A    between atoms: C_4  and  C_5
REMARK    5  A    between atoms: C_5  and  C_6
REMARK    6  A    between atoms: C_6  and  C_7
REMARK    7  A    between atoms: C_7  and  C_8
REMARK    8  A    between atoms: C_8  and  O_9
REMARK    9  A    between atoms: O_9  and  C_10
REMARK   10  A    between atoms: C_10  and  C_12
REMARK   11  A    between atoms: C_12  and  N_13
REMARK   12  A    between atoms: N_13  and  C_14
REMARK                            x       y       z     vdW  Elec       q    Type
REMARK                         _______ _______ _______ _____ _____    ______ ____
ROOT
ATOM      1  C   UNL     1       4.509   6.466  17.401  0.00  0.00    +0.000 C 
ATOM      2  O   UNL     1       3.985   7.572  17.372  0.00  0.00    +0.000 OA
ENDROOT
BRANCH   1   3
ATOM      3  O   UNL     1       3.958   5.353  17.966  0.00  0.00    +0.000 OA
BRANCH   3   4
ATOM      4  C   UNL     1       3.860   4.198  17.113  0.00  0.00    +0.000 C 
BRANCH   4   5
ATOM      5  C   UNL     1       3.669   2.953  17.970  0.00  0.00    +0.000 C 
BRANCH   5   6
ATOM      6  C   UNL     1       2.461   2.128  17.534  0.00  0.00    +0.000 C 
BRANCH   6   7
ATOM      7  C   UNL     1       1.407   2.112  18.639  0.00  0.00    +0.000 C 
BRANCH   7   8
ATOM      8  C   UNL     1       0.773   3.487  18.841  0.00  0.00    +0.000 C 
BRANCH   8   9
ATOM      9  C   UNL     1       1.002   3.981  20.269  0.00  0.00    +0.000 C 
BRANCH   9  11
ATOM     10  C   UNL     1       2.648   2.753  21.719  0.00  0.00    +0.000 C 
ATOM     11  C   UNL     1       1.208   2.818  21.237  0.00  0.00    +0.000 C 
ENDBRANCH   9  11
ENDBRANCH   8   9
ENDBRANCH   7   8
ENDBRANCH   6   7
ENDBRANCH   5   6
ENDBRANCH   4   5
ENDBRANCH   3   4
ENDBRANCH   1   3
BRANCH   1  12
ATOM     12  C   UNL     1       5.878   6.131  16.823  0.00  0.00    +0.000 C 
BRANCH  12  13
ATOM     13  N   UNL     1       6.963   6.396  17.786  0.00  0.00    +0.000 N 
ATOM     14  C   UNL     1       7.593   7.705  17.665  0.00  0.00    +0.000 C 
ATOM     15  C   UNL     1       7.414   5.472  18.684  0.00  0.00    +0.000 C 
ATOM     16  N   UNL     1       8.335   5.645  19.566  0.00  0.00    +0.000 NA
ATOM     17  N   UNL     1       6.883   4.233  18.635  0.00  0.00    +0.000 N 
ATOM     18  H   UNL     1       8.694   6.599  19.512  0.00  0.00    +0.000 HD
ATOM     19  H   UNL     1       5.893   4.147  18.470  0.00  0.00    +0.000 HD
ATOM     20  H   UNL     1       7.165   3.718  19.465  0.00  0.00    +0.000 HD
ENDBRANCH  12  13
ENDBRANCH   1  12
TORSDOF 10
ENDMDL
