MODEL 1
REMARK VINA RESULT:      -6.9      0.000      0.000
REMARK  Name = 
REMARK  7 active torsions:
REMARK  status: ('A' for Active; 'I' for Inactive)
REMARK    1  A    between atoms: C_1  and  O_2
REMARK    2  A    between atoms: O_2  and  C_3
REMARK    3  A    between atoms: C_3  and  C_4
REMARK    4  A    between atoms: C_3  and  C_5
REMARK    5  A    between atoms: C_10  and  C_11
REMARK    6  A    between atoms: C_11  and  N_12
REMARK    7  A    between atoms: C_13  and  C_15
REMARK                            x       y       z     vdW  Elec       q    Type
REMARK                         _______ _______ _______ _____ _____    ______ ____
ROOT
ATOM      1  C   UNL     1       1.441   8.290  20.061  0.00  0.00    +0.000 C 
ATOM      2  O   UNL     1       1.309   9.088  19.127  0.00  0.00    +0.000 OA
ATOM      3  N   UNL     1       1.940   7.005  19.854  0.00  0.00    +0.000 N 
ATOM      4  C   UNL     1       2.528   6.673  18.559  0.00  0.00    +0.000 C 
ATOM      5  C   UNL     1       1.906   5.406  17.982  0.00  0.00    +0.000 C 
ATOM      6  C   UNL     1       1.975   4.224  18.966  0.00  0.00    +0.000 C 
ATOM      7  C   UNL     1       1.365   4.653  20.314  0.00  0.00    +0.000 C 
ATOM      8  C   UNL     1       1.986   5.944  20.862  0.00  0.00    +0.000 C 
ENDROOT
BRANCH   1   9
ATOM      9  C   UNL     1       1.099   8.710  21.515  0.00  0.00    +0.000 C 
ATOM     10  C   UNL     1      -0.339   8.361  21.905  0.00  0.00    +0.000 C 
BRANCH   9  12
ATOM     11  C   UNL     1       0.212  10.912  21.851  0.00  0.00    +0.000 C 
ATOM     12  O   UNL     1       1.372  10.088  21.794  0.00  0.00    +0.000 OA
ENDBRANCH   9  12
ENDBRANCH   1   9
BRANCH   6  13
ATOM     13  C   UNL     1       3.401   3.680  19.162  0.00  0.00    +0.000 C 
BRANCH  13  14
ATOM     14  N   UNL     1       4.248   3.922  18.013  0.00  0.00    +0.000 N 
ATOM     15  C   UNL     1       5.515   4.445  18.133  0.00  0.00    +0.000 C 
ATOM     16  O   UNL     1       6.019   4.738  19.212  0.00  0.00    +0.000 OA
ATOM     17  H   UNL     1       3.914   3.636  17.105  0.00  0.00    +0.000 HD
BRANCH  15  18
ATOM     18  C   UNL     1       6.216   4.634  16.870  0.00  0.00    +0.000 A 
ATOM     19  C   UNL     1       6.110   3.954  15.619  0.00  0.00    +0.000 A 
ATOM     20  C   UNL     1       7.005   4.557  14.767  0.00  0.00    +0.000 A 
ATOM     21  O   UNL     1       7.658   5.562  15.400  0.00  0.00    +0.000 OA
ATOM     22  C   UNL     1       7.177   5.606  16.667  0.00  0.00    +0.000 A 
ENDBRANCH  15  18
ENDBRANCH  13  14
ENDBRANCH   6  13
TORSDOF 5
ENDMDL
MODEL 2
REMARK VINA RESULT:      -6.7      3.571      5.629
REMARK  Name = 
REMARK  7 active torsions:
REMARK  status: ('A' for Active; 'I' for Inactive)
REMARK    1  A    between atoms: C_1  and  O_2
REMARK    2  A    between atoms: O_2  and  C_3
REMARK    3  A    between atoms: C_3  and  C_4
REMARK    4  A    between atoms: C_3  and  C_5
REMARK    5  A    between atoms: C_10  and  C_11
REMARK    6  A    between atoms: C_11  and  N_12
REMARK    7  A    between atoms: C_13  and  C_15
REMARK                            x       y       z     vdW  Elec       q    Type
REMARK                         _______ _______ _______ _____ _____    ______ ____
ROOT
ATOM      1  C   UNL     1       2.615   4.260  18.221  0.00  0.00    +0.000 C 
ATOM      2  O   UNL     1       1.828   5.111  18.648  0.00  0.00    +0.000 OA
ATOM      3  N   UNL     1       3.849   4.617  17.679  0.00  0.00    +0.000 N 
ATOM      4  C   UNL     1       4.314   5.993  17.824  0.00  0.00    +0.000 C 
ATOM      5  C   UNL     1       4.717   6.581  16.476  0.00  0.00    +0.000 C 
ATOM      6  C   UNL     1       5.743   5.700  15.740  0.00  0.00    +0.000 C 
ATOM      7  C   UNL     1       5.200   4.262  15.649  0.00  0.00    +0.000 C 
ATOM      8  C   UNL     1       4.776   3.701  17.012  0.00  0.00    +0.000 C 
ENDROOT
BRANCH   1   9
ATOM      9  C   UNL     1       2.277   2.749  18.321  0.00  0.00    +0.000 C 
ATOM     10  C   UNL     1       0.812   2.498  18.685  0.00  0.00    +0.000 C 
BRANCH   9  12
ATOM     11  C   UNL     1       3.285   2.608  20.492  0.00  0.00    +0.000 C 
ATOM     12  O   UNL     1       3.142   2.023  19.202  0.00  0.00    +0.000 OA
ENDBRANCH   9  12
ENDBRANCH   1   9
BRANCH   6  13
ATOM     13  C   UNL     1       7.136   5.716  16.393  0.00  0.00    +0.000 C 
BRANCH  13  14
ATOM     14  N   UNL     1       7.568   7.054  16.742  0.00  0.00    +0.000 N 
ATOM     15  C   UNL     1       7.909   7.401  18.028  0.00  0.00    +0.000 C 
ATOM     16  O   UNL     1       7.879   6.612  18.966  0.00  0.00    +0.000 OA
ATOM     17  H   UNL     1       7.679   7.728  15.999  0.00  0.00    +0.000 HD
BRANCH  15  18
ATOM     18  C   UNL     1       8.305   8.793  18.196  0.00  0.00    +0.000 A 
ATOM     19  C   UNL     1       9.204   9.416  19.114  0.00  0.00    +0.000 A 
ATOM     20  C   UNL     1       9.205  10.758  18.812  0.00  0.00    +0.000 A 
ATOM     21  O   UNL     1       8.372  11.012  17.774  0.00  0.00    +0.000 OA
ATOM     22  C   UNL     1       7.834   9.823  17.404  0.00  0.00    +0.000 A 
ENDBRANCH  15  18
ENDBRANCH  13  14
ENDBRANCH   6  13
TORSDOF 5
ENDMDL
MODEL 3
REMARK VINA RESULT:      -6.4      1.792      6.367
REMARK  Name = 
REMARK  7 active torsions:
REMARK  status: ('A' for Active; 'I' for Inactive)
REMARK    1  A    between atoms: C_1  and  O_2
REMARK    2  A    between atoms: O_2  and  C_3
REMARK    3  A    between atoms: C_3  and  C_4
REMARK    4  A    between atoms: C_3  and  C_5
REMARK    5  A    between atoms: C_10  and  C_11
REMARK    6  A    between atoms: C_11  and  N_12
REMARK    7  A    between atoms: C_13  and  C_15
REMARK                            x       y       z     vdW  Elec       q    Type
REMARK                         _______ _______ _______ _____ _____    ______ ____
ROOT
ATOM      1  C   UNL     1       6.648   4.809  17.505  0.00  0.00    +0.000 C 
ATOM      2  O   UNL     1       7.626   4.304  18.064  0.00  0.00    +0.000 OA
ATOM      3  N   UNL     1       5.360   4.665  18.021  0.00  0.00    +0.000 N 
ATOM      4  C   UNL     1       5.192   4.105  19.358  0.00  0.00    +0.000 C 
ATOM      5  C   UNL     1       4.201   2.946  19.347  0.00  0.00    +0.000 C 
ATOM      6  C   UNL     1       2.854   3.339  18.713  0.00  0.00    +0.000 C 
ATOM      7  C   UNL     1       3.110   3.946  17.321  0.00  0.00    +0.000 C 
ATOM      8  C   UNL     1       4.130   5.091  17.352  0.00  0.00    +0.000 C 
ENDROOT
BRANCH   1   9
ATOM      9  C   UNL     1       6.824   5.670  16.226  0.00  0.00    +0.000 C 
ATOM     10  C   UNL     1       7.099   4.823  14.981  0.00  0.00    +0.000 C 
BRANCH   9  12
ATOM     11  C   UNL     1       7.545   7.634  17.398  0.00  0.00    +0.000 C 
ATOM     12  O   UNL     1       7.812   6.699  16.358  0.00  0.00    +0.000 OA
ENDBRANCH   9  12
ENDBRANCH   1   9
BRANCH   6  13
ATOM     13  C   UNL     1       2.031   4.303  19.585  0.00  0.00    +0.000 C 
BRANCH  13  14
ATOM     14  N   UNL     1       1.958   5.634  19.021  0.00  0.00    +0.000 N 
ATOM     15  C   UNL     1       1.972   6.764  19.805  0.00  0.00    +0.000 C 
ATOM     16  O   UNL     1       2.051   6.730  21.028  0.00  0.00    +0.000 OA
ATOM     17  H   UNL     1       1.963   5.728  18.016  0.00  0.00    +0.000 HD
BRANCH  15  18
ATOM     18  C   UNL     1       1.876   8.017  19.067  0.00  0.00    +0.000 A 
ATOM     19  C   UNL     1       1.158   9.221  19.337  0.00  0.00    +0.000 A 
ATOM     20  C   UNL     1       1.439  10.086  18.306  0.00  0.00    +0.000 A 
ATOM     21  O   UNL     1       2.280   9.504  17.415  0.00  0.00    +0.000 OA
ATOM     22  C   UNL     1       2.542   8.258  17.880  0.00  0.00    +0.000 A 
ENDBRANCH  15  18
ENDBRANCH  13  14
ENDBRANCH   6  13
TORSDOF 5
ENDMDL
MODEL 4
REMARK VINA RESULT:      -6.4      4.544      6.849
REMARK  Name = 
REMARK  7 active torsions:
REMARK  status: ('A' for Active; 'I' for Inactive)
REMARK    1  A    between atoms: C_1  and  O_2
REMARK    2  A    between atoms: O_2  and  C_3
REMARK    3  A    between atoms: C_3  and  C_4
REMARK    4  A    between atoms: C_3  and  C_5
REMARK    5  A    between atoms: C_10  and  C_11
REMARK    6  A    between atoms: C_11  and  N_12
REMARK    7  A    between atoms: C_13  and  C_15
REMARK                            x       y       z     vdW  Elec       q    Type
REMARK                         _______ _______ _______ _____ _____    ______ ____
ROOT
ATOM      1  C   UNL     1       4.362   4.056  17.968  0.00  0.00    +0.000 C 
ATOM      2  O   UNL     1       4.047   3.450  16.939  0.00  0.00    +0.000 OA
ATOM      3  N   UNL     1       5.242   5.137  17.934  0.00  0.00    +0.000 N 
ATOM      4  C   UNL     1       5.620   5.702  16.642  0.00  0.00    +0.000 C 
ATOM      5  C   UNL     1       7.136   5.793  16.506  0.00  0.00    +0.000 C 
ATOM      6  C   UNL     1       7.782   6.552  17.679  0.00  0.00    +0.000 C 
ATOM      7  C   UNL     1       7.318   5.921  19.005  0.00  0.00    +0.000 C 
ATOM      8  C   UNL     1       5.792   5.815  19.109  0.00  0.00    +0.000 C 
ENDROOT
BRANCH   1   9
ATOM      9  C   UNL     1       3.744   3.666  19.336  0.00  0.00    +0.000 C 
ATOM     10  C   UNL     1       4.186   2.278  19.806  0.00  0.00    +0.000 C 
BRANCH   9  12
ATOM     11  C   UNL     1       1.648   2.567  19.722  0.00  0.00    +0.000 C 
ATOM     12  O   UNL     1       2.317   3.776  19.376  0.00  0.00    +0.000 OA
ENDBRANCH   9  12
ENDBRANCH   1   9
BRANCH   6  13
ATOM     13  C   UNL     1       7.485   8.062  17.661  0.00  0.00    +0.000 C 
BRANCH  13  14
ATOM     14  N   UNL     1       8.492   8.832  18.360  0.00  0.00    +0.000 N 
ATOM     15  C   UNL     1       8.586  10.199  18.237  0.00  0.00    +0.000 C 
ATOM     16  O   UNL     1       7.830  10.862  17.536  0.00  0.00    +0.000 OA
ATOM     17  H   UNL     1       9.099   8.349  19.006  0.00  0.00    +0.000 HD
BRANCH  15  18
ATOM     18  C   UNL     1       9.668  10.804  19.002  0.00  0.00    +0.000 A 
ATOM     19  C   UNL     1      11.017  11.113  18.650  0.00  0.00    +0.000 A 
ATOM     20  C   UNL     1      11.591  11.687  19.760  0.00  0.00    +0.000 A 
ATOM     21  O   UNL     1      10.696  11.756  20.775  0.00  0.00    +0.000 OA
ATOM     22  C   UNL     1       9.537  11.224  20.312  0.00  0.00    +0.000 A 
ENDBRANCH  15  18
ENDBRANCH  13  14
ENDBRANCH   6  13
TORSDOF 5
ENDMDL
MODEL 5
REMARK VINA RESULT:      -6.4      1.414      1.638
REMARK  Name = 
REMARK  7 active torsions:
REMARK  status: ('A' for Active; 'I' for Inactive)
REMARK    1  A    between atoms: C_1  and  O_2
REMARK    2  A    between atoms: O_2  and  C_3
REMARK    3  A    between atoms: C_3  and  C_4
REMARK    4  A    between atoms: C_3  and  C_5
REMARK    5  A    between atoms: C_10  and  C_11
REMARK    6  A    between atoms: C_11  and  N_12
REMARK    7  A    between atoms: C_13  and  C_15
REMARK                            x       y       z     vdW  Elec       q    Type
REMARK                         _______ _______ _______ _____ _____    ______ ____
ROOT
ATOM      1  C   UNL     1       0.960   9.723  19.316  0.00  0.00    +0.000 C 
ATOM      2  O   UNL     1       0.777  10.226  18.203  0.00  0.00    +0.000 OA
ATOM      3  N   UNL     1       1.699   8.551  19.472  0.00  0.00    +0.000 N 
ATOM      4  C   UNL     1       2.457   8.036  18.336  0.00  0.00    +0.000 C 
ATOM      5  C   UNL     1       2.130   6.569  18.078  0.00  0.00    +0.000 C 
ATOM      6  C   UNL     1       2.316   5.702  19.337  0.00  0.00    +0.000 C 
ATOM      7  C   UNL     1       1.514   6.319  20.498  0.00  0.00    +0.000 C 
ATOM      8  C   UNL     1       1.839   7.801  20.721  0.00  0.00    +0.000 C 
ENDROOT
BRANCH   1   9
ATOM      9  C   UNL     1       0.412  10.411  20.595  0.00  0.00    +0.000 C 
ATOM     10  C   UNL     1      -0.991  10.990  20.395  0.00  0.00    +0.000 C 
BRANCH   9  12
ATOM     11  C   UNL     1       0.806  12.738  21.017  0.00  0.00    +0.000 C 
ATOM     12  O   UNL     1       1.291  11.404  21.135  0.00  0.00    +0.000 OA
ENDBRANCH   9  12
ENDBRANCH   1   9
BRANCH   6  13
ATOM     13  C   UNL     1       3.792   5.516  19.732  0.00  0.00    +0.000 C 
BRANCH  13  14
ATOM     14  N   UNL     1       4.670   5.461  18.582  0.00  0.00    +0.000 N 
ATOM     15  C   UNL     1       4.905   4.293  17.896  0.00  0.00    +0.000 C 
ATOM     16  O   UNL     1       4.393   3.221  18.199  0.00  0.00    +0.000 OA
ATOM     17  H   UNL     1       5.066   6.325  18.242  0.00  0.00    +0.000 HD
BRANCH  15  18
ATOM     18  C   UNL     1       5.827   4.423  16.775  0.00  0.00    +0.000 A 
ATOM     19  C   UNL     1       5.603   4.460  15.365  0.00  0.00    +0.000 A 
ATOM     20  C   UNL     1       6.835   4.609  14.774  0.00  0.00    +0.000 A 
ATOM     21  O   UNL     1       7.808   4.667  15.716  0.00  0.00    +0.000 OA
ATOM     22  C   UNL     1       7.195   4.557  16.921  0.00  0.00    +0.000 A 
ENDBRANCH  15  18
ENDBRANCH  13  14
ENDBRANCH   6  13
TORSDOF 5
ENDMDL
MODEL 6
REMARK VINA RESULT:      -6.3      1.726      6.211
REMARK  Name = 
REMARK  7 active torsions:
REMARK  status: ('A' for Active; 'I' for Inactive)
REMARK    1  A    between atoms: C_1  and  O_2
REMARK    2  A    between atoms: O_2  and  C_3
REMARK    3  A    between atoms: C_3  and  C_4
REMARK    4  A    between atoms: C_3  and  C_5
REMARK    5  A    between atoms: C_10  and  C_11
REMARK    6  A    between atoms: C_11  and  N_12
REMARK    7  A    between atoms: C_13  and  C_15
REMARK                            x       y       z     vdW  Elec       q    Type
REMARK                         _______ _______ _______ _____ _____    ______ ____
ROOT
ATOM      1  C   UNL     1       6.151   4.625  17.759  0.00  0.00    +0.000 C 
ATOM      2  O   UNL     1       7.183   4.225  18.307  0.00  0.00    +0.000 OA
ATOM      3  N   UNL     1       4.896   4.150  18.138  0.00  0.00    +0.000 N 
ATOM      4  C   UNL     1       4.780   3.342  19.348  0.00  0.00    +0.000 C 
ATOM      5  C   UNL     1       4.044   2.036  19.067  0.00  0.00    +0.000 C 
ATOM      6  C   UNL     1       2.678   2.271  18.398  0.00  0.00    +0.000 C 
ATOM      7  C   UNL     1       2.872   3.151  17.149  0.00  0.00    +0.000 C 
ATOM      8  C   UNL     1       3.638   4.445  17.449  0.00  0.00    +0.000 C 
ENDROOT
BRANCH   1   9
ATOM      9  C   UNL     1       6.211   5.715  16.656  0.00  0.00    +0.000 C 
ATOM     10  C   UNL     1       5.873   5.166  15.268  0.00  0.00    +0.000 C 
BRANCH   9  12
ATOM     11  C   UNL     1       7.522   7.520  17.535  0.00  0.00    +0.000 C 
ATOM     12  O   UNL     1       7.452   6.430  16.622  0.00  0.00    +0.000 OA
ENDBRANCH   9  12
ENDBRANCH   1   9
BRANCH   6  13
ATOM     13  C   UNL     1       1.637   2.892  19.346  0.00  0.00    +0.000 C 
BRANCH  13  14
ATOM     14  N   UNL     1       1.616   4.338  19.274  0.00  0.00    +0.000 N 
ATOM     15  C   UNL     1       1.927   5.129  20.355  0.00  0.00    +0.000 C 
ATOM     16  O   UNL     1       2.246   4.676  21.448  0.00  0.00    +0.000 OA
ATOM     17  H   UNL     1       1.430   4.769  18.381  0.00  0.00    +0.000 HD
BRANCH  15  18
ATOM     18  C   UNL     1       1.840   6.562  20.103  0.00  0.00    +0.000 A 
ATOM     19  C   UNL     1       1.338   7.633  20.902  0.00  0.00    +0.000 A 
ATOM     20  C   UNL     1       1.514   8.785  20.171  0.00  0.00    +0.000 A 
ATOM     21  O   UNL     1       2.089   8.504  18.976  0.00  0.00    +0.000 OA
ATOM     22  C   UNL     1       2.286   7.163  18.941  0.00  0.00    +0.000 A 
ENDBRANCH  15  18
ENDBRANCH  13  14
ENDBRANCH   6  13
TORSDOF 5
ENDMDL
MODEL 7
REMARK VINA RESULT:      -6.3      3.337      7.841
REMARK  Name = 
REMARK  7 active torsions:
REMARK  status: ('A' for Active; 'I' for Inactive)
REMARK    1  A    between atoms: C_1  and  O_2
REMARK    2  A    between atoms: O_2  and  C_3
REMARK    3  A    between atoms: C_3  and  C_4
REMARK    4  A    between atoms: C_3  and  C_5
REMARK    5  A    between atoms: C_10  and  C_11
REMARK    6  A    between atoms: C_11  and  N_12
REMARK    7  A    between atoms: C_13  and  C_15
REMARK                            x       y       z     vdW  Elec       q    Type
REMARK                         _______ _______ _______ _____ _____    ______ ____
ROOT
ATOM      1  C   UNL     1       6.806   4.784  13.921  0.00  0.00    +0.000 C 
ATOM      2  O   UNL     1       7.661   5.502  13.391  0.00  0.00    +0.000 OA
ATOM      3  N   UNL     1       6.320   5.055  15.199  0.00  0.00    +0.000 N 
ATOM      4  C   UNL     1       6.655   6.329  15.828  0.00  0.00    +0.000 C 
ATOM      5  C   UNL     1       7.240   6.116  17.220  0.00  0.00    +0.000 C 
ATOM      6  C   UNL     1       6.324   5.257  18.111  0.00  0.00    +0.000 C 
ATOM      7  C   UNL     1       5.990   3.946  17.374  0.00  0.00    +0.000 C 
ATOM      8  C   UNL     1       5.429   4.183  15.966  0.00  0.00    +0.000 C 
ENDROOT
BRANCH   1   9
ATOM      9  C   UNL     1       6.204   3.576  13.157  0.00  0.00    +0.000 C 
ATOM     10  C   UNL     1       7.012   3.206  11.911  0.00  0.00    +0.000 C 
BRANCH   9  12
ATOM     11  C   UNL     1       4.462   3.217  11.548  0.00  0.00    +0.000 C 
ATOM     12  O   UNL     1       4.820   3.737  12.825  0.00  0.00    +0.000 OA
ENDBRANCH   9  12
ENDBRANCH   1   9
BRANCH   6  13
ATOM     13  C   UNL     1       5.037   5.984  18.539  0.00  0.00    +0.000 C 
BRANCH  13  14
ATOM     14  N   UNL     1       4.219   5.185  19.427  0.00  0.00    +0.000 N 
ATOM     15  C   UNL     1       2.967   4.742  19.068  0.00  0.00    +0.000 C 
ATOM     16  O   UNL     1       2.456   4.984  17.981  0.00  0.00    +0.000 OA
ATOM     17  H   UNL     1       4.615   4.895  20.308  0.00  0.00    +0.000 HD
BRANCH  15  18
ATOM     18  C   UNL     1       2.283   3.963  20.093  0.00  0.00    +0.000 A 
ATOM     19  C   UNL     1       1.177   3.064  20.015  0.00  0.00    +0.000 A 
ATOM     20  C   UNL     1       0.956   2.601  21.291  0.00  0.00    +0.000 A 
ATOM     21  O   UNL     1       1.846   3.149  22.154  0.00  0.00    +0.000 OA
ATOM     22  C   UNL     1       2.646   3.968  21.426  0.00  0.00    +0.000 A 
ENDBRANCH  15  18
ENDBRANCH  13  14
ENDBRANCH   6  13
TORSDOF 5
ENDMDL
MODEL 8
REMARK VINA RESULT:      -6.2      3.528      5.583
REMARK  Name = 
REMARK  7 active torsions:
REMARK  status: ('A' for Active; 'I' for Inactive)
REMARK    1  A    between atoms: C_1  and  O_2
REMARK    2  A    between atoms: O_2  and  C_3
REMARK    3  A    between atoms: C_3  and  C_4
REMARK    4  A    between atoms: C_3  and  C_5
REMARK    5  A    between atoms: C_10  and  C_11
REMARK    6  A    between atoms: C_11  and  N_12
REMARK    7  A    between atoms: C_13  and  C_15
REMARK                            x       y       z     vdW  Elec       q    Type
REMARK                         _______ _______ _______ _____ _____    ______ ____
ROOT
ATOM      1  C   UNL     1       3.487   4.307  19.054  0.00  0.00    +0.000 C 
ATOM      2  O   UNL     1       3.626   4.487  20.268  0.00  0.00    +0.000 OA
ATOM      3  N   UNL     1       4.517   4.582  18.155  0.00  0.00    +0.000 N 
ATOM      4  C   UNL     1       5.851   4.872  18.674  0.00  0.00    +0.000 C 
ATOM      5  C   UNL     1       6.393   6.174  18.096  0.00  0.00    +0.000 C 
ATOM      6  C   UNL     1       6.358   6.188  16.557  0.00  0.00    +0.000 C 
ATOM      7  C   UNL     1       4.933   5.848  16.082  0.00  0.00    +0.000 C 
ATOM      8  C   UNL     1       4.397   4.549  16.696  0.00  0.00    +0.000 C 
ENDROOT
BRANCH   1   9
ATOM      9  C   UNL     1       2.170   3.715  18.487  0.00  0.00    +0.000 C 
ATOM     10  C   UNL     1       1.042   3.695  19.522  0.00  0.00    +0.000 C 
BRANCH   9  12
ATOM     11  C   UNL     1       3.095   1.511  18.680  0.00  0.00    +0.000 C 
ATOM     12  O   UNL     1       2.328   2.420  17.896  0.00  0.00    +0.000 OA
ENDBRANCH   9  12
ENDBRANCH   1   9
BRANCH   6  13
ATOM     13  C   UNL     1       7.386   5.238  15.918  0.00  0.00    +0.000 C 
BRANCH  13  14
ATOM     14  N   UNL     1       6.803   4.405  14.887  0.00  0.00    +0.000 N 
ATOM     15  C   UNL     1       7.040   4.622  13.550  0.00  0.00    +0.000 C 
ATOM     16  O   UNL     1       7.757   5.525  13.134  0.00  0.00    +0.000 OA
ATOM     17  H   UNL     1       6.260   3.603  15.171  0.00  0.00    +0.000 HD
BRANCH  15  18
ATOM     18  C   UNL     1       6.359   3.695  12.655  0.00  0.00    +0.000 A 
ATOM     19  C   UNL     1       6.842   2.586  11.897  0.00  0.00    +0.000 A 
ATOM     20  C   UNL     1       5.757   2.060  11.235  0.00  0.00    +0.000 A 
ATOM     21  O   UNL     1       4.637   2.764  11.528  0.00  0.00    +0.000 OA
ATOM     22  C   UNL     1       5.005   3.747  12.386  0.00  0.00    +0.000 A 
ENDBRANCH  15  18
ENDBRANCH  13  14
ENDBRANCH   6  13
TORSDOF 5
ENDMDL
MODEL 9
REMARK VINA RESULT:      -6.2      1.673      7.156
REMARK  Name = 
REMARK  7 active torsions:
REMARK  status: ('A' for Active; 'I' for Inactive)
REMARK    1  A    between atoms: C_1  and  O_2
REMARK    2  A    between atoms: O_2  and  C_3
REMARK    3  A    between atoms: C_3  and  C_4
REMARK    4  A    between atoms: C_3  and  C_5
REMARK    5  A    between atoms: C_10  and  C_11
REMARK    6  A    between atoms: C_11  and  N_12
REMARK    7  A    between atoms: C_13  and  C_15
REMARK                            x       y       z     vdW  Elec       q    Type
REMARK                         _______ _______ _______ _____ _____    ______ ____
ROOT
ATOM      1  C   UNL     1       5.921   5.078  17.602  0.00  0.00    +0.000 C 
ATOM      2  O   UNL     1       6.604   4.098  17.916  0.00  0.00    +0.000 OA
ATOM      3  N   UNL     1       4.828   5.479  18.370  0.00  0.00    +0.000 N 
ATOM      4  C   UNL     1       4.625   4.874  19.683  0.00  0.00    +0.000 C 
ATOM      5  C   UNL     1       3.208   4.329  19.822  0.00  0.00    +0.000 C 
ATOM      6  C   UNL     1       2.142   5.394  19.508  0.00  0.00    +0.000 C 
ATOM      7  C   UNL     1       2.434   6.008  18.126  0.00  0.00    +0.000 C 
ATOM      8  C   UNL     1       3.872   6.524  17.998  0.00  0.00    +0.000 C 
ENDROOT
BRANCH   1   9
ATOM      9  C   UNL     1       6.287   5.933  16.360  0.00  0.00    +0.000 C 
ATOM     10  C   UNL     1       6.213   5.136  15.055  0.00  0.00    +0.000 C 
BRANCH   9  12
ATOM     11  C   UNL     1       7.612   7.570  17.506  0.00  0.00    +0.000 C 
ATOM     12  O   UNL     1       7.552   6.594  16.470  0.00  0.00    +0.000 OA
ENDBRANCH   9  12
ENDBRANCH   1   9
BRANCH   6  13
ATOM     13  C   UNL     1       2.045   6.492  20.582  0.00  0.00    +0.000 C 
BRANCH  13  14
ATOM     14  N   UNL     1       1.538   7.740  20.052  0.00  0.00    +0.000 N 
ATOM     15  C   UNL     1       1.149   8.777  20.868  0.00  0.00    +0.000 C 
ATOM     16  O   UNL     1       1.206   8.726  22.092  0.00  0.00    +0.000 OA
ATOM     17  H   UNL     1       1.534   7.868  19.052  0.00  0.00    +0.000 HD
BRANCH  15  18
ATOM     18  C   UNL     1       0.651   9.951  20.162  0.00  0.00    +0.000 A 
ATOM     19  C   UNL     1       0.027  10.091  18.886  0.00  0.00    +0.000 A 
ATOM     20  C   UNL     1      -0.248  11.430  18.728  0.00  0.00    +0.000 A 
ATOM     21  O   UNL     1       0.163  12.129  19.814  0.00  0.00    +0.000 OA
ATOM     22  C   UNL     1       0.702  11.232  20.677  0.00  0.00    +0.000 A 
ENDBRANCH  15  18
ENDBRANCH  13  14
ENDBRANCH   6  13
TORSDOF 5
ENDMDL
