MODEL 1
REMARK VINA RESULT:      -8.0      0.000      0.000
REMARK  Name = 
REMARK  4 active torsions:
REMARK  status: ('A' for Active; 'I' for Inactive)
REMARK    1  A    between atoms: C_1  and  N_2
REMARK    2  A    between atoms: C_7  and  C_8
REMARK    3  A    between atoms: C_8  and  O_9
REMARK    4  A    between atoms: O_9  and  C_10
REMARK                            x       y       z     vdW  Elec       q    Type
REMARK                         _______ _______ _______ _____ _____    ______ ____
ROOT
ATOM      1  C   UNL     1       3.447   3.280  17.454  0.00  0.00    +0.000 C 
ATOM      2  N   UNL     1       4.684   3.970  17.155  0.00  0.00    +0.000 N 
ATOM      3  C   UNL     1       4.900   4.568  15.847  0.00  0.00    +0.000 C 
ATOM      4  C   UNL     1       5.159   6.057  15.975  0.00  0.00    +0.000 C 
ATOM      5  C   UNL     1       6.223   6.308  17.005  0.00  0.00    +0.000 A 
ATOM      6  N   UNL     1       6.852   7.508  16.938  0.00  0.00    +0.000 NA
ATOM      7  C   UNL     1       7.751   7.808  17.913  0.00  0.00    +0.000 A 
ATOM      8  C   UNL     1       8.081   6.915  18.932  0.00  0.00    +0.000 A 
ATOM      9  C   UNL     1       7.418   5.693  18.994  0.00  0.00    +0.000 A 
ATOM     10  C   UNL     1       6.458   5.391  18.030  0.00  0.00    +0.000 A 
ATOM     11  C   UNL     1       5.578   4.207  18.191  0.00  0.00    +0.000 C 
ATOM     12  O   UNL     1       5.590   3.567  19.238  0.00  0.00    +0.000 OA
ENDROOT
BRANCH   7  13
ATOM     13  C   UNL     1       8.325   9.208  17.919  0.00  0.00    +0.000 C 
BRANCH  13  14
ATOM     14  O   UNL     1       9.194   9.385  19.036  0.00  0.00    +0.000 OA
BRANCH  14  15
ATOM     15  C   UNL     1       9.660  10.659  19.230  0.00  0.00    +0.000 A 
ATOM     16  C   UNL     1       9.594  11.117  20.550  0.00  0.00    +0.000 A 
ATOM     17  C   UNL     1      10.016  12.408  20.878  0.00  0.00    +0.000 A 
ATOM     18  C   UNL     1      10.504  13.250  19.883  0.00  0.00    +0.000 A 
ATOM     19  C   UNL     1      10.573  12.792  18.571  0.00  0.00    +0.000 A 
ATOM     20  F   UNL     1      11.043  13.598  17.616  0.00  0.00    +0.000 F 
ATOM     21  C   UNL     1      10.158  11.505  18.240  0.00  0.00    +0.000 A 
ENDBRANCH  14  15
ENDBRANCH  13  14
ENDBRANCH   7  13
TORSDOF 3
ENDMDL
MODEL 2
REMARK VINA RESULT:      -7.6      6.017      7.489
REMARK  Name = 
REMARK  4 active torsions:
REMARK  status: ('A' for Active; 'I' for Inactive)
REMARK    1  A    between atoms: C_1  and  N_2
REMARK    2  A    between atoms: C_7  and  C_8
REMARK    3  A    between atoms: C_8  and  O_9
REMARK    4  A    between atoms: O_9  and  C_10
REMARK                            x       y       z     vdW  Elec       q    Type
REMARK                         _______ _______ _______ _____ _____    ______ ____
ROOT
ATOM      1  C   UNL     1       1.167   2.608  21.412  0.00  0.00    +0.000 C 
ATOM      2  N   UNL     1       2.326   3.316  20.911  0.00  0.00    +0.000 N 
ATOM      3  C   UNL     1       3.589   2.621  20.711  0.00  0.00    +0.000 C 
ATOM      4  C   UNL     1       4.032   2.721  19.263  0.00  0.00    +0.000 C 
ATOM      5  C   UNL     1       3.980   4.152  18.806  0.00  0.00    +0.000 A 
ATOM      6  N   UNL     1       4.722   4.461  17.714  0.00  0.00    +0.000 NA
ATOM      7  C   UNL     1       4.623   5.721  17.215  0.00  0.00    +0.000 A 
ATOM      8  C   UNL     1       3.836   6.706  17.812  0.00  0.00    +0.000 A 
ATOM      9  C   UNL     1       3.071   6.370  18.925  0.00  0.00    +0.000 A 
ATOM     10  C   UNL     1       3.125   5.068  19.419  0.00  0.00    +0.000 A 
ATOM     11  C   UNL     1       2.162   4.617  20.456  0.00  0.00    +0.000 C 
ATOM     12  O   UNL     1       1.225   5.338  20.781  0.00  0.00    +0.000 OA
ENDROOT
BRANCH   7  13
ATOM     13  C   UNL     1       5.328   6.006  15.907  0.00  0.00    +0.000 C 
BRANCH  13  14
ATOM     14  O   UNL     1       6.382   5.070  15.696  0.00  0.00    +0.000 OA
BRANCH  14  15
ATOM     15  C   UNL     1       6.557   4.654  14.402  0.00  0.00    +0.000 A 
ATOM     16  C   UNL     1       7.556   5.331  13.694  0.00  0.00    +0.000 A 
ATOM     17  C   UNL     1       7.818   5.018  12.358  0.00  0.00    +0.000 A 
ATOM     18  C   UNL     1       7.077   4.027  11.721  0.00  0.00    +0.000 A 
ATOM     19  C   UNL     1       6.087   3.351  12.427  0.00  0.00    +0.000 A 
ATOM     20  F   UNL     1       5.377   2.399  11.818  0.00  0.00    +0.000 F 
ATOM     21  C   UNL     1       5.825   3.656  13.760  0.00  0.00    +0.000 A 
ENDBRANCH  14  15
ENDBRANCH  13  14
ENDBRANCH   7  13
TORSDOF 3
ENDMDL
MODEL 3
REMARK VINA RESULT:      -7.3      4.813      6.653
REMARK  Name = 
REMARK  4 active torsions:
REMARK  status: ('A' for Active; 'I' for Inactive)
REMARK    1  A    between atoms: C_1  and  N_2
REMARK    2  A    between atoms: C_7  and  C_8
REMARK    3  A    between atoms: C_8  and  O_9
REMARK    4  A    between atoms: O_9  and  C_10
REMARK                            x       y       z     vdW  Elec       q    Type
REMARK                         _______ _______ _______ _____ _____    ______ ____
ROOT
ATOM      1  C   UNL     1       1.014  11.246  20.835  0.00  0.00    +0.000 C 
ATOM      2  N   UNL     1       0.909   9.992  20.118  0.00  0.00    +0.000 N 
ATOM      3  C   UNL     1       0.796   9.976  18.668  0.00  0.00    +0.000 C 
ATOM      4  C   UNL     1       1.937   9.189  18.050  0.00  0.00    +0.000 C 
ATOM      5  C   UNL     1       2.064   7.851  18.723  0.00  0.00    +0.000 A 
ATOM      6  N   UNL     1       2.731   6.893  18.034  0.00  0.00    +0.000 NA
ATOM      7  C   UNL     1       2.949   5.702  18.651  0.00  0.00    +0.000 A 
ATOM      8  C   UNL     1       2.470   5.421  19.931  0.00  0.00    +0.000 A 
ATOM      9  C   UNL     1       1.798   6.418  20.631  0.00  0.00    +0.000 A 
ATOM     10  C   UNL     1       1.610   7.661  20.029  0.00  0.00    +0.000 A 
ATOM     11  C   UNL     1       1.102   8.809  20.820  0.00  0.00    +0.000 C 
ATOM     12  O   UNL     1       0.980   8.714  22.037  0.00  0.00    +0.000 OA
ENDROOT
BRANCH   7  13
ATOM     13  C   UNL     1       3.830   4.702  17.937  0.00  0.00    +0.000 C 
BRANCH  13  14
ATOM     14  O   UNL     1       4.732   5.372  17.057  0.00  0.00    +0.000 OA
BRANCH  14  15
ATOM     15  C   UNL     1       5.873   5.861  17.637  0.00  0.00    +0.000 A 
ATOM     16  C   UNL     1       6.373   7.033  17.060  0.00  0.00    +0.000 A 
ATOM     17  C   UNL     1       7.545   7.621  17.542  0.00  0.00    +0.000 A 
ATOM     18  C   UNL     1       8.225   7.036  18.606  0.00  0.00    +0.000 A 
ATOM     19  C   UNL     1       7.725   5.873  19.183  0.00  0.00    +0.000 A 
ATOM     20  F   UNL     1       8.376   5.311  20.205  0.00  0.00    +0.000 F 
ATOM     21  C   UNL     1       6.556   5.285  18.708  0.00  0.00    +0.000 A 
ENDBRANCH  14  15
ENDBRANCH  13  14
ENDBRANCH   7  13
TORSDOF 3
ENDMDL
MODEL 4
REMARK VINA RESULT:      -7.3      5.721      7.304
REMARK  Name = 
REMARK  4 active torsions:
REMARK  status: ('A' for Active; 'I' for Inactive)
REMARK    1  A    between atoms: C_1  and  N_2
REMARK    2  A    between atoms: C_7  and  C_8
REMARK    3  A    between atoms: C_8  and  O_9
REMARK    4  A    between atoms: O_9  and  C_10
REMARK                            x       y       z     vdW  Elec       q    Type
REMARK                         _______ _______ _______ _____ _____    ______ ____
ROOT
ATOM      1  C   UNL     1       0.505   3.322  19.887  0.00  0.00    +0.000 C 
ATOM      2  N   UNL     1       1.925   3.125  19.684  0.00  0.00    +0.000 N 
ATOM      3  C   UNL     1       2.416   1.948  18.982  0.00  0.00    +0.000 C 
ATOM      4  C   UNL     1       3.219   2.350  17.759  0.00  0.00    +0.000 C 
ATOM      5  C   UNL     1       4.248   3.379  18.135  0.00  0.00    +0.000 A 
ATOM      6  N   UNL     1       5.291   3.524  17.280  0.00  0.00    +0.000 NA
ATOM      7  C   UNL     1       6.190   4.512  17.537  0.00  0.00    +0.000 A 
ATOM      8  C   UNL     1       6.102   5.332  18.661  0.00  0.00    +0.000 A 
ATOM      9  C   UNL     1       5.019   5.180  19.522  0.00  0.00    +0.000 A 
ATOM     10  C   UNL     1       4.064   4.203  19.245  0.00  0.00    +0.000 A 
ATOM     11  C   UNL     1       2.791   4.160  20.007  0.00  0.00    +0.000 C 
ATOM     12  O   UNL     1       2.507   5.065  20.785  0.00  0.00    +0.000 OA
ENDROOT
BRANCH   7  13
ATOM     13  C   UNL     1       7.255   4.768  16.494  0.00  0.00    +0.000 C 
BRANCH  13  14
ATOM     14  O   UNL     1       6.721   5.531  15.414  0.00  0.00    +0.000 OA
BRANCH  14  15
ATOM     15  C   UNL     1       6.740   4.918  14.188  0.00  0.00    +0.000 A 
ATOM     16  C   UNL     1       7.671   5.439  13.283  0.00  0.00    +0.000 A 
ATOM     17  C   UNL     1       7.776   4.918  11.990  0.00  0.00    +0.000 A 
ATOM     18  C   UNL     1       6.944   3.875  11.596  0.00  0.00    +0.000 A 
ATOM     19  C   UNL     1       6.022   3.355  12.498  0.00  0.00    +0.000 A 
ATOM     20  F   UNL     1       5.224   2.352  12.121  0.00  0.00    +0.000 F 
ATOM     21  C   UNL     1       5.916   3.867  13.788  0.00  0.00    +0.000 A 
ENDBRANCH  14  15
ENDBRANCH  13  14
ENDBRANCH   7  13
TORSDOF 3
ENDMDL
MODEL 5
REMARK VINA RESULT:      -7.2      5.607      7.123
REMARK  Name = 
REMARK  4 active torsions:
REMARK  status: ('A' for Active; 'I' for Inactive)
REMARK    1  A    between atoms: C_1  and  N_2
REMARK    2  A    between atoms: C_7  and  C_8
REMARK    3  A    between atoms: C_8  and  O_9
REMARK    4  A    between atoms: O_9  and  C_10
REMARK                            x       y       z     vdW  Elec       q    Type
REMARK                         _______ _______ _______ _____ _____    ______ ____
ROOT
ATOM      1  C   UNL     1       0.901   2.777  20.794  0.00  0.00    +0.000 C 
ATOM      2  N   UNL     1       1.885   2.768  19.732  0.00  0.00    +0.000 N 
ATOM      3  C   UNL     1       1.469   2.727  18.338  0.00  0.00    +0.000 C 
ATOM      4  C   UNL     1       1.998   3.933  17.585  0.00  0.00    +0.000 C 
ATOM      5  C   UNL     1       3.471   4.091  17.836  0.00  0.00    +0.000 A 
ATOM      6  N   UNL     1       4.156   4.837  16.934  0.00  0.00    +0.000 NA
ATOM      7  C   UNL     1       5.471   5.082  17.181  0.00  0.00    +0.000 A 
ATOM      8  C   UNL     1       6.137   4.556  18.287  0.00  0.00    +0.000 A 
ATOM      9  C   UNL     1       5.418   3.803  19.210  0.00  0.00    +0.000 A 
ATOM     10  C   UNL     1       4.058   3.584  18.995  0.00  0.00    +0.000 A 
ATOM     11  C   UNL     1       3.216   2.983  20.060  0.00  0.00    +0.000 C 
ATOM     12  O   UNL     1       3.676   2.808  21.184  0.00  0.00    +0.000 OA
ENDROOT
BRANCH   7  13
ATOM     13  C   UNL     1       6.182   6.045  16.256  0.00  0.00    +0.000 C 
BRANCH  13  14
ATOM     14  O   UNL     1       7.320   5.419  15.668  0.00  0.00    +0.000 OA
BRANCH  14  15
ATOM     15  C   UNL     1       7.138   4.925  14.402  0.00  0.00    +0.000 A 
ATOM     16  C   UNL     1       7.874   5.574  13.404  0.00  0.00    +0.000 A 
ATOM     17  C   UNL     1       7.761   5.182  12.068  0.00  0.00    +0.000 A 
ATOM     18  C   UNL     1       6.906   4.139  11.723  0.00  0.00    +0.000 A 
ATOM     19  C   UNL     1       6.179   3.492  12.716  0.00  0.00    +0.000 A 
ATOM     20  F   UNL     1       5.360   2.490  12.387  0.00  0.00    +0.000 F 
ATOM     21  C   UNL     1       6.291   3.876  14.050  0.00  0.00    +0.000 A 
ENDBRANCH  14  15
ENDBRANCH  13  14
ENDBRANCH   7  13
TORSDOF 3
ENDMDL
MODEL 6
REMARK VINA RESULT:      -7.2      5.190      7.566
REMARK  Name = 
REMARK  4 active torsions:
REMARK  status: ('A' for Active; 'I' for Inactive)
REMARK    1  A    between atoms: C_1  and  N_2
REMARK    2  A    between atoms: C_7  and  C_8
REMARK    3  A    between atoms: C_8  and  O_9
REMARK    4  A    between atoms: O_9  and  C_10
REMARK                            x       y       z     vdW  Elec       q    Type
REMARK                         _______ _______ _______ _____ _____    ______ ____
ROOT
ATOM      1  C   UNL     1      -0.660  11.294  20.421  0.00  0.00    +0.000 C 
ATOM      2  N   UNL     1       0.488  10.412  20.396  0.00  0.00    +0.000 N 
ATOM      3  C   UNL     1       0.999   9.828  21.627  0.00  0.00    +0.000 C 
ATOM      4  C   UNL     1       0.974   8.313  21.551  0.00  0.00    +0.000 C 
ATOM      5  C   UNL     1       1.621   7.851  20.276  0.00  0.00    +0.000 A 
ATOM      6  N   UNL     1       2.048   6.564  20.252  0.00  0.00    +0.000 NA
ATOM      7  C   UNL     1       2.550   6.083  19.083  0.00  0.00    +0.000 A 
ATOM      8  C   UNL     1       2.685   6.874  17.943  0.00  0.00    +0.000 A 
ATOM      9  C   UNL     1       2.231   8.189  17.979  0.00  0.00    +0.000 A 
ATOM     10  C   UNL     1       1.670   8.682  19.156  0.00  0.00    +0.000 A 
ATOM     11  C   UNL     1       0.976   9.994  19.166  0.00  0.00    +0.000 C 
ATOM     12  O   UNL     1       0.766  10.588  18.114  0.00  0.00    +0.000 OA
ENDROOT
BRANCH   7  13
ATOM     13  C   UNL     1       2.872   4.607  19.022  0.00  0.00    +0.000 C 
BRANCH  13  14
ATOM     14  O   UNL     1       4.137   4.349  19.629  0.00  0.00    +0.000 OA
BRANCH  14  15
ATOM     15  C   UNL     1       5.234   4.690  18.882  0.00  0.00    +0.000 A 
ATOM     16  C   UNL     1       5.247   4.173  17.582  0.00  0.00    +0.000 A 
ATOM     17  C   UNL     1       6.321   4.427  16.725  0.00  0.00    +0.000 A 
ATOM     18  C   UNL     1       7.391   5.199  17.167  0.00  0.00    +0.000 A 
ATOM     19  C   UNL     1       7.375   5.717  18.458  0.00  0.00    +0.000 A 
ATOM     20  F   UNL     1       8.401   6.459  18.883  0.00  0.00    +0.000 F 
ATOM     21  C   UNL     1       6.306   5.469  19.315  0.00  0.00    +0.000 A 
ENDBRANCH  14  15
ENDBRANCH  13  14
ENDBRANCH   7  13
TORSDOF 3
ENDMDL
MODEL 7
REMARK VINA RESULT:      -7.2      6.990      9.853
REMARK  Name = 
REMARK  4 active torsions:
REMARK  status: ('A' for Active; 'I' for Inactive)
REMARK    1  A    between atoms: C_1  and  N_2
REMARK    2  A    between atoms: C_7  and  C_8
REMARK    3  A    between atoms: C_8  and  O_9
REMARK    4  A    between atoms: O_9  and  C_10
REMARK                            x       y       z     vdW  Elec       q    Type
REMARK                         _______ _______ _______ _____ _____    ______ ____
ROOT
ATOM      1  C   UNL     1      -2.085  12.024  21.082  0.00  0.00    +0.000 C 
ATOM      2  N   UNL     1      -0.762  11.460  20.912  0.00  0.00    +0.000 N 
ATOM      3  C   UNL     1      -0.114  10.752  22.005  0.00  0.00    +0.000 C 
ATOM      4  C   UNL     1       0.217   9.328  21.598  0.00  0.00    +0.000 C 
ATOM      5  C   UNL     1       0.940   9.324  20.281  0.00  0.00    +0.000 A 
ATOM      6  N   UNL     1       1.658   8.210  19.993  0.00  0.00    +0.000 NA
ATOM      7  C   UNL     1       2.244   8.131  18.769  0.00  0.00    +0.000 A 
ATOM      8  C   UNL     1       2.176   9.165  17.836  0.00  0.00    +0.000 A 
ATOM      9  C   UNL     1       1.426  10.297  18.141  0.00  0.00    +0.000 A 
ATOM     10  C   UNL     1       0.778  10.371  19.373  0.00  0.00    +0.000 A 
ATOM     11  C   UNL     1      -0.204  11.450  19.641  0.00  0.00    +0.000 C 
ATOM     12  O   UNL     1      -0.561  12.198  18.737  0.00  0.00    +0.000 OA
ENDROOT
BRANCH   7  13
ATOM     13  C   UNL     1       2.905   6.821  18.401  0.00  0.00    +0.000 C 
BRANCH  13  14
ATOM     14  O   UNL     1       2.935   5.945  19.526  0.00  0.00    +0.000 OA
BRANCH  14  15
ATOM     15  C   UNL     1       2.384   4.706  19.329  0.00  0.00    +0.000 A 
ATOM     16  C   UNL     1       1.473   4.302  20.311  0.00  0.00    +0.000 A 
ATOM     17  C   UNL     1       0.858   3.050  20.240  0.00  0.00    +0.000 A 
ATOM     18  C   UNL     1       1.154   2.193  19.185  0.00  0.00    +0.000 A 
ATOM     19  C   UNL     1       2.056   2.597  18.206  0.00  0.00    +0.000 A 
ATOM     20  F   UNL     1       2.340   1.776  17.191  0.00  0.00    +0.000 F 
ATOM     21  C   UNL     1       2.669   3.845  18.270  0.00  0.00    +0.000 A 
ENDBRANCH  14  15
ENDBRANCH  13  14
ENDBRANCH   7  13
TORSDOF 3
ENDMDL
MODEL 8
REMARK VINA RESULT:      -7.2      3.704      5.440
REMARK  Name = 
REMARK  4 active torsions:
REMARK  status: ('A' for Active; 'I' for Inactive)
REMARK    1  A    between atoms: C_1  and  N_2
REMARK    2  A    between atoms: C_7  and  C_8
REMARK    3  A    between atoms: C_8  and  O_9
REMARK    4  A    between atoms: O_9  and  C_10
REMARK                            x       y       z     vdW  Elec       q    Type
REMARK                         _______ _______ _______ _____ _____    ______ ____
ROOT
ATOM      1  C   UNL     1       1.154   2.543  21.861  0.00  0.00    +0.000 C 
ATOM      2  N   UNL     1       2.303   3.126  21.198  0.00  0.00    +0.000 N 
ATOM      3  C   UNL     1       3.554   2.390  21.105  0.00  0.00    +0.000 C 
ATOM      4  C   UNL     1       3.956   2.198  19.655  0.00  0.00    +0.000 C 
ATOM      5  C   UNL     1       3.899   3.511  18.927  0.00  0.00    +0.000 A 
ATOM      6  N   UNL     1       4.611   3.590  17.775  0.00  0.00    +0.000 NA
ATOM      7  C   UNL     1       4.506   4.729  17.040  0.00  0.00    +0.000 A 
ATOM      8  C   UNL     1       3.743   5.820  17.453  0.00  0.00    +0.000 A 
ATOM      9  C   UNL     1       3.008   5.720  18.630  0.00  0.00    +0.000 A 
ATOM     10  C   UNL     1       3.068   4.540  19.370  0.00  0.00    +0.000 A 
ATOM     11  C   UNL     1       2.134   4.313  20.500  0.00  0.00    +0.000 C 
ATOM     12  O   UNL     1       1.210   5.095  20.703  0.00  0.00    +0.000 OA
ENDROOT
BRANCH   7  13
ATOM     13  C   UNL     1       5.174   4.742  15.683  0.00  0.00    +0.000 C 
BRANCH  13  14
ATOM     14  O   UNL     1       6.593   4.719  15.827  0.00  0.00    +0.000 OA
BRANCH  14  15
ATOM     15  C   UNL     1       7.109   5.586  16.755  0.00  0.00    +0.000 A 
ATOM     16  C   UNL     1       7.589   4.983  17.923  0.00  0.00    +0.000 A 
ATOM     17  C   UNL     1       8.120   5.758  18.958  0.00  0.00    +0.000 A 
ATOM     18  C   UNL     1       8.170   7.143  18.829  0.00  0.00    +0.000 A 
ATOM     19  C   UNL     1       7.697   7.741  17.666  0.00  0.00    +0.000 A 
ATOM     20  F   UNL     1       7.746   9.069  17.540  0.00  0.00    +0.000 F 
ATOM     21  C   UNL     1       7.171   6.973  16.630  0.00  0.00    +0.000 A 
ENDBRANCH  14  15
ENDBRANCH  13  14
ENDBRANCH   7  13
TORSDOF 3
ENDMDL
MODEL 9
REMARK VINA RESULT:      -7.1      6.014      8.203
REMARK  Name = 
REMARK  4 active torsions:
REMARK  status: ('A' for Active; 'I' for Inactive)
REMARK    1  A    between atoms: C_1  and  N_2
REMARK    2  A    between atoms: C_7  and  C_8
REMARK    3  A    between atoms: C_8  and  O_9
REMARK    4  A    between atoms: O_9  and  C_10
REMARK                            x       y       z     vdW  Elec       q    Type
REMARK                         _______ _______ _______ _____ _____    ______ ____
ROOT
ATOM      1  C   UNL     1      -1.893  11.853  20.261  0.00  0.00    +0.000 C 
ATOM      2  N   UNL     1      -0.574  11.256  20.242  0.00  0.00    +0.000 N 
ATOM      3  C   UNL     1       0.098  10.905  21.484  0.00  0.00    +0.000 C 
ATOM      4  C   UNL     1       0.420   9.423  21.517  0.00  0.00    +0.000 C 
ATOM      5  C   UNL     1       1.115   9.018  20.247  0.00  0.00    +0.000 A 
ATOM      6  N   UNL     1       1.826   7.864  20.293  0.00  0.00    +0.000 NA
ATOM      7  C   UNL     1       2.386   7.418  19.138  0.00  0.00    +0.000 A 
ATOM      8  C   UNL     1       2.298   8.124  17.939  0.00  0.00    +0.000 A 
ATOM      9  C   UNL     1       1.554   9.300  17.904  0.00  0.00    +0.000 A 
ATOM     10  C   UNL     1       0.933   9.745  19.070  0.00  0.00    +0.000 A 
ATOM     11  C   UNL     1      -0.044  10.861  19.022  0.00  0.00    +0.000 C 
ATOM     12  O   UNL     1      -0.420  11.305  17.941  0.00  0.00    +0.000 OA
ENDROOT
BRANCH   7  13
ATOM     13  C   UNL     1       3.038   6.053  19.167  0.00  0.00    +0.000 C 
BRANCH  13  14
ATOM     14  O   UNL     1       3.216   5.559  17.841  0.00  0.00    +0.000 OA
BRANCH  14  15
ATOM     15  C   UNL     1       4.510   5.298  17.473  0.00  0.00    +0.000 A 
ATOM     16  C   UNL     1       4.654   4.354  16.450  0.00  0.00    +0.000 A 
ATOM     17  C   UNL     1       5.922   3.982  15.998  0.00  0.00    +0.000 A 
ATOM     18  C   UNL     1       7.055   4.551  16.571  0.00  0.00    +0.000 A 
ATOM     19  C   UNL     1       6.911   5.493  17.585  0.00  0.00    +0.000 A 
ATOM     20  F   UNL     1       7.998   6.041  18.135  0.00  0.00    +0.000 F 
ATOM     21  C   UNL     1       5.650   5.870  18.036  0.00  0.00    +0.000 A 
ENDBRANCH  14  15
ENDBRANCH  13  14
ENDBRANCH   7  13
TORSDOF 3
ENDMDL
