MODEL 1
REMARK VINA RESULT:      -7.1      0.000      0.000
REMARK  Name = 
REMARK  10 active torsions:
REMARK  status: ('A' for Active; 'I' for Inactive)
REMARK    1  A    between atoms: N_1  and  C_2
REMARK    2  A    between atoms: C_2  and  C_3
REMARK    3  A    between atoms: C_3  and  C_4
REMARK    4  A    between atoms: C_4  and  C_5
REMARK    5  A    between atoms: C_5  and  N_6
REMARK    6  A    between atoms: N_6  and  C_7
REMARK    7  A    between atoms: C_7  and  C_8
REMARK    8  A    between atoms: C_11  and  C_12
REMARK    9  A    between atoms: C_12  and  N_13
REMARK   10  A    between atoms: C_14  and  C_16
REMARK                            x       y       z     vdW  Elec       q    Type
REMARK                         _______ _______ _______ _____ _____    ______ ____
ROOT
ATOM      1  C   UNL     1       6.167   4.575  15.509  0.00  0.00    +0.000 A 
ATOM      2  C   UNL     1       4.887   4.056  15.756  0.00  0.00    +0.000 A 
ATOM      3  C   UNL     1       4.350   4.063  17.045  0.00  0.00    +0.000 A 
ATOM      4  C   UNL     1       5.084   4.586  18.117  0.00  0.00    +0.000 A 
ATOM      5  C   UNL     1       6.377   5.070  17.880  0.00  0.00    +0.000 A 
ATOM      6  C   UNL     1       6.909   5.075  16.587  0.00  0.00    +0.000 A 
ENDROOT
BRANCH   1   7
ATOM      7  C   UNL     1       6.726   4.613  14.104  0.00  0.00    +0.000 C 
BRANCH   7   8
ATOM      8  N   UNL     1       6.436   3.364  13.410  0.00  0.00    +0.000 NA
ATOM      9  H   UNL     1       7.155   2.676  13.629  0.00  0.00    +0.000 HD
BRANCH   8  10
ATOM     10  C   UNL     1       6.344   3.529  11.965  0.00  0.00    +0.000 C 
BRANCH  10  11
ATOM     11  C   UNL     1       5.259   2.602  11.408  0.00  0.00    +0.000 C 
BRANCH  11  12
ATOM     12  C   UNL     1       3.857   3.224  11.479  0.00  0.00    +0.000 C 
BRANCH  12  13
ATOM     13  C   UNL     1       3.549   4.142  10.298  0.00  0.00    +0.000 C 
BRANCH  13  14
ATOM     14  N   UNL     1       2.902   3.420   9.209  0.00  0.00    +0.000 NA
ATOM     15  H   UNL     1       3.428   2.573   9.003  0.00  0.00    +0.000 HD
ATOM     16  H   UNL     1       2.933   3.988   8.361  0.00  0.00    +0.000 HD
ENDBRANCH  13  14
ENDBRANCH  12  13
ENDBRANCH  11  12
ENDBRANCH  10  11
ENDBRANCH   8  10
ENDBRANCH   7   8
ENDBRANCH   1   7
BRANCH   4  17
ATOM     17  C   UNL     1       4.511   4.584  19.509  0.00  0.00    +0.000 C 
BRANCH  17  18
ATOM     18  N   UNL     1       3.803   5.810  19.771  0.00  0.00    +0.000 N 
ATOM     19  C   UNL     1       2.437   5.838  19.868  0.00  0.00    +0.000 C 
ATOM     20  O   UNL     1       1.757   4.818  19.780  0.00  0.00    +0.000 OA
ATOM     21  H   UNL     1       4.316   6.675  19.630  0.00  0.00    +0.000 HD
BRANCH  19  22
ATOM     22  C   UNL     1       1.827   7.143  20.145  0.00  0.00    +0.000 A 
ATOM     23  C   UNL     1       1.128   7.335  21.330  0.00  0.00    +0.000 A 
ATOM     24  S   UNL     1       0.524   8.918  21.518  0.00  0.00    +0.000 S 
ATOM     25  C   UNL     1       1.133   9.390  20.001  0.00  0.00    +0.000 A 
ATOM     26  N   UNL     1       0.936  10.653  19.535  0.00  0.00    +0.000 NA
ATOM     27  C   UNL     1       1.424  10.867  18.359  0.00  0.00    +0.000 A 
ATOM     28  N   UNL     1       2.097   9.935  17.612  0.00  0.00    +0.000 N 
ATOM     29  C   UNL     1       2.347   8.658  18.055  0.00  0.00    +0.000 A 
ATOM     30  O   UNL     1       2.991   7.862  17.379  0.00  0.00    +0.000 OA
ATOM     31  C   UNL     1       1.806   8.361  19.367  0.00  0.00    +0.000 A 
ATOM     32  H   UNL     1       2.460  10.170  16.701  0.00  0.00    +0.000 HD
ENDBRANCH  19  22
ENDBRANCH  17  18
ENDBRANCH   4  17
TORSDOF 10
ENDMDL
MODEL 2
REMARK VINA RESULT:      -7.0      1.506      1.916
REMARK  Name = 
REMARK  10 active torsions:
REMARK  status: ('A' for Active; 'I' for Inactive)
REMARK    1  A    between atoms: N_1  and  C_2
REMARK    2  A    between atoms: C_2  and  C_3
REMARK    3  A    between atoms: C_3  and  C_4
REMARK    4  A    between atoms: C_4  and  C_5
REMARK    5  A    between atoms: C_5  and  N_6
REMARK    6  A    between atoms: N_6  and  C_7
REMARK    7  A    between atoms: C_7  and  C_8
REMARK    8  A    between atoms: C_11  and  C_12
REMARK    9  A    between atoms: C_12  and  N_13
REMARK   10  A    between atoms: C_14  and  C_16
REMARK                            x       y       z     vdW  Elec       q    Type
REMARK                         _______ _______ _______ _____ _____    ______ ____
ROOT
ATOM      1  C   UNL     1       5.444   4.875  15.507  0.00  0.00    +0.000 A 
ATOM      2  C   UNL     1       5.617   6.045  16.261  0.00  0.00    +0.000 A 
ATOM      3  C   UNL     1       5.214   6.099  17.597  0.00  0.00    +0.000 A 
ATOM      4  C   UNL     1       4.625   4.984  18.207  0.00  0.00    +0.000 A 
ATOM      5  C   UNL     1       4.417   3.827  17.444  0.00  0.00    +0.000 A 
ATOM      6  C   UNL     1       4.832   3.770  16.111  0.00  0.00    +0.000 A 
ENDROOT
BRANCH   1   7
ATOM      7  C   UNL     1       5.928   4.803  14.075  0.00  0.00    +0.000 C 
BRANCH   7   8
ATOM      8  N   UNL     1       6.207   3.421  13.704  0.00  0.00    +0.000 NA
ATOM      9  H   UNL     1       7.190   3.213  13.875  0.00  0.00    +0.000 HD
BRANCH   8  10
ATOM     10  C   UNL     1       5.883   3.132  12.313  0.00  0.00    +0.000 C 
BRANCH  10  11
ATOM     11  C   UNL     1       7.172   2.875  11.526  0.00  0.00    +0.000 C 
BRANCH  11  12
ATOM     12  C   UNL     1       7.237   1.453  10.949  0.00  0.00    +0.000 C 
BRANCH  12  13
ATOM     13  C   UNL     1       5.936   0.674  11.127  0.00  0.00    +0.000 C 
BRANCH  13  14
ATOM     14  N   UNL     1       6.184  -0.740  11.377  0.00  0.00    +0.000 NA
ATOM     15  H   UNL     1       7.174  -0.940  11.247  0.00  0.00    +0.000 HD
ATOM     16  H   UNL     1       5.686  -1.299  10.683  0.00  0.00    +0.000 HD
ENDBRANCH  13  14
ENDBRANCH  12  13
ENDBRANCH  11  12
ENDBRANCH  10  11
ENDBRANCH   8  10
ENDBRANCH   7   8
ENDBRANCH   1   7
BRANCH   4  17
ATOM     17  C   UNL     1       4.179   5.044  19.643  0.00  0.00    +0.000 C 
BRANCH  17  18
ATOM     18  N   UNL     1       3.490   6.279  19.913  0.00  0.00    +0.000 N 
ATOM     19  C   UNL     1       2.140   6.307  20.141  0.00  0.00    +0.000 C 
ATOM     20  O   UNL     1       1.463   5.282  20.170  0.00  0.00    +0.000 OA
ATOM     21  H   UNL     1       3.979   7.137  19.679  0.00  0.00    +0.000 HD
BRANCH  19  22
ATOM     22  C   UNL     1       1.548   7.622  20.411  0.00  0.00    +0.000 A 
ATOM     23  C   UNL     1       0.943   7.863  21.638  0.00  0.00    +0.000 A 
ATOM     24  S   UNL     1       0.351   9.452  21.807  0.00  0.00    +0.000 S 
ATOM     25  C   UNL     1       0.838   9.861  20.229  0.00  0.00    +0.000 A 
ATOM     26  N   UNL     1       0.601  11.104  19.729  0.00  0.00    +0.000 NA
ATOM     27  C   UNL     1       0.995  11.270  18.511  0.00  0.00    +0.000 A 
ATOM     28  N   UNL     1       1.611  10.308  17.752  0.00  0.00    +0.000 N 
ATOM     29  C   UNL     1       1.899   9.050  18.226  0.00  0.00    +0.000 A 
ATOM     30  O   UNL     1       2.491   8.227  17.535  0.00  0.00    +0.000 OA
ATOM     31  C   UNL     1       1.463   8.807  19.587  0.00  0.00    +0.000 A 
ATOM     32  H   UNL     1       1.901  10.506  16.807  0.00  0.00    +0.000 HD
ENDBRANCH  19  22
ENDBRANCH  17  18
ENDBRANCH   4  17
TORSDOF 10
ENDMDL
MODEL 3
REMARK VINA RESULT:      -6.9      3.527      5.483
REMARK  Name = 
REMARK  10 active torsions:
REMARK  status: ('A' for Active; 'I' for Inactive)
REMARK    1  A    between atoms: N_1  and  C_2
REMARK    2  A    between atoms: C_2  and  C_3
REMARK    3  A    between atoms: C_3  and  C_4
REMARK    4  A    between atoms: C_4  and  C_5
REMARK    5  A    between atoms: C_5  and  N_6
REMARK    6  A    between atoms: N_6  and  C_7
REMARK    7  A    between atoms: C_7  and  C_8
REMARK    8  A    between atoms: C_11  and  C_12
REMARK    9  A    between atoms: C_12  and  N_13
REMARK   10  A    between atoms: C_14  and  C_16
REMARK                            x       y       z     vdW  Elec       q    Type
REMARK                         _______ _______ _______ _____ _____    ______ ____
ROOT
ATOM      1  C   UNL     1       2.645   5.142  18.530  0.00  0.00    +0.000 A 
ATOM      2  C   UNL     1       2.711   6.489  18.142  0.00  0.00    +0.000 A 
ATOM      3  C   UNL     1       2.342   7.505  19.025  0.00  0.00    +0.000 A 
ATOM      4  C   UNL     1       1.895   7.196  20.316  0.00  0.00    +0.000 A 
ATOM      5  C   UNL     1       1.792   5.851  20.693  0.00  0.00    +0.000 A 
ATOM      6  C   UNL     1       2.174   4.834  19.813  0.00  0.00    +0.000 A 
ENDROOT
BRANCH   1   7
ATOM      7  C   UNL     1       3.094   4.046  17.589  0.00  0.00    +0.000 C 
BRANCH   7   8
ATOM      8  N   UNL     1       4.547   3.930  17.601  0.00  0.00    +0.000 NA
ATOM      9  H   UNL     1       4.935   4.565  18.297  0.00  0.00    +0.000 HD
BRANCH   8  10
ATOM     10  C   UNL     1       5.147   4.205  16.302  0.00  0.00    +0.000 C 
BRANCH  10  11
ATOM     11  C   UNL     1       6.629   4.546  16.481  0.00  0.00    +0.000 C 
BRANCH  11  12
ATOM     12  C   UNL     1       6.854   6.011  16.880  0.00  0.00    +0.000 C 
BRANCH  12  13
ATOM     13  C   UNL     1       7.482   6.166  18.263  0.00  0.00    +0.000 C 
BRANCH  13  14
ATOM     14  N   UNL     1       7.431   4.923  19.022  0.00  0.00    +0.000 NA
ATOM     15  H   UNL     1       7.879   5.058  19.926  0.00  0.00    +0.000 HD
ATOM     16  H   UNL     1       7.974   4.208  18.537  0.00  0.00    +0.000 HD
ENDBRANCH  13  14
ENDBRANCH  12  13
ENDBRANCH  11  12
ENDBRANCH  10  11
ENDBRANCH   8  10
ENDBRANCH   7   8
ENDBRANCH   1   7
BRANCH   4  17
ATOM     17  C   UNL     1       1.486   8.290  21.266  0.00  0.00    +0.000 C 
BRANCH  17  18
ATOM     18  N   UNL     1       0.364   9.026  20.743  0.00  0.00    +0.000 N 
ATOM     19  C   UNL     1       0.281  10.387  20.874  0.00  0.00    +0.000 C 
ATOM     20  O   UNL     1       1.174  11.046  21.400  0.00  0.00    +0.000 OA
ATOM     21  H   UNL     1      -0.466   8.491  20.508  0.00  0.00    +0.000 HD
BRANCH  19  22
ATOM     22  C   UNL     1      -0.905  11.029  20.295  0.00  0.00    +0.000 A 
ATOM     23  C   UNL     1      -1.682  11.870  21.082  0.00  0.00    +0.000 A 
ATOM     24  S   UNL     1      -2.992  12.570  20.247  0.00  0.00    +0.000 S 
ATOM     25  C   UNL     1      -2.598  11.736  18.817  0.00  0.00    +0.000 A 
ATOM     26  N   UNL     1      -3.357  11.879  17.697  0.00  0.00    +0.000 NA
ATOM     27  C   UNL     1      -2.963  11.167  16.694  0.00  0.00    +0.000 A 
ATOM     28  N   UNL     1      -1.875  10.333  16.709  0.00  0.00    +0.000 N 
ATOM     29  C   UNL     1      -1.062  10.182  17.807  0.00  0.00    +0.000 A 
ATOM     30  O   UNL     1      -0.070   9.460  17.773  0.00  0.00    +0.000 OA
ATOM     31  C   UNL     1      -1.469  10.950  18.967  0.00  0.00    +0.000 A 
ATOM     32  H   UNL     1      -1.617   9.809  15.887  0.00  0.00    +0.000 HD
ENDBRANCH  19  22
ENDBRANCH  17  18
ENDBRANCH   4  17
TORSDOF 10
ENDMDL
MODEL 4
REMARK VINA RESULT:      -6.9      4.027      5.951
REMARK  Name = 
REMARK  10 active torsions:
REMARK  status: ('A' for Active; 'I' for Inactive)
REMARK    1  A    between atoms: N_1  and  C_2
REMARK    2  A    between atoms: C_2  and  C_3
REMARK    3  A    between atoms: C_3  and  C_4
REMARK    4  A    between atoms: C_4  and  C_5
REMARK    5  A    between atoms: C_5  and  N_6
REMARK    6  A    between atoms: N_6  and  C_7
REMARK    7  A    between atoms: C_7  and  C_8
REMARK    8  A    between atoms: C_11  and  C_12
REMARK    9  A    between atoms: C_12  and  N_13
REMARK   10  A    between atoms: C_14  and  C_16
REMARK                            x       y       z     vdW  Elec       q    Type
REMARK                         _______ _______ _______ _____ _____    ______ ____
ROOT
ATOM      1  C   UNL     1       4.111   5.132  18.838  0.00  0.00    +0.000 A 
ATOM      2  C   UNL     1       3.037   5.755  19.493  0.00  0.00    +0.000 A 
ATOM      3  C   UNL     1       2.522   6.966  19.025  0.00  0.00    +0.000 A 
ATOM      4  C   UNL     1       3.072   7.582  17.894  0.00  0.00    +0.000 A 
ATOM      5  C   UNL     1       4.168   6.981  17.262  0.00  0.00    +0.000 A 
ATOM      6  C   UNL     1       4.675   5.763  17.723  0.00  0.00    +0.000 A 
ENDROOT
BRANCH   1   7
ATOM      7  C   UNL     1       4.634   3.796  19.317  0.00  0.00    +0.000 C 
BRANCH   7   8
ATOM      8  N   UNL     1       4.429   2.776  18.296  0.00  0.00    +0.000 NA
ATOM      9  H   UNL     1       4.902   3.052  17.436  0.00  0.00    +0.000 HD
BRANCH   8  10
ATOM     10  C   UNL     1       3.019   2.530  18.017  0.00  0.00    +0.000 C 
BRANCH  10  11
ATOM     11  C   UNL     1       2.360   1.876  19.235  0.00  0.00    +0.000 C 
BRANCH  11  12
ATOM     12  C   UNL     1       1.285   2.767  19.874  0.00  0.00    +0.000 C 
BRANCH  12  13
ATOM     13  C   UNL     1       1.270   2.688  21.399  0.00  0.00    +0.000 C 
BRANCH  13  14
ATOM     14  N   UNL     1       2.614   2.774  21.957  0.00  0.00    +0.000 NA
ATOM     15  H   UNL     1       2.606   3.391  22.768  0.00  0.00    +0.000 HD
ATOM     16  H   UNL     1       3.236   3.207  21.274  0.00  0.00    +0.000 HD
ENDBRANCH  13  14
ENDBRANCH  12  13
ENDBRANCH  11  12
ENDBRANCH  10  11
ENDBRANCH   8  10
ENDBRANCH   7   8
ENDBRANCH   1   7
BRANCH   4  17
ATOM     17  C   UNL     1       2.525   8.893  17.396  0.00  0.00    +0.000 C 
BRANCH  17  18
ATOM     18  N   UNL     1       1.552   9.423  18.315  0.00  0.00    +0.000 N 
ATOM     19  C   UNL     1       1.534  10.751  18.648  0.00  0.00    +0.000 C 
ATOM     20  O   UNL     1       2.314  11.558  18.149  0.00  0.00    +0.000 OA
ATOM     21  H   UNL     1       1.054   8.751  18.892  0.00  0.00    +0.000 HD
BRANCH  19  22
ATOM     22  C   UNL     1       0.491  11.176  19.590  0.00  0.00    +0.000 A 
ATOM     23  C   UNL     1      -0.367  12.211  19.240  0.00  0.00    +0.000 A 
ATOM     24  S   UNL     1      -1.547  12.547  20.423  0.00  0.00    +0.000 S 
ATOM     25  C   UNL     1      -0.924  11.356  21.465  0.00  0.00    +0.000 A 
ATOM     26  N   UNL     1      -1.481  11.140  22.687  0.00  0.00    +0.000 NA
ATOM     27  C   UNL     1      -0.891  10.229  23.386  0.00  0.00    +0.000 A 
ATOM     28  N   UNL     1       0.199   9.509  22.969  0.00  0.00    +0.000 N 
ATOM     29  C   UNL     1       0.774   9.670  21.731  0.00  0.00    +0.000 A 
ATOM     30  O   UNL     1       1.722   8.979  21.373  0.00  0.00    +0.000 OA
ATOM     31  C   UNL     1       0.158  10.694  20.911  0.00  0.00    +0.000 A 
ATOM     32  H   UNL     1       0.608   8.804  23.563  0.00  0.00    +0.000 HD
ENDBRANCH  19  22
ENDBRANCH  17  18
ENDBRANCH   4  17
TORSDOF 10
ENDMDL
MODEL 5
REMARK VINA RESULT:      -6.8      4.184      5.747
REMARK  Name = 
REMARK  10 active torsions:
REMARK  status: ('A' for Active; 'I' for Inactive)
REMARK    1  A    between atoms: N_1  and  C_2
REMARK    2  A    between atoms: C_2  and  C_3
REMARK    3  A    between atoms: C_3  and  C_4
REMARK    4  A    between atoms: C_4  and  C_5
REMARK    5  A    between atoms: C_5  and  N_6
REMARK    6  A    between atoms: N_6  and  C_7
REMARK    7  A    between atoms: C_7  and  C_8
REMARK    8  A    between atoms: C_11  and  C_12
REMARK    9  A    between atoms: C_12  and  N_13
REMARK   10  A    between atoms: C_14  and  C_16
REMARK                            x       y       z     vdW  Elec       q    Type
REMARK                         _______ _______ _______ _____ _____    ______ ____
ROOT
ATOM      1  C   UNL     1       4.391   5.454  19.029  0.00  0.00    +0.000 A 
ATOM      2  C   UNL     1       4.779   6.111  17.851  0.00  0.00    +0.000 A 
ATOM      3  C   UNL     1       4.024   7.170  17.342  0.00  0.00    +0.000 A 
ATOM      4  C   UNL     1       2.861   7.592  17.999  0.00  0.00    +0.000 A 
ATOM      5  C   UNL     1       2.451   6.913  19.154  0.00  0.00    +0.000 A 
ATOM      6  C   UNL     1       3.214   5.862  19.669  0.00  0.00    +0.000 A 
ENDROOT
BRANCH   1   7
ATOM      7  C   UNL     1       5.237   4.341  19.605  0.00  0.00    +0.000 C 
BRANCH   7   8
ATOM      8  N   UNL     1       5.168   3.159  18.755  0.00  0.00    +0.000 NA
ATOM      9  H   UNL     1       4.728   3.400  17.868  0.00  0.00    +0.000 HD
BRANCH   8  10
ATOM     10  C   UNL     1       4.442   2.057  19.375  0.00  0.00    +0.000 C 
BRANCH  10  11
ATOM     11  C   UNL     1       3.304   1.606  18.455  0.00  0.00    +0.000 C 
BRANCH  11  12
ATOM     12  C   UNL     1       2.011   2.402  18.681  0.00  0.00    +0.000 C 
BRANCH  12  13
ATOM     13  C   UNL     1       1.668   2.581  20.159  0.00  0.00    +0.000 C 
BRANCH  13  14
ATOM     14  N   UNL     1       0.473   3.395  20.341  0.00  0.00    +0.000 NA
ATOM     15  H   UNL     1       0.632   4.070  21.088  0.00  0.00    +0.000 HD
ATOM     16  H   UNL     1      -0.297   2.802  20.651  0.00  0.00    +0.000 HD
ENDBRANCH  13  14
ENDBRANCH  12  13
ENDBRANCH  11  12
ENDBRANCH  10  11
ENDBRANCH   8  10
ENDBRANCH   7   8
ENDBRANCH   1   7
BRANCH   4  17
ATOM     17  C   UNL     1       2.040   8.726  17.445  0.00  0.00    +0.000 C 
BRANCH  17  18
ATOM     18  N   UNL     1       1.531   9.554  18.508  0.00  0.00    +0.000 N 
ATOM     19  C   UNL     1       0.270  10.085  18.456  0.00  0.00    +0.000 C 
ATOM     20  O   UNL     1      -0.500   9.847  17.529  0.00  0.00    +0.000 OA
ATOM     21  H   UNL     1       2.212   9.933  19.159  0.00  0.00    +0.000 HD
BRANCH  19  22
ATOM     22  C   UNL     1      -0.142  10.907  19.600  0.00  0.00    +0.000 A 
ATOM     23  C   UNL     1      -0.341  12.271  19.428  0.00  0.00    +0.000 A 
ATOM     24  S   UNL     1      -0.862  13.068  20.841  0.00  0.00    +0.000 S 
ATOM     25  C   UNL     1      -0.792  11.630  21.746  0.00  0.00    +0.000 A 
ATOM     26  N   UNL     1      -1.103  11.626  23.071  0.00  0.00    +0.000 NA
ATOM     27  C   UNL     1      -0.980  10.474  23.642  0.00  0.00    +0.000 A 
ATOM     28  N   UNL     1      -0.581   9.327  23.005  0.00  0.00    +0.000 N 
ATOM     29  C   UNL     1      -0.288   9.277  21.663  0.00  0.00    +0.000 A 
ATOM     30  O   UNL     1       0.023   8.224  21.116  0.00  0.00    +0.000 OA
ATOM     31  C   UNL     1      -0.398  10.549  20.977  0.00  0.00    +0.000 A 
ATOM     32  H   UNL     1      -0.512   8.456  23.510  0.00  0.00    +0.000 HD
ENDBRANCH  19  22
ENDBRANCH  17  18
ENDBRANCH   4  17
TORSDOF 10
ENDMDL
MODEL 6
REMARK VINA RESULT:      -6.8      3.636      5.499
REMARK  Name = 
REMARK  10 active torsions:
REMARK  status: ('A' for Active; 'I' for Inactive)
REMARK    1  A    between atoms: N_1  and  C_2
REMARK    2  A    between atoms: C_2  and  C_3
REMARK    3  A    between atoms: C_3  and  C_4
REMARK    4  A    between atoms: C_4  and  C_5
REMARK    5  A    between atoms: C_5  and  N_6
REMARK    6  A    between atoms: N_6  and  C_7
REMARK    7  A    between atoms: C_7  and  C_8
REMARK    8  A    between atoms: C_11  and  C_12
REMARK    9  A    between atoms: C_12  and  N_13
REMARK   10  A    between atoms: C_14  and  C_16
REMARK                            x       y       z     vdW  Elec       q    Type
REMARK                         _______ _______ _______ _____ _____    ______ ____
ROOT
ATOM      1  C   UNL     1       2.387   5.238  18.670  0.00  0.00    +0.000 A 
ATOM      2  C   UNL     1       1.914   5.020  19.973  0.00  0.00    +0.000 A 
ATOM      3  C   UNL     1       1.598   6.096  20.806  0.00  0.00    +0.000 A 
ATOM      4  C   UNL     1       1.751   7.413  20.355  0.00  0.00    +0.000 A 
ATOM      5  C   UNL     1       2.258   7.632  19.068  0.00  0.00    +0.000 A 
ATOM      6  C   UNL     1       2.562   6.556  18.230  0.00  0.00    +0.000 A 
ENDROOT
BRANCH   1   7
ATOM      7  C   UNL     1       2.680   4.072  17.752  0.00  0.00    +0.000 C 
BRANCH   7   8
ATOM      8  N   UNL     1       3.901   3.394  18.169  0.00  0.00    +0.000 NA
ATOM      9  H   UNL     1       3.897   3.272  19.181  0.00  0.00    +0.000 HD
BRANCH   8  10
ATOM     10  C   UNL     1       5.109   4.105  17.770  0.00  0.00    +0.000 C 
BRANCH  10  11
ATOM     11  C   UNL     1       5.018   4.484  16.288  0.00  0.00    +0.000 C 
BRANCH  11  12
ATOM     12  C   UNL     1       5.704   5.822  15.978  0.00  0.00    +0.000 C 
BRANCH  12  13
ATOM     13  C   UNL     1       6.987   6.038  16.779  0.00  0.00    +0.000 C 
BRANCH  13  14
ATOM     14  N   UNL     1       7.192   7.445  17.099  0.00  0.00    +0.000 NA
ATOM     15  H   UNL     1       6.936   7.613  18.071  0.00  0.00    +0.000 HD
ATOM     16  H   UNL     1       6.562   8.016  16.535  0.00  0.00    +0.000 HD
ENDBRANCH  13  14
ENDBRANCH  12  13
ENDBRANCH  11  12
ENDBRANCH  10  11
ENDBRANCH   8  10
ENDBRANCH   7   8
ENDBRANCH   1   7
BRANCH   4  17
ATOM     17  C   UNL     1       1.421   8.572  21.256  0.00  0.00    +0.000 C 
BRANCH  17  18
ATOM     18  N   UNL     1       0.249   9.266  20.787  0.00  0.00    +0.000 N 
ATOM     19  C   UNL     1       0.207  10.634  20.725  0.00  0.00    +0.000 C 
ATOM     20  O   UNL     1       1.175  11.329  21.023  0.00  0.00    +0.000 OA
ATOM     21  H   UNL     1      -0.614   8.733  20.748  0.00  0.00    +0.000 HD
BRANCH  19  22
ATOM     22  C   UNL     1      -1.038  11.228  20.224  0.00  0.00    +0.000 A 
ATOM     23  C   UNL     1      -1.763  12.088  21.039  0.00  0.00    +0.000 A 
ATOM     24  S   UNL     1      -3.154  12.727  20.290  0.00  0.00    +0.000 S 
ATOM     25  C   UNL     1      -2.864  11.840  18.867  0.00  0.00    +0.000 A 
ATOM     26  N   UNL     1      -3.718  11.921  17.811  0.00  0.00    +0.000 NA
ATOM     27  C   UNL     1      -3.394  11.174  16.809  0.00  0.00    +0.000 A 
ATOM     28  N   UNL     1      -2.291  10.361  16.766  0.00  0.00    +0.000 N 
ATOM     29  C   UNL     1      -1.385  10.272  17.795  0.00  0.00    +0.000 A 
ATOM     30  O   UNL     1      -0.384   9.568  17.707  0.00  0.00    +0.000 OA
ATOM     31  C   UNL     1      -1.710  11.082  18.953  0.00  0.00    +0.000 A 
ATOM     32  H   UNL     1      -2.092   9.807  15.947  0.00  0.00    +0.000 HD
ENDBRANCH  19  22
ENDBRANCH  17  18
ENDBRANCH   4  17
TORSDOF 10
ENDMDL
MODEL 7
REMARK VINA RESULT:      -6.7      4.023      5.844
REMARK  Name = 
REMARK  10 active torsions:
REMARK  status: ('A' for Active; 'I' for Inactive)
REMARK    1  A    between atoms: N_1  and  C_2
REMARK    2  A    between atoms: C_2  and  C_3
REMARK    3  A    between atoms: C_3  and  C_4
REMARK    4  A    between atoms: C_4  and  C_5
REMARK    5  A    between atoms: C_5  and  N_6
REMARK    6  A    between atoms: N_6  and  C_7
REMARK    7  A    between atoms: C_7  and  C_8
REMARK    8  A    between atoms: C_11  and  C_12
REMARK    9  A    between atoms: C_12  and  N_13
REMARK   10  A    between atoms: C_14  and  C_16
REMARK                            x       y       z     vdW  Elec       q    Type
REMARK                         _______ _______ _______ _____ _____    ______ ____
ROOT
ATOM      1  C   UNL     1       3.890   5.015  17.720  0.00  0.00    +0.000 A 
ATOM      2  C   UNL     1       2.575   5.245  18.156  0.00  0.00    +0.000 A 
ATOM      3  C   UNL     1       2.038   6.534  18.152  0.00  0.00    +0.000 A 
ATOM      4  C   UNL     1       2.804   7.622  17.716  0.00  0.00    +0.000 A 
ATOM      5  C   UNL     1       4.129   7.400  17.316  0.00  0.00    +0.000 A 
ATOM      6  C   UNL     1       4.662   6.108  17.308  0.00  0.00    +0.000 A 
ENDROOT
BRANCH   1   7
ATOM      7  C   UNL     1       4.452   3.612  17.678  0.00  0.00    +0.000 C 
BRANCH   7   8
ATOM      8  N   UNL     1       4.997   3.244  18.979  0.00  0.00    +0.000 NA
ATOM      9  H   UNL     1       6.013   3.193  18.923  0.00  0.00    +0.000 HD
BRANCH   8  10
ATOM     10  C   UNL     1       4.471   1.978  19.475  0.00  0.00    +0.000 C 
BRANCH  10  11
ATOM     11  C   UNL     1       2.991   2.139  19.834  0.00  0.00    +0.000 C 
BRANCH  11  12
ATOM     12  C   UNL     1       2.782   2.919  21.140  0.00  0.00    +0.000 C 
BRANCH  12  13
ATOM     13  C   UNL     1       1.446   3.658  21.189  0.00  0.00    +0.000 C 
BRANCH  13  14
ATOM     14  N   UNL     1       0.495   3.119  20.226  0.00  0.00    +0.000 NA
ATOM     15  H   UNL     1      -0.441   3.130  20.629  0.00  0.00    +0.000 HD
ATOM     16  H   UNL     1       0.716   2.139  20.045  0.00  0.00    +0.000 HD
ENDBRANCH  13  14
ENDBRANCH  12  13
ENDBRANCH  11  12
ENDBRANCH  10  11
ENDBRANCH   8  10
ENDBRANCH   7   8
ENDBRANCH   1   7
BRANCH   4  17
ATOM     17  C   UNL     1       2.230   9.013  17.722  0.00  0.00    +0.000 C 
BRANCH  17  18
ATOM     18  N   UNL     1       1.696   9.339  19.018  0.00  0.00    +0.000 N 
ATOM     19  C   UNL     1       0.444   9.875  19.160  0.00  0.00    +0.000 C 
ATOM     20  O   UNL     1      -0.298  10.061  18.198  0.00  0.00    +0.000 OA
ATOM     21  H   UNL     1       2.359   9.399  19.785  0.00  0.00    +0.000 HD
BRANCH  19  22
ATOM     22  C   UNL     1       0.004  10.159  20.531  0.00  0.00    +0.000 A 
ATOM     23  C   UNL     1      -0.057   9.128  21.459  0.00  0.00    +0.000 A 
ATOM     24  S   UNL     1      -0.539   9.635  23.013  0.00  0.00    +0.000 S 
ATOM     25  C   UNL     1      -0.730  11.242  22.490  0.00  0.00    +0.000 A 
ATOM     26  N   UNL     1      -1.155  12.208  23.350  0.00  0.00    +0.000 NA
ATOM     27  C   UNL     1      -1.285  13.376  22.815  0.00  0.00    +0.000 A 
ATOM     28  N   UNL     1      -1.021  13.666  21.501  0.00  0.00    +0.000 N 
ATOM     29  C   UNL     1      -0.560  12.730  20.605  0.00  0.00    +0.000 A 
ATOM     30  O   UNL     1      -0.292  13.033  19.447  0.00  0.00    +0.000 OA
ATOM     31  C   UNL     1      -0.411  11.397  21.153  0.00  0.00    +0.000 A 
ATOM     32  H   UNL     1      -1.136  14.603  21.148  0.00  0.00    +0.000 HD
ENDBRANCH  19  22
ENDBRANCH  17  18
ENDBRANCH   4  17
TORSDOF 10
ENDMDL
MODEL 8
REMARK VINA RESULT:      -6.7      4.775      7.384
REMARK  Name = 
REMARK  10 active torsions:
REMARK  status: ('A' for Active; 'I' for Inactive)
REMARK    1  A    between atoms: N_1  and  C_2
REMARK    2  A    between atoms: C_2  and  C_3
REMARK    3  A    between atoms: C_3  and  C_4
REMARK    4  A    between atoms: C_4  and  C_5
REMARK    5  A    between atoms: C_5  and  N_6
REMARK    6  A    between atoms: N_6  and  C_7
REMARK    7  A    between atoms: C_7  and  C_8
REMARK    8  A    between atoms: C_11  and  C_12
REMARK    9  A    between atoms: C_12  and  N_13
REMARK   10  A    between atoms: C_14  and  C_16
REMARK                            x       y       z     vdW  Elec       q    Type
REMARK                         _______ _______ _______ _____ _____    ______ ____
ROOT
ATOM      1  C   UNL     1       2.305   7.461  19.240  0.00  0.00    +0.000 A 
ATOM      2  C   UNL     1       1.720   7.624  20.505  0.00  0.00    +0.000 A 
ATOM      3  C   UNL     1       0.838   8.678  20.753  0.00  0.00    +0.000 A 
ATOM      4  C   UNL     1       0.524   9.595  19.741  0.00  0.00    +0.000 A 
ATOM      5  C   UNL     1       1.136   9.456  18.489  0.00  0.00    +0.000 A 
ATOM      6  C   UNL     1       2.009   8.393  18.238  0.00  0.00    +0.000 A 
ENDROOT
BRANCH   1   7
ATOM      7  C   UNL     1       3.220   6.290  18.959  0.00  0.00    +0.000 C 
BRANCH   7   8
ATOM      8  N   UNL     1       2.693   5.486  17.864  0.00  0.00    +0.000 NA
ATOM      9  H   UNL     1       1.732   5.764  17.667  0.00  0.00    +0.000 HD
BRANCH   8  10
ATOM     10  C   UNL     1       2.740   4.055  18.138  0.00  0.00    +0.000 C 
BRANCH  10  11
ATOM     11  C   UNL     1       1.323   3.530  18.384  0.00  0.00    +0.000 C 
BRANCH  11  12
ATOM     12  C   UNL     1       0.983   3.426  19.878  0.00  0.00    +0.000 C 
BRANCH  12  13
ATOM     13  C   UNL     1       2.050   2.688  20.685  0.00  0.00    +0.000 C 
BRANCH  13  14
ATOM     14  N   UNL     1       1.688   2.587  22.093  0.00  0.00    +0.000 NA
ATOM     15  H   UNL     1       1.398   1.633  22.302  0.00  0.00    +0.000 HD
ATOM     16  H   UNL     1       0.877   3.179  22.277  0.00  0.00    +0.000 HD
ENDBRANCH  13  14
ENDBRANCH  12  13
ENDBRANCH  11  12
ENDBRANCH  10  11
ENDBRANCH   8  10
ENDBRANCH   7   8
ENDBRANCH   1   7
BRANCH   4  17
ATOM     17  C   UNL     1      -0.417  10.738  20.010  0.00  0.00    +0.000 C 
BRANCH  17  18
ATOM     18  N   UNL     1       0.244  12.002  19.813  0.00  0.00    +0.000 N 
ATOM     19  C   UNL     1      -0.233  12.925  18.922  0.00  0.00    +0.000 C 
ATOM     20  O   UNL     1      -1.267  12.740  18.284  0.00  0.00    +0.000 OA
ATOM     21  H   UNL     1       1.197  12.079  20.157  0.00  0.00    +0.000 HD
BRANCH  19  22
ATOM     22  C   UNL     1       0.521  14.179  18.811  0.00  0.00    +0.000 A 
ATOM     23  C   UNL     1      -0.122  15.388  19.047  0.00  0.00    +0.000 A 
ATOM     24  S   UNL     1       0.905  16.742  18.925  0.00  0.00    +0.000 S 
ATOM     25  C   UNL     1       2.234  15.767  18.504  0.00  0.00    +0.000 A 
ATOM     26  N   UNL     1       3.448  16.321  18.237  0.00  0.00    +0.000 NA
ATOM     27  C   UNL     1       4.359  15.470  17.903  0.00  0.00    +0.000 A 
ATOM     28  N   UNL     1       4.167  14.115  17.819  0.00  0.00    +0.000 N 
ATOM     29  C   UNL     1       2.968  13.508  18.109  0.00  0.00    +0.000 A 
ATOM     30  O   UNL     1       2.843  12.288  18.066  0.00  0.00    +0.000 OA
ATOM     31  C   UNL     1       1.906  14.423  18.477  0.00  0.00    +0.000 A 
ATOM     32  H   UNL     1       4.925  13.503  17.558  0.00  0.00    +0.000 HD
ENDBRANCH  19  22
ENDBRANCH  17  18
ENDBRANCH   4  17
TORSDOF 10
ENDMDL
MODEL 9
REMARK VINA RESULT:      -6.6      4.304      6.906
REMARK  Name = 
REMARK  10 active torsions:
REMARK  status: ('A' for Active; 'I' for Inactive)
REMARK    1  A    between atoms: N_1  and  C_2
REMARK    2  A    between atoms: C_2  and  C_3
REMARK    3  A    between atoms: C_3  and  C_4
REMARK    4  A    between atoms: C_4  and  C_5
REMARK    5  A    between atoms: C_5  and  N_6
REMARK    6  A    between atoms: N_6  and  C_7
REMARK    7  A    between atoms: C_7  and  C_8
REMARK    8  A    between atoms: C_11  and  C_12
REMARK    9  A    between atoms: C_12  and  N_13
REMARK   10  A    between atoms: C_14  and  C_16
REMARK                            x       y       z     vdW  Elec       q    Type
REMARK                         _______ _______ _______ _____ _____    ______ ____
ROOT
ATOM      1  C   UNL     1       2.489   6.383  19.505  0.00  0.00    +0.000 A 
ATOM      2  C   UNL     1       2.696   6.802  18.181  0.00  0.00    +0.000 A 
ATOM      3  C   UNL     1       2.331   8.088  17.775  0.00  0.00    +0.000 A 
ATOM      4  C   UNL     1       1.748   8.981  18.682  0.00  0.00    +0.000 A 
ATOM      5  C   UNL     1       1.506   8.552  19.993  0.00  0.00    +0.000 A 
ATOM      6  C   UNL     1       1.883   7.270  20.403  0.00  0.00    +0.000 A 
ENDROOT
BRANCH   1   7
ATOM      7  C   UNL     1       2.930   5.009  19.956  0.00  0.00    +0.000 C 
BRANCH   7   8
ATOM      8  N   UNL     1       3.536   4.282  18.847  0.00  0.00    +0.000 NA
ATOM      9  H   UNL     1       3.033   3.409  18.694  0.00  0.00    +0.000 HD
BRANCH   8  10
ATOM     10  C   UNL     1       4.949   3.998  19.061  0.00  0.00    +0.000 C 
BRANCH  10  11
ATOM     11  C   UNL     1       5.743   4.350  17.799  0.00  0.00    +0.000 C 
BRANCH  11  12
ATOM     12  C   UNL     1       7.135   4.915  18.116  0.00  0.00    +0.000 C 
BRANCH  12  13
ATOM     13  C   UNL     1       7.155   5.796  19.363  0.00  0.00    +0.000 C 
BRANCH  13  14
ATOM     14  N   UNL     1       8.114   5.314  20.349  0.00  0.00    +0.000 NA
ATOM     15  H   UNL     1       9.023   5.190  19.907  0.00  0.00    +0.000 HD
ATOM     16  H   UNL     1       7.828   4.391  20.676  0.00  0.00    +0.000 HD
ENDBRANCH  13  14
ENDBRANCH  12  13
ENDBRANCH  11  12
ENDBRANCH  10  11
ENDBRANCH   8  10
ENDBRANCH   7   8
ENDBRANCH   1   7
BRANCH   4  17
ATOM     17  C   UNL     1       1.344  10.363  18.242  0.00  0.00    +0.000 C 
BRANCH  17  18
ATOM     18  N   UNL     1      -0.013  10.645  18.628  0.00  0.00    +0.000 N 
ATOM     19  C   UNL     1      -0.446  11.929  18.829  0.00  0.00    +0.000 C 
ATOM     20  O   UNL     1       0.287  12.898  18.647  0.00  0.00    +0.000 OA
ATOM     21  H   UNL     1      -0.558   9.868  18.989  0.00  0.00    +0.000 HD
BRANCH  19  22
ATOM     22  C   UNL     1      -1.852  12.094  19.214  0.00  0.00    +0.000 A 
ATOM     23  C   UNL     1      -2.165  12.582  20.476  0.00  0.00    +0.000 A 
ATOM     24  S   UNL     1      -3.838  12.758  20.745  0.00  0.00    +0.000 S 
ATOM     25  C   UNL     1      -4.208  12.142  19.203  0.00  0.00    +0.000 A 
ATOM     26  N   UNL     1      -5.500  12.005  18.799  0.00  0.00    +0.000 NA
ATOM     27  C   UNL     1      -5.637  11.498  17.619  0.00  0.00    +0.000 A 
ATOM     28  N   UNL     1      -4.599  11.124  16.806  0.00  0.00    +0.000 N 
ATOM     29  C   UNL     1      -3.279  11.273  17.158  0.00  0.00    +0.000 A 
ATOM     30  O   UNL     1      -2.374  10.968  16.388  0.00  0.00    +0.000 OA
ATOM     31  C   UNL     1      -3.069  11.825  18.482  0.00  0.00    +0.000 A 
ATOM     32  H   UNL     1      -4.776  10.740  15.890  0.00  0.00    +0.000 HD
ENDBRANCH  19  22
ENDBRANCH  17  18
ENDBRANCH   4  17
TORSDOF 10
ENDMDL
