MODEL 1
REMARK VINA RESULT:      -7.9      0.000      0.000
REMARK  Name = 
REMARK  9 active torsions:
REMARK  status: ('A' for Active; 'I' for Inactive)
REMARK    1  A    between atoms: C_1  and  C_2
REMARK    2  A    between atoms: N_6  and  C_7
REMARK    3  A    between atoms: C_7  and  C_8
REMARK    4  A    between atoms: C_8  and  C_9
REMARK    5  A    between atoms: N_11  and  C_12
REMARK    6  A    between atoms: C_12  and  C_13
REMARK    7  A    between atoms: C_12  and  C_20
REMARK    8  A    between atoms: C_13  and  C_14
REMARK    9  A    between atoms: C_22  and  O_23
REMARK                            x       y       z     vdW  Elec       q    Type
REMARK                         _______ _______ _______ _____ _____    ______ ____
ROOT
ATOM      1  C   UNL     1       2.415   5.268  18.239  0.00  0.00    +0.000 C 
ENDROOT
BRANCH   1   4
ATOM      2  C   UNL     1       4.608   5.224  17.074  0.00  0.00    +0.000 C 
ATOM      3  O   UNL     1       4.573   6.425  16.829  0.00  0.00    +0.000 OA
ATOM      4  N   UNL     1       3.593   4.563  17.726  0.00  0.00    +0.000 N 
ATOM      5  H   UNL     1       3.654   3.561  17.856  0.00  0.00    +0.000 HD
BRANCH   2   6
ATOM      6  C   UNL     1       5.770   4.342  16.657  0.00  0.00    +0.000 C 
BRANCH   6   7
ATOM      7  C   UNL     1       5.544   3.894  15.214  0.00  0.00    +0.000 C 
BRANCH   7  13
ATOM      8  C   UNL     1       5.888   3.173  12.168  0.00  0.00    +0.000 C 
ATOM      9  C   UNL     1       6.699   4.122  12.956  0.00  0.00    +0.000 A 
ATOM     10  N   UNL     1       7.690   4.873  12.518  0.00  0.00    +0.000 NA
ATOM     11  N   UNL     1       8.118   5.614  13.591  0.00  0.00    +0.000 NA
ATOM     12  N   UNL     1       7.414   5.325  14.678  0.00  0.00    +0.000 NA
ATOM     13  N   UNL     1       6.536   4.387  14.290  0.00  0.00    +0.000 N 
ENDBRANCH   7  13
ENDBRANCH   6   7
ENDBRANCH   2   6
ENDBRANCH   1   4
BRANCH   1  14
ATOM     14  C   UNL     1       1.412   4.179  18.671  0.00  0.00    +0.000 C 
ATOM     15  C   UNL     1       1.873   2.696  18.536  0.00  0.00    +0.000 C 
ATOM     16  C   UNL     1       2.193   2.680  20.040  0.00  0.00    +0.000 C 
ATOM     17  C   UNL     1       1.239   3.881  20.194  0.00  0.00    +0.000 C 
BRANCH  16  18
ATOM     18  O   UNL     1       3.577   2.878  20.392  0.00  0.00    +0.000 OA
ATOM     19  H   UNL     1       3.831   2.123  20.948  0.00  0.00    +0.000 HD
ENDBRANCH  16  18
ENDBRANCH   1  14
BRANCH   1  20
ATOM     20  C   UNL     1       2.773   6.165  19.443  0.00  0.00    +0.000 C 
BRANCH  20  21
ATOM     21  C   UNL     1       2.124   7.531  19.494  0.00  0.00    +0.000 A 
ATOM     22  C   UNL     1       1.945   8.311  18.344  0.00  0.00    +0.000 A 
ATOM     23  C   UNL     1       1.224   9.490  18.439  0.00  0.00    +0.000 A 
ATOM     24  N   UNL     1       0.661   9.937  19.581  0.00  0.00    +0.000 NA
ATOM     25  C   UNL     1       0.835   9.174  20.681  0.00  0.00    +0.000 A 
ATOM     26  C   UNL     1       1.543   7.984  20.687  0.00  0.00    +0.000 A 
ENDBRANCH  20  21
ENDBRANCH   1  20
TORSDOF 8
ENDMDL
MODEL 2
REMARK VINA RESULT:      -7.6      0.873      1.319
REMARK  Name = 
REMARK  9 active torsions:
REMARK  status: ('A' for Active; 'I' for Inactive)
REMARK    1  A    between atoms: C_1  and  C_2
REMARK    2  A    between atoms: N_6  and  C_7
REMARK    3  A    between atoms: C_7  and  C_8
REMARK    4  A    between atoms: C_8  and  C_9
REMARK    5  A    between atoms: N_11  and  C_12
REMARK    6  A    between atoms: C_12  and  C_13
REMARK    7  A    between atoms: C_12  and  C_20
REMARK    8  A    between atoms: C_13  and  C_14
REMARK    9  A    between atoms: C_22  and  O_23
REMARK                            x       y       z     vdW  Elec       q    Type
REMARK                         _______ _______ _______ _____ _____    ______ ____
ROOT
ATOM      1  C   UNL     1       3.081   5.003  17.682  0.00  0.00    +0.000 C 
ENDROOT
BRANCH   1   4
ATOM      2  C   UNL     1       5.444   5.276  16.967  0.00  0.00    +0.000 C 
ATOM      3  O   UNL     1       5.452   6.474  17.234  0.00  0.00    +0.000 OA
ATOM      4  N   UNL     1       4.330   4.483  17.120  0.00  0.00    +0.000 N 
ATOM      5  H   UNL     1       4.369   3.512  16.836  0.00  0.00    +0.000 HD
BRANCH   2   6
ATOM      6  C   UNL     1       6.661   4.558  16.417  0.00  0.00    +0.000 C 
BRANCH   6   7
ATOM      7  C   UNL     1       6.259   3.842  15.128  0.00  0.00    +0.000 C 
BRANCH   7  13
ATOM      8  C   UNL     1       5.830   2.968  12.134  0.00  0.00    +0.000 C 
ATOM      9  C   UNL     1       6.724   4.032  12.631  0.00  0.00    +0.000 A 
ATOM     10  N   UNL     1       7.475   4.840  11.910  0.00  0.00    +0.000 NA
ATOM     11  N   UNL     1       8.102   5.680  12.795  0.00  0.00    +0.000 NA
ATOM     12  N   UNL     1       7.755   5.398  14.043  0.00  0.00    +0.000 NA
ATOM     13  N   UNL     1       6.904   4.363  13.948  0.00  0.00    +0.000 N 
ENDBRANCH   7  13
ENDBRANCH   6   7
ENDBRANCH   2   6
ENDBRANCH   1   4
BRANCH   1  14
ATOM     14  C   UNL     1       2.249   3.773  18.100  0.00  0.00    +0.000 C 
ATOM     15  C   UNL     1       2.814   2.371  17.718  0.00  0.00    +0.000 C 
ATOM     16  C   UNL     1       3.346   2.218  19.153  0.00  0.00    +0.000 C 
ATOM     17  C   UNL     1       2.322   3.288  19.583  0.00  0.00    +0.000 C 
BRANCH  16  18
ATOM     18  O   UNL     1       4.744   2.517  19.343  0.00  0.00    +0.000 OA
ATOM     19  H   UNL     1       5.213   2.136  18.583  0.00  0.00    +0.000 HD
ENDBRANCH  16  18
ENDBRANCH   1  14
BRANCH   1  20
ATOM     20  C   UNL     1       3.344   5.905  18.906  0.00  0.00    +0.000 C 
BRANCH  20  21
ATOM     21  C   UNL     1       2.475   7.137  19.047  0.00  0.00    +0.000 A 
ATOM     22  C   UNL     1       1.929   7.522  20.277  0.00  0.00    +0.000 A 
ATOM     23  C   UNL     1       1.257   8.730  20.363  0.00  0.00    +0.000 A 
ATOM     24  N   UNL     1       1.105   9.582  19.327  0.00  0.00    +0.000 NA
ATOM     25  C   UNL     1       1.641   9.202  18.147  0.00  0.00    +0.000 A 
ATOM     26  C   UNL     1       2.325   8.011  17.962  0.00  0.00    +0.000 A 
ENDBRANCH  20  21
ENDBRANCH   1  20
TORSDOF 8
ENDMDL
MODEL 3
REMARK VINA RESULT:      -7.6      1.949      3.106
REMARK  Name = 
REMARK  9 active torsions:
REMARK  status: ('A' for Active; 'I' for Inactive)
REMARK    1  A    between atoms: C_1  and  C_2
REMARK    2  A    between atoms: N_6  and  C_7
REMARK    3  A    between atoms: C_7  and  C_8
REMARK    4  A    between atoms: C_8  and  C_9
REMARK    5  A    between atoms: N_11  and  C_12
REMARK    6  A    between atoms: C_12  and  C_13
REMARK    7  A    between atoms: C_12  and  C_20
REMARK    8  A    between atoms: C_13  and  C_14
REMARK    9  A    between atoms: C_22  and  O_23
REMARK                            x       y       z     vdW  Elec       q    Type
REMARK                         _______ _______ _______ _____ _____    ______ ____
ROOT
ATOM      1  C   UNL     1       2.873   4.949  17.797  0.00  0.00    +0.000 C 
ENDROOT
BRANCH   1   4
ATOM      2  C   UNL     1       4.900   5.144  16.373  0.00  0.00    +0.000 C 
ATOM      3  O   UNL     1       4.614   6.281  16.013  0.00  0.00    +0.000 OA
ATOM      4  N   UNL     1       4.101   4.402  17.213  0.00  0.00    +0.000 N 
ATOM      5  H   UNL     1       4.363   3.450  17.436  0.00  0.00    +0.000 HD
BRANCH   2   6
ATOM      6  C   UNL     1       6.154   4.434  15.904  0.00  0.00    +0.000 C 
BRANCH   6   7
ATOM      7  C   UNL     1       7.198   4.508  17.018  0.00  0.00    +0.000 C 
BRANCH   7  13
ATOM      8  C   UNL     1       7.893   5.538  19.911  0.00  0.00    +0.000 C 
ATOM      9  C   UNL     1       7.851   6.334  18.668  0.00  0.00    +0.000 A 
ATOM     10  N   UNL     1       8.137   7.613  18.535  0.00  0.00    +0.000 NA
ATOM     11  N   UNL     1       7.991   7.907  17.203  0.00  0.00    +0.000 NA
ATOM     12  N   UNL     1       7.615   6.834  16.520  0.00  0.00    +0.000 NA
ATOM     13  N   UNL     1       7.515   5.853  17.431  0.00  0.00    +0.000 N 
ENDBRANCH   7  13
ENDBRANCH   6   7
ENDBRANCH   2   6
ENDBRANCH   1   4
BRANCH   1  14
ATOM     14  C   UNL     1       2.019   3.738  18.223  0.00  0.00    +0.000 C 
ATOM     15  C   UNL     1       2.487   2.333  17.735  0.00  0.00    +0.000 C 
ATOM     16  C   UNL     1       3.120   2.087  19.114  0.00  0.00    +0.000 C 
ATOM     17  C   UNL     1       2.184   3.178  19.672  0.00  0.00    +0.000 C 
BRANCH  16  18
ATOM     18  O   UNL     1       4.541   2.315  19.206  0.00  0.00    +0.000 OA
ATOM     19  H   UNL     1       4.929   1.501  19.564  0.00  0.00    +0.000 HD
ENDBRANCH  16  18
ENDBRANCH   1  14
BRANCH   1  20
ATOM     20  C   UNL     1       3.177   5.840  19.021  0.00  0.00    +0.000 C 
BRANCH  20  21
ATOM     21  C   UNL     1       2.368   7.111  19.159  0.00  0.00    +0.000 A 
ATOM     22  C   UNL     1       1.805   7.503  20.380  0.00  0.00    +0.000 A 
ATOM     23  C   UNL     1       1.192   8.741  20.469  0.00  0.00    +0.000 A 
ATOM     24  N   UNL     1       1.113   9.616  19.445  0.00  0.00    +0.000 NA
ATOM     25  C   UNL     1       1.664   9.230  18.274  0.00  0.00    +0.000 A 
ATOM     26  C   UNL     1       2.293   8.010  18.086  0.00  0.00    +0.000 A 
ENDBRANCH  20  21
ENDBRANCH   1  20
TORSDOF 8
ENDMDL
MODEL 4
REMARK VINA RESULT:      -7.6      1.624      2.132
REMARK  Name = 
REMARK  9 active torsions:
REMARK  status: ('A' for Active; 'I' for Inactive)
REMARK    1  A    between atoms: C_1  and  C_2
REMARK    2  A    between atoms: N_6  and  C_7
REMARK    3  A    between atoms: C_7  and  C_8
REMARK    4  A    between atoms: C_8  and  C_9
REMARK    5  A    between atoms: N_11  and  C_12
REMARK    6  A    between atoms: C_12  and  C_13
REMARK    7  A    between atoms: C_12  and  C_20
REMARK    8  A    between atoms: C_13  and  C_14
REMARK    9  A    between atoms: C_22  and  O_23
REMARK                            x       y       z     vdW  Elec       q    Type
REMARK                         _______ _______ _______ _____ _____    ______ ____
ROOT
ATOM      1  C   UNL     1       1.961   5.549  20.107  0.00  0.00    +0.000 C 
ENDROOT
BRANCH   1   4
ATOM      2  C   UNL     1       4.185   5.232  19.044  0.00  0.00    +0.000 C 
ATOM      3  O   UNL     1       3.712   5.218  17.913  0.00  0.00    +0.000 OA
ATOM      4  N   UNL     1       3.412   5.357  20.177  0.00  0.00    +0.000 N 
ATOM      5  H   UNL     1       3.854   5.312  21.087  0.00  0.00    +0.000 HD
BRANCH   2   6
ATOM      6  C   UNL     1       5.671   5.089  19.306  0.00  0.00    +0.000 C 
BRANCH   6   7
ATOM      7  C   UNL     1       6.271   4.195  18.222  0.00  0.00    +0.000 C 
BRANCH   7  13
ATOM      8  C   UNL     1       5.921   3.571  15.155  0.00  0.00    +0.000 C 
ATOM      9  C   UNL     1       6.657   4.701  15.757  0.00  0.00    +0.000 A 
ATOM     10  N   UNL     1       7.267   5.681  15.119  0.00  0.00    +0.000 NA
ATOM     11  N   UNL     1       7.778   6.512  16.083  0.00  0.00    +0.000 NA
ATOM     12  N   UNL     1       7.499   6.057  17.298  0.00  0.00    +0.000 NA
ATOM     13  N   UNL     1       6.810   4.922  17.100  0.00  0.00    +0.000 N 
ENDBRANCH   7  13
ENDBRANCH   6   7
ENDBRANCH   2   6
ENDBRANCH   1   4
BRANCH   1  14
ATOM     14  C   UNL     1       1.328   4.332  20.811  0.00  0.00    +0.000 C 
ATOM     15  C   UNL     1       0.684   3.242  19.902  0.00  0.00    +0.000 C 
ATOM     16  C   UNL     1       1.954   2.389  20.060  0.00  0.00    +0.000 C 
ATOM     17  C   UNL     1       2.266   3.198  21.334  0.00  0.00    +0.000 C 
BRANCH  16  18
ATOM     18  O   UNL     1       2.901   2.461  18.974  0.00  0.00    +0.000 OA
ATOM     19  H   UNL     1       3.174   1.549  18.785  0.00  0.00    +0.000 HD
ENDBRANCH  16  18
ENDBRANCH   1  14
BRANCH   1  20
ATOM     20  C   UNL     1       1.530   6.853  20.811  0.00  0.00    +0.000 C 
BRANCH  20  21
ATOM     21  C   UNL     1       1.533   8.115  19.976  0.00  0.00    +0.000 A 
ATOM     22  C   UNL     1       2.029   8.136  18.666  0.00  0.00    +0.000 A 
ATOM     23  C   UNL     1       1.879   9.287  17.912  0.00  0.00    +0.000 A 
ATOM     24  N   UNL     1       1.264  10.403  18.356  0.00  0.00    +0.000 NA
ATOM     25  C   UNL     1       0.786  10.369  19.618  0.00  0.00    +0.000 A 
ATOM     26  C   UNL     1       0.892   9.267  20.451  0.00  0.00    +0.000 A 
ENDBRANCH  20  21
ENDBRANCH   1  20
TORSDOF 8
ENDMDL
MODEL 5
REMARK VINA RESULT:      -7.6      2.830      7.509
REMARK  Name = 
REMARK  9 active torsions:
REMARK  status: ('A' for Active; 'I' for Inactive)
REMARK    1  A    between atoms: C_1  and  C_2
REMARK    2  A    between atoms: N_6  and  C_7
REMARK    3  A    between atoms: C_7  and  C_8
REMARK    4  A    between atoms: C_8  and  C_9
REMARK    5  A    between atoms: N_11  and  C_12
REMARK    6  A    between atoms: C_12  and  C_13
REMARK    7  A    between atoms: C_12  and  C_20
REMARK    8  A    between atoms: C_13  and  C_14
REMARK    9  A    between atoms: C_22  and  O_23
REMARK                            x       y       z     vdW  Elec       q    Type
REMARK                         _______ _______ _______ _____ _____    ______ ____
ROOT
ATOM      1  C   UNL     1       5.304   4.479  16.797  0.00  0.00    +0.000 C 
ENDROOT
BRANCH   1   4
ATOM      2  C   UNL     1       3.079   5.156  17.670  0.00  0.00    +0.000 C 
ATOM      3  O   UNL     1       3.347   6.351  17.603  0.00  0.00    +0.000 OA
ATOM      4  N   UNL     1       3.975   4.168  17.330  0.00  0.00    +0.000 N 
ATOM      5  H   UNL     1       3.715   3.197  17.454  0.00  0.00    +0.000 HD
BRANCH   2   6
ATOM      6  C   UNL     1       1.736   4.650  18.157  0.00  0.00    +0.000 C 
BRANCH   6   7
ATOM      7  C   UNL     1       1.873   3.168  18.504  0.00  0.00    +0.000 C 
BRANCH   7  13
ATOM      8  C   UNL     1       4.428   2.217  20.079  0.00  0.00    +0.000 C 
ATOM      9  C   UNL     1       3.099   2.526  20.641  0.00  0.00    +0.000 A 
ATOM     10  N   UNL     1       2.749   2.501  21.912  0.00  0.00    +0.000 NA
ATOM     11  N   UNL     1       1.434   2.891  21.960  0.00  0.00    +0.000 NA
ATOM     12  N   UNL     1       0.971   3.147  20.744  0.00  0.00    +0.000 NA
ATOM     13  N   UNL     1       2.002   2.910  19.917  0.00  0.00    +0.000 N 
ENDBRANCH   7  13
ENDBRANCH   6   7
ENDBRANCH   2   6
ENDBRANCH   1   4
BRANCH   1  14
ATOM     14  C   UNL     1       6.268   4.467  18.001  0.00  0.00    +0.000 C 
ATOM     15  C   UNL     1       7.779   4.707  17.703  0.00  0.00    +0.000 C 
ATOM     16  C   UNL     1       7.610   6.173  18.139  0.00  0.00    +0.000 C 
ATOM     17  C   UNL     1       6.348   5.736  18.909  0.00  0.00    +0.000 C 
BRANCH  16  18
ATOM     18  O   UNL     1       7.445   7.132  17.075  0.00  0.00    +0.000 OA
ATOM     19  H   UNL     1       8.177   7.765  17.158  0.00  0.00    +0.000 HD
ENDBRANCH  16  18
ENDBRANCH   1  14
BRANCH   1  20
ATOM     20  C   UNL     1       5.751   3.435  15.751  0.00  0.00    +0.000 C 
BRANCH  20  21
ATOM     21  C   UNL     1       6.274   3.968  14.434  0.00  0.00    +0.000 A 
ATOM     22  C   UNL     1       7.249   4.973  14.376  0.00  0.00    +0.000 A 
ATOM     23  C   UNL     1       7.780   5.319  13.145  0.00  0.00    +0.000 A 
ATOM     24  N   UNL     1       7.427   4.734  11.981  0.00  0.00    +0.000 NA
ATOM     25  C   UNL     1       6.491   3.763  12.051  0.00  0.00    +0.000 A 
ATOM     26  C   UNL     1       5.898   3.351  13.233  0.00  0.00    +0.000 A 
ENDBRANCH  20  21
ENDBRANCH   1  20
TORSDOF 8
ENDMDL
MODEL 6
REMARK VINA RESULT:      -7.5      2.158      2.604
REMARK  Name = 
REMARK  9 active torsions:
REMARK  status: ('A' for Active; 'I' for Inactive)
REMARK    1  A    between atoms: C_1  and  C_2
REMARK    2  A    between atoms: N_6  and  C_7
REMARK    3  A    between atoms: C_7  and  C_8
REMARK    4  A    between atoms: C_8  and  C_9
REMARK    5  A    between atoms: N_11  and  C_12
REMARK    6  A    between atoms: C_12  and  C_13
REMARK    7  A    between atoms: C_12  and  C_20
REMARK    8  A    between atoms: C_13  and  C_14
REMARK    9  A    between atoms: C_22  and  O_23
REMARK                            x       y       z     vdW  Elec       q    Type
REMARK                         _______ _______ _______ _____ _____    ______ ____
ROOT
ATOM      1  C   UNL     1       2.066   5.076  20.031  0.00  0.00    +0.000 C 
ENDROOT
BRANCH   1   4
ATOM      2  C   UNL     1       2.533   4.373  17.694  0.00  0.00    +0.000 C 
ATOM      3  O   UNL     1       1.342   4.299  17.412  0.00  0.00    +0.000 OA
ATOM      4  N   UNL     1       2.985   4.711  18.950  0.00  0.00    +0.000 N 
ATOM      5  H   UNL     1       3.980   4.707  19.138  0.00  0.00    +0.000 HD
BRANCH   2   6
ATOM      6  C   UNL     1       3.627   4.073  16.689  0.00  0.00    +0.000 C 
BRANCH   6   7
ATOM      7  C   UNL     1       4.635   5.222  16.712  0.00  0.00    +0.000 C 
BRANCH   7  13
ATOM      8  C   UNL     1       7.111   4.697  14.838  0.00  0.00    +0.000 C 
ATOM      9  C   UNL     1       7.075   4.612  16.312  0.00  0.00    +0.000 A 
ATOM     10  N   UNL     1       8.083   4.341  17.116  0.00  0.00    +0.000 NA
ATOM     11  N   UNL     1       7.588   4.404  18.394  0.00  0.00    +0.000 NA
ATOM     12  N   UNL     1       6.295   4.700  18.387  0.00  0.00    +0.000 NA
ATOM     13  N   UNL     1       5.967   4.820  17.090  0.00  0.00    +0.000 N 
ENDBRANCH   7  13
ENDBRANCH   6   7
ENDBRANCH   2   6
ENDBRANCH   1   4
BRANCH   1  14
ATOM     14  C   UNL     1       2.199   3.975  21.103  0.00  0.00    +0.000 C 
ATOM     15  C   UNL     1       1.027   2.953  21.219  0.00  0.00    +0.000 C 
ATOM     16  C   UNL     1       1.853   1.945  20.403  0.00  0.00    +0.000 C 
ATOM     17  C   UNL     1       3.110   2.743  20.802  0.00  0.00    +0.000 C 
BRANCH  16  18
ATOM     18  O   UNL     1       1.534   1.858  19.000  0.00  0.00    +0.000 OA
ATOM     19  H   UNL     1       0.585   2.050  18.920  0.00  0.00    +0.000 HD
ENDBRANCH  16  18
ENDBRANCH   1  14
BRANCH   1  20
ATOM     20  C   UNL     1       2.422   6.451  20.636  0.00  0.00    +0.000 C 
BRANCH  20  21
ATOM     21  C   UNL     1       2.004   7.674  19.849  0.00  0.00    +0.000 A 
ATOM     22  C   UNL     1       2.318   7.825  18.492  0.00  0.00    +0.000 A 
ATOM     23  C   UNL     1       1.790   8.901  17.799  0.00  0.00    +0.000 A 
ATOM     24  N   UNL     1       0.968   9.820  18.348  0.00  0.00    +0.000 NA
ATOM     25  C   UNL     1       0.668   9.660  19.654  0.00  0.00    +0.000 A 
ATOM     26  C   UNL     1       1.150   8.620  20.432  0.00  0.00    +0.000 A 
ENDBRANCH  20  21
ENDBRANCH   1  20
TORSDOF 8
ENDMDL
MODEL 7
REMARK VINA RESULT:      -7.5      2.949      5.724
REMARK  Name = 
REMARK  9 active torsions:
REMARK  status: ('A' for Active; 'I' for Inactive)
REMARK    1  A    between atoms: C_1  and  C_2
REMARK    2  A    between atoms: N_6  and  C_7
REMARK    3  A    between atoms: C_7  and  C_8
REMARK    4  A    between atoms: C_8  and  C_9
REMARK    5  A    between atoms: N_11  and  C_12
REMARK    6  A    between atoms: C_12  and  C_13
REMARK    7  A    between atoms: C_12  and  C_20
REMARK    8  A    between atoms: C_13  and  C_14
REMARK    9  A    between atoms: C_22  and  O_23
REMARK                            x       y       z     vdW  Elec       q    Type
REMARK                         _______ _______ _______ _____ _____    ______ ____
ROOT
ATOM      1  C   UNL     1       4.974   5.924  17.810  0.00  0.00    +0.000 C 
ENDROOT
BRANCH   1   4
ATOM      2  C   UNL     1       4.620   3.519  18.321  0.00  0.00    +0.000 C 
ATOM      3  O   UNL     1       5.084   3.626  19.452  0.00  0.00    +0.000 OA
ATOM      4  N   UNL     1       4.553   4.571  17.437  0.00  0.00    +0.000 N 
ATOM      5  H   UNL     1       4.206   4.411  16.499  0.00  0.00    +0.000 HD
BRANCH   2   6
ATOM      6  C   UNL     1       4.096   2.204  17.779  0.00  0.00    +0.000 C 
BRANCH   6   7
ATOM      7  C   UNL     1       3.358   1.476  18.902  0.00  0.00    +0.000 C 
BRANCH   7  13
ATOM      8  C   UNL     1       2.491   2.731  21.657  0.00  0.00    +0.000 C 
ATOM      9  C   UNL     1       1.688   2.654  20.421  0.00  0.00    +0.000 A 
ATOM     10  N   UNL     1       0.475   3.134  20.231  0.00  0.00    +0.000 NA
ATOM     11  N   UNL     1       0.148   2.858  18.927  0.00  0.00    +0.000 NA
ATOM     12  N   UNL     1       1.133   2.212  18.318  0.00  0.00    +0.000 NA
ATOM     13  N   UNL     1       2.092   2.073  19.248  0.00  0.00    +0.000 N 
ENDBRANCH   7  13
ENDBRANCH   6   7
ENDBRANCH   2   6
ENDBRANCH   1   4
BRANCH   1  14
ATOM     14  C   UNL     1       6.408   6.096  17.270  0.00  0.00    +0.000 C 
ATOM     15  C   UNL     1       7.351   7.059  18.053  0.00  0.00    +0.000 C 
ATOM     16  C   UNL     1       7.995   5.841  18.736  0.00  0.00    +0.000 C 
ATOM     17  C   UNL     1       7.461   4.982  17.572  0.00  0.00    +0.000 C 
BRANCH  16  18
ATOM     18  O   UNL     1       7.519   5.537  20.063  0.00  0.00    +0.000 OA
ATOM     19  H   UNL     1       8.299   5.289  20.586  0.00  0.00    +0.000 HD
ENDBRANCH  16  18
ENDBRANCH   1  14
BRANCH   1  20
ATOM     20  C   UNL     1       4.045   6.994  17.198  0.00  0.00    +0.000 C 
BRANCH  20  21
ATOM     21  C   UNL     1       3.090   7.692  18.142  0.00  0.00    +0.000 A 
ATOM     22  C   UNL     1       2.382   8.841  17.766  0.00  0.00    +0.000 A 
ATOM     23  C   UNL     1       1.426   9.350  18.628  0.00  0.00    +0.000 A 
ATOM     24  N   UNL     1       1.114   8.796  19.819  0.00  0.00    +0.000 NA
ATOM     25  C   UNL     1       1.799   7.687  20.168  0.00  0.00    +0.000 A 
ATOM     26  C   UNL     1       2.777   7.106  19.376  0.00  0.00    +0.000 A 
ENDBRANCH  20  21
ENDBRANCH   1  20
TORSDOF 8
ENDMDL
MODEL 8
REMARK VINA RESULT:      -7.4      2.178      7.662
REMARK  Name = 
REMARK  9 active torsions:
REMARK  status: ('A' for Active; 'I' for Inactive)
REMARK    1  A    between atoms: C_1  and  C_2
REMARK    2  A    between atoms: N_6  and  C_7
REMARK    3  A    between atoms: C_7  and  C_8
REMARK    4  A    between atoms: C_8  and  C_9
REMARK    5  A    between atoms: N_11  and  C_12
REMARK    6  A    between atoms: C_12  and  C_13
REMARK    7  A    between atoms: C_12  and  C_20
REMARK    8  A    between atoms: C_13  and  C_14
REMARK    9  A    between atoms: C_22  and  O_23
REMARK                            x       y       z     vdW  Elec       q    Type
REMARK                         _______ _______ _______ _____ _____    ______ ____
ROOT
ATOM      1  C   UNL     1       3.112   5.215  18.426  0.00  0.00    +0.000 C 
ENDROOT
BRANCH   1   4
ATOM      2  C   UNL     1       1.957   5.840  20.534  0.00  0.00    +0.000 C 
ATOM      3  O   UNL     1       2.447   4.901  21.154  0.00  0.00    +0.000 OA
ATOM      4  N   UNL     1       2.195   6.058  19.197  0.00  0.00    +0.000 N 
ATOM      5  H   UNL     1       1.724   6.821  18.726  0.00  0.00    +0.000 HD
BRANCH   2   6
ATOM      6  C   UNL     1       1.020   6.840  21.181  0.00  0.00    +0.000 C 
BRANCH   6   7
ATOM      7  C   UNL     1       1.458   8.247  20.777  0.00  0.00    +0.000 C 
BRANCH   7  13
ATOM      8  C   UNL     1      -0.603  10.285  19.547  0.00  0.00    +0.000 C 
ATOM      9  C   UNL     1      -0.188  10.182  20.960  0.00  0.00    +0.000 A 
ATOM     10  N   UNL     1      -0.635  10.896  21.973  0.00  0.00    +0.000 NA
ATOM     11  N   UNL     1       0.008  10.429  23.091  0.00  0.00    +0.000 NA
ATOM     12  N   UNL     1       0.846   9.448  22.781  0.00  0.00    +0.000 NA
ATOM     13  N   UNL     1       0.736   9.298  21.451  0.00  0.00    +0.000 N 
ENDBRANCH   7  13
ENDBRANCH   6   7
ENDBRANCH   2   6
ENDBRANCH   1   4
BRANCH   1  14
ATOM     14  C   UNL     1       2.230   4.237  17.622  0.00  0.00    +0.000 C 
ATOM     15  C   UNL     1       2.756   2.780  17.456  0.00  0.00    +0.000 C 
ATOM     16  C   UNL     1       1.822   2.335  18.594  0.00  0.00    +0.000 C 
ATOM     17  C   UNL     1       0.987   3.602  18.323  0.00  0.00    +0.000 C 
BRANCH  16  18
ATOM     18  O   UNL     1       2.430   2.202  19.894  0.00  0.00    +0.000 OA
ATOM     19  H   UNL     1       1.825   2.621  20.527  0.00  0.00    +0.000 HD
ENDBRANCH  16  18
ENDBRANCH   1  14
BRANCH   1  20
ATOM     20  C   UNL     1       3.981   6.055  17.466  0.00  0.00    +0.000 C 
BRANCH  20  21
ATOM     21  C   UNL     1       5.266   5.423  16.976  0.00  0.00    +0.000 A 
ATOM     22  C   UNL     1       5.566   5.313  15.613  0.00  0.00    +0.000 A 
ATOM     23  C   UNL     1       6.815   4.848  15.236  0.00  0.00    +0.000 A 
ATOM     24  N   UNL     1       7.784   4.503  16.110  0.00  0.00    +0.000 NA
ATOM     25  C   UNL     1       7.486   4.619  17.422  0.00  0.00    +0.000 A 
ATOM     26  C   UNL     1       6.264   5.069  17.896  0.00  0.00    +0.000 A 
ENDBRANCH  20  21
ENDBRANCH   1  20
TORSDOF 8
ENDMDL
MODEL 9
REMARK VINA RESULT:      -7.4      2.360      7.417
REMARK  Name = 
REMARK  9 active torsions:
REMARK  status: ('A' for Active; 'I' for Inactive)
REMARK    1  A    between atoms: C_1  and  C_2
REMARK    2  A    between atoms: N_6  and  C_7
REMARK    3  A    between atoms: C_7  and  C_8
REMARK    4  A    between atoms: C_8  and  C_9
REMARK    5  A    between atoms: N_11  and  C_12
REMARK    6  A    between atoms: C_12  and  C_13
REMARK    7  A    between atoms: C_12  and  C_20
REMARK    8  A    between atoms: C_13  and  C_14
REMARK    9  A    between atoms: C_22  and  O_23
REMARK                            x       y       z     vdW  Elec       q    Type
REMARK                         _______ _______ _______ _____ _____    ______ ____
ROOT
ATOM      1  C   UNL     1       3.628   4.045  19.304  0.00  0.00    +0.000 C 
ENDROOT
BRANCH   1   4
ATOM      2  C   UNL     1       2.360   6.048  20.046  0.00  0.00    +0.000 C 
ATOM      3  O   UNL     1       1.792   5.433  20.943  0.00  0.00    +0.000 OA
ATOM      4  N   UNL     1       3.246   5.453  19.177  0.00  0.00    +0.000 N 
ATOM      5  H   UNL     1       3.646   6.000  18.424  0.00  0.00    +0.000 HD
BRANCH   2   6
ATOM      6  C   UNL     1       2.120   7.523  19.793  0.00  0.00    +0.000 C 
BRANCH   6   7
ATOM      7  C   UNL     1       1.397   8.111  21.004  0.00  0.00    +0.000 C 
BRANCH   7  13
ATOM      8  C   UNL     1      -0.420   9.786  22.956  0.00  0.00    +0.000 C 
ATOM      9  C   UNL     1      -0.208  10.022  21.514  0.00  0.00    +0.000 A 
ATOM     10  N   UNL     1      -0.708  11.001  20.787  0.00  0.00    +0.000 NA
ATOM     11  N   UNL     1      -0.214  10.834  19.518  0.00  0.00    +0.000 NA
ATOM     12  N   UNL     1       0.572   9.768  19.452  0.00  0.00    +0.000 NA
ATOM     13  N   UNL     1       0.570   9.251  20.691  0.00  0.00    +0.000 N 
ENDBRANCH   7  13
ENDBRANCH   6   7
ENDBRANCH   2   6
ENDBRANCH   1   4
BRANCH   1  14
ATOM     14  C   UNL     1       2.867   3.287  18.196  0.00  0.00    +0.000 C 
ATOM     15  C   UNL     1       2.189   1.941  18.595  0.00  0.00    +0.000 C 
ATOM     16  C   UNL     1       0.843   2.677  18.706  0.00  0.00    +0.000 C 
ATOM     17  C   UNL     1       1.437   3.776  17.802  0.00  0.00    +0.000 C 
BRANCH  16  18
ATOM     18  O   UNL     1       0.438   3.053  20.037  0.00  0.00    +0.000 OA
ATOM     19  H   UNL     1       1.232   3.389  20.483  0.00  0.00    +0.000 HD
ENDBRANCH  16  18
ENDBRANCH   1  14
BRANCH   1  20
ATOM     20  C   UNL     1       5.150   3.854  19.127  0.00  0.00    +0.000 C 
BRANCH  20  21
ATOM     21  C   UNL     1       5.847   4.783  18.157  0.00  0.00    +0.000 A 
ATOM     22  C   UNL     1       6.651   5.843  18.594  0.00  0.00    +0.000 A 
ATOM     23  C   UNL     1       7.367   6.571  17.659  0.00  0.00    +0.000 A 
ATOM     24  N   UNL     1       7.353   6.313  16.334  0.00  0.00    +0.000 NA
ATOM     25  C   UNL     1       6.579   5.286  15.925  0.00  0.00    +0.000 A 
ATOM     26  C   UNL     1       5.823   4.504  16.784  0.00  0.00    +0.000 A 
ENDBRANCH  20  21
ENDBRANCH   1  20
TORSDOF 8
ENDMDL
