MODEL 1
REMARK VINA RESULT:      -8.5      0.000      0.000
REMARK  Name = 
REMARK  8 active torsions:
REMARK  status: ('A' for Active; 'I' for Inactive)
REMARK    1  A    between atoms: C_1  and  O_2
REMARK    2  A    between atoms: O_2  and  C_3
REMARK    3  A    between atoms: C_3  and  C_5
REMARK    4  A    between atoms: N_11  and  C_12
REMARK    5  A    between atoms: N_19  and  C_20
REMARK    6  A    between atoms: C_20  and  C_21
REMARK    7  A    between atoms: C_25  and  O_26
REMARK    8  A    between atoms: O_26  and  C_27
REMARK                            x       y       z     vdW  Elec       q    Type
REMARK                         _______ _______ _______ _____ _____    ______ ____
ROOT
ATOM      1  C   UNL     1       2.155   4.889  20.041  0.00  0.00    +0.000 A 
ATOM      2  C   UNL     1       1.506   5.944  20.677  0.00  0.00    +0.000 A 
ATOM      3  C   UNL     1       1.749   7.099  19.898  0.00  0.00    +0.000 A 
ATOM      4  C   UNL     1       2.467   6.734  18.805  0.00  0.00    +0.000 A 
ATOM      5  C   UNL     1       2.647   7.866  17.977  0.00  0.00    +0.000 A 
ATOM      6  C   UNL     1       1.992   8.892  18.631  0.00  0.00    +0.000 A 
ATOM      7  N   UNL     1       1.461   8.450  19.834  0.00  0.00    +0.000 N 
ATOM      8  N   UNL     1       2.739   5.382  18.880  0.00  0.00    +0.000 N 
ENDROOT
BRANCH   7   9
ATOM      9  C   UNL     1       0.741   9.216  20.787  0.00  0.00    +0.000 A 
ATOM     10  C   UNL     1       0.767   8.858  22.142  0.00  0.00    +0.000 A 
ATOM     11  C   UNL     1       0.083   9.637  23.078  0.00  0.00    +0.000 A 
ATOM     12  C   UNL     1      -0.641  10.746  22.657  0.00  0.00    +0.000 A 
ATOM     13  F   UNL     1      -1.302  11.485  23.557  0.00  0.00    +0.000 F 
ATOM     14  C   UNL     1      -0.693  11.098  21.315  0.00  0.00    +0.000 A 
ATOM     15  C   UNL     1       0.005  10.338  20.375  0.00  0.00    +0.000 A 
ENDBRANCH   7   9
BRANCH   1  16
ATOM     16  C   UNL     1       2.196   3.511  20.505  0.00  0.00    +0.000 C 
ATOM     17  O   UNL     1       3.173   2.925  20.957  0.00  0.00    +0.000 OA
BRANCH  16  19
ATOM     18  C   UNL     1       0.682   2.404  19.081  0.00  0.00    +0.000 C 
ATOM     19  O   UNL     1       0.958   2.954  20.368  0.00  0.00    +0.000 OA
ENDBRANCH  16  19
ENDBRANCH   1  16
BRANCH   8  20
ATOM     20  C   UNL     1       3.361   4.654  17.786  0.00  0.00    +0.000 C 
BRANCH  20  21
ATOM     21  C   UNL     1       4.850   4.880  17.676  0.00  0.00    +0.000 A 
ATOM     22  C   UNL     1       5.630   5.035  18.829  0.00  0.00    +0.000 A 
ATOM     23  C   UNL     1       7.017   5.140  18.739  0.00  0.00    +0.000 A 
ATOM     24  C   UNL     1       7.640   5.085  17.493  0.00  0.00    +0.000 A 
ATOM     25  C   UNL     1       6.884   4.949  16.328  0.00  0.00    +0.000 A 
ATOM     26  C   UNL     1       5.492   4.864  16.422  0.00  0.00    +0.000 A 
BRANCH  25  27
ATOM     27  O   UNL     1       7.621   4.882  15.178  0.00  0.00    +0.000 OA
ATOM     28  C   UNL     1       6.922   4.596  13.973  0.00  0.00    +0.000 C 
ENDBRANCH  25  27
ENDBRANCH  20  21
ENDBRANCH   8  20
TORSDOF 6
ENDMDL
MODEL 2
REMARK VINA RESULT:      -8.4      0.639      1.112
REMARK  Name = 
REMARK  8 active torsions:
REMARK  status: ('A' for Active; 'I' for Inactive)
REMARK    1  A    between atoms: C_1  and  O_2
REMARK    2  A    between atoms: O_2  and  C_3
REMARK    3  A    between atoms: C_3  and  C_5
REMARK    4  A    between atoms: N_11  and  C_12
REMARK    5  A    between atoms: N_19  and  C_20
REMARK    6  A    between atoms: C_20  and  C_21
REMARK    7  A    between atoms: C_25  and  O_26
REMARK    8  A    between atoms: O_26  and  C_27
REMARK                            x       y       z     vdW  Elec       q    Type
REMARK                         _______ _______ _______ _____ _____    ______ ____
ROOT
ATOM      1  C   UNL     1       2.344   4.433  20.262  0.00  0.00    +0.000 A 
ATOM      2  C   UNL     1       1.729   5.557  20.808  0.00  0.00    +0.000 A 
ATOM      3  C   UNL     1       1.996   6.633  19.930  0.00  0.00    +0.000 A 
ATOM      4  C   UNL     1       2.694   6.155  18.868  0.00  0.00    +0.000 A 
ATOM      5  C   UNL     1       2.896   7.205  17.943  0.00  0.00    +0.000 A 
ATOM      6  C   UNL     1       2.275   8.301  18.511  0.00  0.00    +0.000 A 
ATOM      7  N   UNL     1       1.743   7.981  19.750  0.00  0.00    +0.000 N 
ATOM      8  N   UNL     1       2.930   4.808  19.059  0.00  0.00    +0.000 N 
ENDROOT
BRANCH   7   9
ATOM      9  C   UNL     1       1.053   8.846  20.639  0.00  0.00    +0.000 A 
ATOM     10  C   UNL     1       0.231   9.862  20.134  0.00  0.00    +0.000 A 
ATOM     11  C   UNL     1      -0.471  10.688  21.016  0.00  0.00    +0.000 A 
ATOM     12  C   UNL     1      -0.328  10.514  22.387  0.00  0.00    +0.000 A 
ATOM     13  F   UNL     1      -0.996  11.313  23.228  0.00  0.00    +0.000 F 
ATOM     14  C   UNL     1       0.501   9.525  22.899  0.00  0.00    +0.000 A 
ATOM     15  C   UNL     1       1.189   8.682  22.026  0.00  0.00    +0.000 A 
ENDBRANCH   7   9
BRANCH   1  16
ATOM     16  C   UNL     1       2.352   3.100  20.844  0.00  0.00    +0.000 C 
ATOM     17  O   UNL     1       2.675   2.809  21.990  0.00  0.00    +0.000 OA
BRANCH  16  19
ATOM     18  C   UNL     1       0.610   2.412  19.415  0.00  0.00    +0.000 C 
ATOM     19  O   UNL     1       1.931   2.199  19.909  0.00  0.00    +0.000 OA
ENDBRANCH  16  19
ENDBRANCH   1  16
BRANCH   8  20
ATOM     20  C   UNL     1       3.522   3.971  18.027  0.00  0.00    +0.000 C 
BRANCH  20  21
ATOM     21  C   UNL     1       4.926   4.377  17.648  0.00  0.00    +0.000 A 
ATOM     22  C   UNL     1       5.854   4.727  18.637  0.00  0.00    +0.000 A 
ATOM     23  C   UNL     1       7.179   5.002  18.302  0.00  0.00    +0.000 A 
ATOM     24  C   UNL     1       7.590   4.926  16.973  0.00  0.00    +0.000 A 
ATOM     25  C   UNL     1       6.681   4.597  15.966  0.00  0.00    +0.000 A 
ATOM     26  C   UNL     1       5.350   4.341  16.305  0.00  0.00    +0.000 A 
BRANCH  25  27
ATOM     27  O   UNL     1       7.222   4.532  14.712  0.00  0.00    +0.000 OA
ATOM     28  C   UNL     1       6.393   4.032  13.671  0.00  0.00    +0.000 C 
ENDBRANCH  25  27
ENDBRANCH  20  21
ENDBRANCH   8  20
TORSDOF 6
ENDMDL
MODEL 3
REMARK VINA RESULT:      -8.3      0.729      1.423
REMARK  Name = 
REMARK  8 active torsions:
REMARK  status: ('A' for Active; 'I' for Inactive)
REMARK    1  A    between atoms: C_1  and  O_2
REMARK    2  A    between atoms: O_2  and  C_3
REMARK    3  A    between atoms: C_3  and  C_5
REMARK    4  A    between atoms: N_11  and  C_12
REMARK    5  A    between atoms: N_19  and  C_20
REMARK    6  A    between atoms: C_20  and  C_21
REMARK    7  A    between atoms: C_25  and  O_26
REMARK    8  A    between atoms: O_26  and  C_27
REMARK                            x       y       z     vdW  Elec       q    Type
REMARK                         _______ _______ _______ _____ _____    ______ ____
ROOT
ATOM      1  C   UNL     1       2.191   4.525  19.779  0.00  0.00    +0.000 A 
ATOM      2  C   UNL     1       1.608   5.609  20.431  0.00  0.00    +0.000 A 
ATOM      3  C   UNL     1       1.913   6.756  19.663  0.00  0.00    +0.000 A 
ATOM      4  C   UNL     1       2.601   6.362  18.561  0.00  0.00    +0.000 A 
ATOM      5  C   UNL     1       2.840   7.491  17.743  0.00  0.00    +0.000 A 
ATOM      6  C   UNL     1       2.250   8.545  18.413  0.00  0.00    +0.000 A 
ATOM      7  N   UNL     1       1.702   8.122  19.615  0.00  0.00    +0.000 N 
ATOM      8  N   UNL     1       2.795   4.996  18.619  0.00  0.00    +0.000 N 
ENDROOT
BRANCH   7   9
ATOM      9  C   UNL     1       1.034   8.917  20.582  0.00  0.00    +0.000 A 
ATOM     10  C   UNL     1       0.187   9.957  20.175  0.00  0.00    +0.000 A 
ATOM     11  C   UNL     1      -0.492  10.713  21.133  0.00  0.00    +0.000 A 
ATOM     12  C   UNL     1      -0.303  10.448  22.484  0.00  0.00    +0.000 A 
ATOM     13  F   UNL     1      -0.950  11.181  23.398  0.00  0.00    +0.000 F 
ATOM     14  C   UNL     1       0.551   9.436  22.900  0.00  0.00    +0.000 A 
ATOM     15  C   UNL     1       1.217   8.661  21.949  0.00  0.00    +0.000 A 
ENDBRANCH   7   9
BRANCH   1  16
ATOM     16  C   UNL     1       2.156   3.142  20.228  0.00  0.00    +0.000 C 
ATOM     17  O   UNL     1       1.309   2.305  19.937  0.00  0.00    +0.000 OA
BRANCH  16  19
ATOM     18  C   UNL     1       4.300   2.187  20.419  0.00  0.00    +0.000 C 
ATOM     19  O   UNL     1       3.230   2.903  21.035  0.00  0.00    +0.000 OA
ENDBRANCH  16  19
ENDBRANCH   1  16
BRANCH   8  20
ATOM     20  C   UNL     1       3.366   4.246  17.512  0.00  0.00    +0.000 C 
BRANCH  20  21
ATOM     21  C   UNL     1       4.815   4.574  17.241  0.00  0.00    +0.000 A 
ATOM     22  C   UNL     1       5.746   4.591  18.288  0.00  0.00    +0.000 A 
ATOM     23  C   UNL     1       7.101   4.791  18.029  0.00  0.00    +0.000 A 
ATOM     24  C   UNL     1       7.540   4.972  16.719  0.00  0.00    +0.000 A 
ATOM     25  C   UNL     1       6.631   4.976  15.660  0.00  0.00    +0.000 A 
ATOM     26  C   UNL     1       5.271   4.795  15.926  0.00  0.00    +0.000 A 
BRANCH  25  27
ATOM     27  O   UNL     1       7.197   5.136  14.426  0.00  0.00    +0.000 OA
ATOM     28  C   UNL     1       6.739   4.284  13.384  0.00  0.00    +0.000 C 
ENDBRANCH  25  27
ENDBRANCH  20  21
ENDBRANCH   8  20
TORSDOF 6
ENDMDL
MODEL 4
REMARK VINA RESULT:      -8.2      1.201      2.233
REMARK  Name = 
REMARK  8 active torsions:
REMARK  status: ('A' for Active; 'I' for Inactive)
REMARK    1  A    between atoms: C_1  and  O_2
REMARK    2  A    between atoms: O_2  and  C_3
REMARK    3  A    between atoms: C_3  and  C_5
REMARK    4  A    between atoms: N_11  and  C_12
REMARK    5  A    between atoms: N_19  and  C_20
REMARK    6  A    between atoms: C_20  and  C_21
REMARK    7  A    between atoms: C_25  and  O_26
REMARK    8  A    between atoms: O_26  and  C_27
REMARK                            x       y       z     vdW  Elec       q    Type
REMARK                         _______ _______ _______ _____ _____    ______ ____
ROOT
ATOM      1  C   UNL     1       2.054   4.242  19.301  0.00  0.00    +0.000 A 
ATOM      2  C   UNL     1       1.554   5.351  19.980  0.00  0.00    +0.000 A 
ATOM      3  C   UNL     1       2.007   6.494  19.281  0.00  0.00    +0.000 A 
ATOM      4  C   UNL     1       2.702   6.080  18.190  0.00  0.00    +0.000 A 
ATOM      5  C   UNL     1       3.090   7.212  17.438  0.00  0.00    +0.000 A 
ATOM      6  C   UNL     1       2.579   8.292  18.134  0.00  0.00    +0.000 A 
ATOM      7  N   UNL     1       1.937   7.875  19.290  0.00  0.00    +0.000 N 
ATOM      8  N   UNL     1       2.754   4.700  18.191  0.00  0.00    +0.000 N 
ENDROOT
BRANCH   7   9
ATOM      9  C   UNL     1       1.309   8.692  20.266  0.00  0.00    +0.000 A 
ATOM     10  C   UNL     1       0.497   9.763  19.870  0.00  0.00    +0.000 A 
ATOM     11  C   UNL     1      -0.144  10.541  20.837  0.00  0.00    +0.000 A 
ATOM     12  C   UNL     1       0.049  10.265  22.185  0.00  0.00    +0.000 A 
ATOM     13  F   UNL     1      -0.561  11.019  23.108  0.00  0.00    +0.000 F 
ATOM     14  C   UNL     1       0.870   9.221  22.591  0.00  0.00    +0.000 A 
ATOM     15  C   UNL     1       1.497   8.425  21.631  0.00  0.00    +0.000 A 
ENDBRANCH   7   9
BRANCH   1  16
ATOM     16  C   UNL     1       1.858   2.852  19.681  0.00  0.00    +0.000 C 
ATOM     17  O   UNL     1       1.163   2.029  19.096  0.00  0.00    +0.000 OA
BRANCH  16  19
ATOM     18  C   UNL     1       3.986   2.438  20.602  0.00  0.00    +0.000 C 
ATOM     19  O   UNL     1       2.583   2.588  20.807  0.00  0.00    +0.000 OA
ENDBRANCH  16  19
ENDBRANCH   1  16
BRANCH   8  20
ATOM     20  C   UNL     1       3.297   3.944  17.074  0.00  0.00    +0.000 C 
BRANCH  20  21
ATOM     21  C   UNL     1       4.769   4.186  16.836  0.00  0.00    +0.000 A 
ATOM     22  C   UNL     1       5.244   4.446  15.544  0.00  0.00    +0.000 A 
ATOM     23  C   UNL     1       6.583   4.772  15.333  0.00  0.00    +0.000 A 
ATOM     24  C   UNL     1       7.460   4.847  16.413  0.00  0.00    +0.000 A 
ATOM     25  C   UNL     1       7.015   4.576  17.708  0.00  0.00    +0.000 A 
ATOM     26  C   UNL     1       5.676   4.230  17.913  0.00  0.00    +0.000 A 
BRANCH  25  27
ATOM     27  O   UNL     1       7.970   4.712  18.677  0.00  0.00    +0.000 OA
ATOM     28  C   UNL     1       7.901   5.868  19.501  0.00  0.00    +0.000 C 
ENDBRANCH  25  27
ENDBRANCH  20  21
ENDBRANCH   8  20
TORSDOF 6
ENDMDL
MODEL 5
REMARK VINA RESULT:      -8.1      1.130      1.725
REMARK  Name = 
REMARK  8 active torsions:
REMARK  status: ('A' for Active; 'I' for Inactive)
REMARK    1  A    between atoms: C_1  and  O_2
REMARK    2  A    between atoms: O_2  and  C_3
REMARK    3  A    between atoms: C_3  and  C_5
REMARK    4  A    between atoms: N_11  and  C_12
REMARK    5  A    between atoms: N_19  and  C_20
REMARK    6  A    between atoms: C_20  and  C_21
REMARK    7  A    between atoms: C_25  and  O_26
REMARK    8  A    between atoms: O_26  and  C_27
REMARK                            x       y       z     vdW  Elec       q    Type
REMARK                         _______ _______ _______ _____ _____    ______ ____
ROOT
ATOM      1  C   UNL     1       2.373   4.294  20.169  0.00  0.00    +0.000 A 
ATOM      2  C   UNL     1       1.784   5.442  20.694  0.00  0.00    +0.000 A 
ATOM      3  C   UNL     1       2.071   6.494  19.793  0.00  0.00    +0.000 A 
ATOM      4  C   UNL     1       2.754   5.980  18.739  0.00  0.00    +0.000 A 
ATOM      5  C   UNL     1       2.974   7.006  17.792  0.00  0.00    +0.000 A 
ATOM      6  C   UNL     1       2.379   8.127  18.340  0.00  0.00    +0.000 A 
ATOM      7  N   UNL     1       1.845   7.843  19.588  0.00  0.00    +0.000 N 
ATOM      8  N   UNL     1       2.962   4.632  18.956  0.00  0.00    +0.000 N 
ENDROOT
BRANCH   7   9
ATOM      9  C   UNL     1       1.177   8.740  20.460  0.00  0.00    +0.000 A 
ATOM     10  C   UNL     1       1.239   8.550  21.848  0.00  0.00    +0.000 A 
ATOM     11  C   UNL     1       0.607   9.457  22.701  0.00  0.00    +0.000 A 
ATOM     12  C   UNL     1      -0.103  10.527  22.168  0.00  0.00    +0.000 A 
ATOM     13  F   UNL     1      -0.714  11.389  22.990  0.00  0.00    +0.000 F 
ATOM     14  C   UNL     1      -0.190  10.714  20.795  0.00  0.00    +0.000 A 
ATOM     15  C   UNL     1       0.457   9.824  19.936  0.00  0.00    +0.000 A 
ENDBRANCH   7   9
BRANCH   1  16
ATOM     16  C   UNL     1       2.355   2.973  20.777  0.00  0.00    +0.000 C 
ATOM     17  O   UNL     1       2.711   2.693  21.916  0.00  0.00    +0.000 OA
BRANCH  16  19
ATOM     18  C   UNL     1       0.566   2.364  19.372  0.00  0.00    +0.000 C 
ATOM     19  O   UNL     1       1.867   2.070  19.878  0.00  0.00    +0.000 OA
ENDBRANCH  16  19
ENDBRANCH   1  16
BRANCH   8  20
ATOM     20  C   UNL     1       3.532   3.762  17.939  0.00  0.00    +0.000 C 
BRANCH  20  21
ATOM     21  C   UNL     1       4.935   4.145  17.531  0.00  0.00    +0.000 A 
ATOM     22  C   UNL     1       5.357   3.980  16.206  0.00  0.00    +0.000 A 
ATOM     23  C   UNL     1       6.614   4.426  15.801  0.00  0.00    +0.000 A 
ATOM     24  C   UNL     1       7.460   5.047  16.717  0.00  0.00    +0.000 A 
ATOM     25  C   UNL     1       7.070   5.208  18.047  0.00  0.00    +0.000 A 
ATOM     26  C   UNL     1       5.817   4.741  18.453  0.00  0.00    +0.000 A 
BRANCH  25  27
ATOM     27  O   UNL     1       7.983   5.857  18.832  0.00  0.00    +0.000 OA
ATOM     28  C   UNL     1       8.190   7.241  18.581  0.00  0.00    +0.000 C 
ENDBRANCH  25  27
ENDBRANCH  20  21
ENDBRANCH   8  20
TORSDOF 6
ENDMDL
MODEL 6
REMARK VINA RESULT:      -8.0      1.312      1.823
REMARK  Name = 
REMARK  8 active torsions:
REMARK  status: ('A' for Active; 'I' for Inactive)
REMARK    1  A    between atoms: C_1  and  O_2
REMARK    2  A    between atoms: O_2  and  C_3
REMARK    3  A    between atoms: C_3  and  C_5
REMARK    4  A    between atoms: N_11  and  C_12
REMARK    5  A    between atoms: N_19  and  C_20
REMARK    6  A    between atoms: C_20  and  C_21
REMARK    7  A    between atoms: C_25  and  O_26
REMARK    8  A    between atoms: O_26  and  C_27
REMARK                            x       y       z     vdW  Elec       q    Type
REMARK                         _______ _______ _______ _____ _____    ______ ____
ROOT
ATOM      1  C   UNL     1       2.131   5.665  20.023  0.00  0.00    +0.000 A 
ATOM      2  C   UNL     1       1.404   6.651  20.685  0.00  0.00    +0.000 A 
ATOM      3  C   UNL     1       1.531   7.832  19.919  0.00  0.00    +0.000 A 
ATOM      4  C   UNL     1       2.257   7.546  18.809  0.00  0.00    +0.000 A 
ATOM      5  C   UNL     1       2.322   8.699  17.993  0.00  0.00    +0.000 A 
ATOM      6  C   UNL     1       1.592   9.655  18.674  0.00  0.00    +0.000 A 
ATOM      7  N   UNL     1       1.124   9.154  19.879  0.00  0.00    +0.000 N 
ATOM      8  N   UNL     1       2.648   6.222  18.859  0.00  0.00    +0.000 N 
ENDROOT
BRANCH   7   9
ATOM      9  C   UNL     1       0.358   9.841  20.856  0.00  0.00    +0.000 A 
ATOM     10  C   UNL     1      -0.324  11.017  20.516  0.00  0.00    +0.000 A 
ATOM     11  C   UNL     1      -1.103  11.669  21.475  0.00  0.00    +0.000 A 
ATOM     12  C   UNL     1      -1.174  11.163  22.767  0.00  0.00    +0.000 A 
ATOM     13  F   UNL     1      -1.915  11.796  23.685  0.00  0.00    +0.000 F 
ATOM     14  C   UNL     1      -0.485  10.011  23.123  0.00  0.00    +0.000 A 
ATOM     15  C   UNL     1       0.277   9.341  22.165  0.00  0.00    +0.000 A 
ENDBRANCH   7   9
BRANCH   1  16
ATOM     16  C   UNL     1       2.301   4.290  20.466  0.00  0.00    +0.000 C 
ATOM     17  O   UNL     1       3.360   3.746  20.758  0.00  0.00    +0.000 OA
BRANCH  16  19
ATOM     18  C   UNL     1       0.780   2.836  19.408  0.00  0.00    +0.000 C 
ATOM     19  O   UNL     1       1.081   3.680  20.518  0.00  0.00    +0.000 OA
ENDBRANCH  16  19
ENDBRANCH   1  16
BRANCH   8  20
ATOM     20  C   UNL     1       3.310   5.566  17.743  0.00  0.00    +0.000 C 
BRANCH  20  21
ATOM     21  C   UNL     1       4.817   5.632  17.809  0.00  0.00    +0.000 A 
ATOM     22  C   UNL     1       5.560   4.512  18.206  0.00  0.00    +0.000 A 
ATOM     23  C   UNL     1       6.953   4.535  18.170  0.00  0.00    +0.000 A 
ATOM     24  C   UNL     1       7.619   5.677  17.731  0.00  0.00    +0.000 A 
ATOM     25  C   UNL     1       6.903   6.812  17.346  0.00  0.00    +0.000 A 
ATOM     26  C   UNL     1       5.507   6.792  17.403  0.00  0.00    +0.000 A 
BRANCH  25  27
ATOM     27  O   UNL     1       7.678   7.852  16.912  0.00  0.00    +0.000 OA
ATOM     28  C   UNL     1       7.941   8.899  17.837  0.00  0.00    +0.000 C 
ENDBRANCH  25  27
ENDBRANCH  20  21
ENDBRANCH   8  20
TORSDOF 6
ENDMDL
MODEL 7
REMARK VINA RESULT:      -8.0      1.222      1.974
REMARK  Name = 
REMARK  8 active torsions:
REMARK  status: ('A' for Active; 'I' for Inactive)
REMARK    1  A    between atoms: C_1  and  O_2
REMARK    2  A    between atoms: O_2  and  C_3
REMARK    3  A    between atoms: C_3  and  C_5
REMARK    4  A    between atoms: N_11  and  C_12
REMARK    5  A    between atoms: N_19  and  C_20
REMARK    6  A    between atoms: C_20  and  C_21
REMARK    7  A    between atoms: C_25  and  O_26
REMARK    8  A    between atoms: O_26  and  C_27
REMARK                            x       y       z     vdW  Elec       q    Type
REMARK                         _______ _______ _______ _____ _____    ______ ____
ROOT
ATOM      1  C   UNL     1       1.991   4.236  19.262  0.00  0.00    +0.000 A 
ATOM      2  C   UNL     1       1.498   5.357  19.925  0.00  0.00    +0.000 A 
ATOM      3  C   UNL     1       1.993   6.488  19.236  0.00  0.00    +0.000 A 
ATOM      4  C   UNL     1       2.706   6.057  18.164  0.00  0.00    +0.000 A 
ATOM      5  C   UNL     1       3.137   7.179  17.419  0.00  0.00    +0.000 A 
ATOM      6  C   UNL     1       2.632   8.271  18.100  0.00  0.00    +0.000 A 
ATOM      7  N   UNL     1       1.953   7.870  19.241  0.00  0.00    +0.000 N 
ATOM      8  N   UNL     1       2.729   4.676  18.168  0.00  0.00    +0.000 N 
ENDROOT
BRANCH   7   9
ATOM      9  C   UNL     1       1.318   8.703  20.199  0.00  0.00    +0.000 A 
ATOM     10  C   UNL     1       1.466   8.439  21.568  0.00  0.00    +0.000 A 
ATOM     11  C   UNL     1       0.866   9.283  22.505  0.00  0.00    +0.000 A 
ATOM     12  C   UNL     1       0.103  10.363  22.074  0.00  0.00    +0.000 A 
ATOM     13  F   UNL     1      -0.477  11.164  22.976  0.00  0.00    +0.000 F 
ATOM     14  C   UNL     1      -0.069  10.621  20.721  0.00  0.00    +0.000 A 
ATOM     15  C   UNL     1       0.545   9.795  19.778  0.00  0.00    +0.000 A 
ENDBRANCH   7   9
BRANCH   1  16
ATOM     16  C   UNL     1       1.757   2.851  19.639  0.00  0.00    +0.000 C 
ATOM     17  O   UNL     1       2.116   1.858  19.018  0.00  0.00    +0.000 OA
BRANCH  16  19
ATOM     18  C   UNL     1       1.853   2.503  21.966  0.00  0.00    +0.000 C 
ATOM     19  O   UNL     1       1.069   2.817  20.817  0.00  0.00    +0.000 OA
ENDBRANCH  16  19
ENDBRANCH   1  16
BRANCH   8  20
ATOM     20  C   UNL     1       3.283   3.906  17.066  0.00  0.00    +0.000 C 
BRANCH  20  21
ATOM     21  C   UNL     1       4.751   4.165  16.824  0.00  0.00    +0.000 A 
ATOM     22  C   UNL     1       5.217   4.449  15.534  0.00  0.00    +0.000 A 
ATOM     23  C   UNL     1       6.552   4.790  15.321  0.00  0.00    +0.000 A 
ATOM     24  C   UNL     1       7.434   4.854  16.397  0.00  0.00    +0.000 A 
ATOM     25  C   UNL     1       6.999   4.558  17.690  0.00  0.00    +0.000 A 
ATOM     26  C   UNL     1       5.664   4.198  17.896  0.00  0.00    +0.000 A 
BRANCH  25  27
ATOM     27  O   UNL     1       7.959   4.686  18.656  0.00  0.00    +0.000 OA
ATOM     28  C   UNL     1       7.895   5.837  19.488  0.00  0.00    +0.000 C 
ENDBRANCH  25  27
ENDBRANCH  20  21
ENDBRANCH   8  20
TORSDOF 6
ENDMDL
MODEL 8
REMARK VINA RESULT:      -8.0      1.163      1.972
REMARK  Name = 
REMARK  8 active torsions:
REMARK  status: ('A' for Active; 'I' for Inactive)
REMARK    1  A    between atoms: C_1  and  O_2
REMARK    2  A    between atoms: O_2  and  C_3
REMARK    3  A    between atoms: C_3  and  C_5
REMARK    4  A    between atoms: N_11  and  C_12
REMARK    5  A    between atoms: N_19  and  C_20
REMARK    6  A    between atoms: C_20  and  C_21
REMARK    7  A    between atoms: C_25  and  O_26
REMARK    8  A    between atoms: O_26  and  C_27
REMARK                            x       y       z     vdW  Elec       q    Type
REMARK                         _______ _______ _______ _____ _____    ______ ____
ROOT
ATOM      1  C   UNL     1       2.486   4.829  19.749  0.00  0.00    +0.000 A 
ATOM      2  C   UNL     1       1.857   5.870  20.428  0.00  0.00    +0.000 A 
ATOM      3  C   UNL     1       1.952   7.012  19.599  0.00  0.00    +0.000 A 
ATOM      4  C   UNL     1       2.562   6.650  18.441  0.00  0.00    +0.000 A 
ATOM      5  C   UNL     1       2.588   7.764  17.570  0.00  0.00    +0.000 A 
ATOM      6  C   UNL     1       1.958   8.775  18.270  0.00  0.00    +0.000 A 
ATOM      7  N   UNL     1       1.588   8.344  19.535  0.00  0.00    +0.000 N 
ATOM      8  N   UNL     1       2.910   5.316  18.517  0.00  0.00    +0.000 N 
ENDROOT
BRANCH   7   9
ATOM      9  C   UNL     1       0.940   9.102  20.544  0.00  0.00    +0.000 A 
ATOM     10  C   UNL     1       0.147  10.204  20.197  0.00  0.00    +0.000 A 
ATOM     11  C   UNL     1      -0.514  10.924  21.195  0.00  0.00    +0.000 A 
ATOM     12  C   UNL     1      -0.360  10.560  22.528  0.00  0.00    +0.000 A 
ATOM     13  F   UNL     1      -0.989  11.258  23.481  0.00  0.00    +0.000 F 
ATOM     14  C   UNL     1       0.441   9.483  22.886  0.00  0.00    +0.000 A 
ATOM     15  C   UNL     1       1.088   8.745  21.893  0.00  0.00    +0.000 A 
ENDBRANCH   7   9
BRANCH   1  16
ATOM     16  C   UNL     1       2.650   3.470  20.238  0.00  0.00    +0.000 C 
ATOM     17  O   UNL     1       3.702   2.844  20.308  0.00  0.00    +0.000 OA
BRANCH  16  19
ATOM     18  C   UNL     1       1.386   2.465  21.952  0.00  0.00    +0.000 C 
ATOM     19  O   UNL     1       1.435   2.981  20.623  0.00  0.00    +0.000 OA
ENDBRANCH  16  19
ENDBRANCH   1  16
BRANCH   8  20
ATOM     20  C   UNL     1       3.444   4.587  17.377  0.00  0.00    +0.000 C 
BRANCH  20  21
ATOM     21  C   UNL     1       4.863   4.965  17.026  0.00  0.00    +0.000 A 
ATOM     22  C   UNL     1       5.391   4.643  15.769  0.00  0.00    +0.000 A 
ATOM     23  C   UNL     1       6.663   5.080  15.402  0.00  0.00    +0.000 A 
ATOM     24  C   UNL     1       7.418   5.848  16.286  0.00  0.00    +0.000 A 
ATOM     25  C   UNL     1       6.921   6.168  17.550  0.00  0.00    +0.000 A 
ATOM     26  C   UNL     1       5.653   5.711  17.922  0.00  0.00    +0.000 A 
BRANCH  25  27
ATOM     27  O   UNL     1       7.752   6.948  18.306  0.00  0.00    +0.000 OA
ATOM     28  C   UNL     1       7.996   8.272  17.848  0.00  0.00    +0.000 C 
ENDBRANCH  25  27
ENDBRANCH  20  21
ENDBRANCH   8  20
TORSDOF 6
ENDMDL
MODEL 9
REMARK VINA RESULT:      -8.0      1.433      1.751
REMARK  Name = 
REMARK  8 active torsions:
REMARK  status: ('A' for Active; 'I' for Inactive)
REMARK    1  A    between atoms: C_1  and  O_2
REMARK    2  A    between atoms: O_2  and  C_3
REMARK    3  A    between atoms: C_3  and  C_5
REMARK    4  A    between atoms: N_11  and  C_12
REMARK    5  A    between atoms: N_19  and  C_20
REMARK    6  A    between atoms: C_20  and  C_21
REMARK    7  A    between atoms: C_25  and  O_26
REMARK    8  A    between atoms: O_26  and  C_27
REMARK                            x       y       z     vdW  Elec       q    Type
REMARK                         _______ _______ _______ _____ _____    ______ ____
ROOT
ATOM      1  C   UNL     1       2.233   5.923  20.030  0.00  0.00    +0.000 A 
ATOM      2  C   UNL     1       1.543   6.941  20.682  0.00  0.00    +0.000 A 
ATOM      3  C   UNL     1       1.596   8.074  19.836  0.00  0.00    +0.000 A 
ATOM      4  C   UNL     1       2.243   7.725  18.695  0.00  0.00    +0.000 A 
ATOM      5  C   UNL     1       2.230   8.825  17.807  0.00  0.00    +0.000 A 
ATOM      6  C   UNL     1       1.539   9.815  18.480  0.00  0.00    +0.000 A 
ATOM      7  N   UNL     1       1.168   9.386  19.745  0.00  0.00    +0.000 N 
ATOM      8  N   UNL     1       2.655   6.411  18.798  0.00  0.00    +0.000 N 
ENDROOT
BRANCH   7   9
ATOM      9  C   UNL     1       0.467  10.126  20.732  0.00  0.00    +0.000 A 
ATOM     10  C   UNL     1      -0.061   9.476  21.856  0.00  0.00    +0.000 A 
ATOM     11  C   UNL     1      -0.721  10.217  22.839  0.00  0.00    +0.000 A 
ATOM     12  C   UNL     1      -0.875  11.589  22.683  0.00  0.00    +0.000 A 
ATOM     13  F   UNL     1      -1.515  12.294  23.624  0.00  0.00    +0.000 F 
ATOM     14  C   UNL     1      -0.376  12.241  21.563  0.00  0.00    +0.000 A 
ATOM     15  C   UNL     1       0.304  11.512  20.586  0.00  0.00    +0.000 A 
ENDBRANCH   7   9
BRANCH   1  16
ATOM     16  C   UNL     1       2.455   4.580  20.543  0.00  0.00    +0.000 C 
ATOM     17  O   UNL     1       3.535   4.010  20.645  0.00  0.00    +0.000 OA
BRANCH  16  19
ATOM     18  C   UNL     1       1.331   2.706  21.421  0.00  0.00    +0.000 C 
ATOM     19  O   UNL     1       1.259   4.036  20.911  0.00  0.00    +0.000 OA
ENDBRANCH  16  19
ENDBRANCH   1  16
BRANCH   8  20
ATOM     20  C   UNL     1       3.243   5.692  17.679  0.00  0.00    +0.000 C 
BRANCH  20  21
ATOM     21  C   UNL     1       4.753   5.688  17.687  0.00  0.00    +0.000 A 
ATOM     22  C   UNL     1       5.457   4.503  17.939  0.00  0.00    +0.000 A 
ATOM     23  C   UNL     1       6.847   4.471  17.846  0.00  0.00    +0.000 A 
ATOM     24  C   UNL     1       7.548   5.622  17.495  0.00  0.00    +0.000 A 
ATOM     25  C   UNL     1       6.872   6.820  17.256  0.00  0.00    +0.000 A 
ATOM     26  C   UNL     1       5.479   6.852  17.369  0.00  0.00    +0.000 A 
BRANCH  25  27
ATOM     27  O   UNL     1       7.677   7.864  16.894  0.00  0.00    +0.000 OA
ATOM     28  C   UNL     1       8.051   8.781  17.914  0.00  0.00    +0.000 C 
ENDBRANCH  25  27
ENDBRANCH  20  21
ENDBRANCH   8  20
TORSDOF 6
ENDMDL
