MODEL 1
REMARK VINA RESULT:      -7.7      0.000      0.000
REMARK  Name = 
REMARK  6 active torsions:
REMARK  status: ('A' for Active; 'I' for Inactive)
REMARK    1  A    between atoms: C_1  and  O_2
REMARK    2  A    between atoms: O_2  and  C_3
REMARK    3  A    between atoms: N_5  and  C_6
REMARK    4  A    between atoms: C_10  and  C_11
REMARK    5  A    between atoms: N_13  and  C_14
REMARK    6  A    between atoms: C_14  and  C_15
REMARK                            x       y       z     vdW  Elec       q    Type
REMARK                         _______ _______ _______ _____ _____    ______ ____
ROOT
ATOM      1  C   UNL     1       4.167   4.398  17.599  0.00  0.00    +0.000 A 
ATOM      2  S   UNL     1       3.751   2.753  17.822  0.00  0.00    +0.000 S 
ATOM      3  C   UNL     1       2.647   3.198  18.991  0.00  0.00    +0.000 A 
ATOM      4  C   UNL     1       2.477   4.552  19.123  0.00  0.00    +0.000 A 
ATOM      5  C   UNL     1       3.324   5.303  18.242  0.00  0.00    +0.000 A 
ATOM      6  C   UNL     1       1.438   4.830  20.151  0.00  0.00    +0.000 C 
ATOM      7  C   UNL     1       1.305   3.460  20.886  0.00  0.00    +0.000 C 
ATOM      8  C   UNL     1       1.811   2.376  19.894  0.00  0.00    +0.000 C 
ENDROOT
BRANCH   1  11
ATOM      9  C   UNL     1       6.523   4.576  17.421  0.00  0.00    +0.000 C 
ATOM     10  O   UNL     1       6.764   4.461  18.615  0.00  0.00    +0.000 OA
ATOM     11  N   UNL     1       5.289   4.567  16.820  0.00  0.00    +0.000 N 
ATOM     12  H   UNL     1       5.294   4.188  15.885  0.00  0.00    +0.000 HD
BRANCH   9  14
ATOM     13  C   UNL     1       6.947   4.581  15.126  0.00  0.00    +0.000 C 
ATOM     14  O   UNL     1       7.479   4.602  16.451  0.00  0.00    +0.000 OA
ENDBRANCH   9  14
ENDBRANCH   1  11
BRANCH   5  15
ATOM     15  C   UNL     1       3.370   6.752  17.975  0.00  0.00    +0.000 C 
ATOM     16  O   UNL     1       4.326   7.301  17.430  0.00  0.00    +0.000 OA
ATOM     17  N   UNL     1       2.234   7.466  18.293  0.00  0.00    +0.000 N 
ATOM     18  H   UNL     1       1.380   6.978  18.502  0.00  0.00    +0.000 HD
BRANCH  17  19
ATOM     19  C   UNL     1       2.127   8.867  17.954  0.00  0.00    +0.000 C 
BRANCH  19  20
ATOM     20  C   UNL     1       1.006   9.478  18.713  0.00  0.00    +0.000 A 
ATOM     21  C   UNL     1      -0.107  10.200  18.331  0.00  0.00    +0.000 A 
ATOM     22  C   UNL     1      -0.794  10.538  19.521  0.00  0.00    +0.000 A 
ATOM     23  C   UNL     1      -0.062   9.995  20.551  0.00  0.00    +0.000 A 
ATOM     24  O   UNL     1       1.030   9.342  20.071  0.00  0.00    +0.000 OA
ENDBRANCH  19  20
ENDBRANCH  17  19
ENDBRANCH   5  15
TORSDOF 5
ENDMDL
MODEL 2
REMARK VINA RESULT:      -7.4      1.833      2.241
REMARK  Name = 
REMARK  6 active torsions:
REMARK  status: ('A' for Active; 'I' for Inactive)
REMARK    1  A    between atoms: C_1  and  O_2
REMARK    2  A    between atoms: O_2  and  C_3
REMARK    3  A    between atoms: N_5  and  C_6
REMARK    4  A    between atoms: C_10  and  C_11
REMARK    5  A    between atoms: N_13  and  C_14
REMARK    6  A    between atoms: C_14  and  C_15
REMARK                            x       y       z     vdW  Elec       q    Type
REMARK                         _______ _______ _______ _____ _____    ______ ____
ROOT
ATOM      1  C   UNL     1       4.297   5.549  18.714  0.00  0.00    +0.000 A 
ATOM      2  S   UNL     1       4.588   3.865  18.822  0.00  0.00    +0.000 S 
ATOM      3  C   UNL     1       3.170   3.681  19.680  0.00  0.00    +0.000 A 
ATOM      4  C   UNL     1       2.410   4.820  19.768  0.00  0.00    +0.000 A 
ATOM      5  C   UNL     1       3.026   5.946  19.128  0.00  0.00    +0.000 A 
ATOM      6  C   UNL     1       1.152   4.527  20.506  0.00  0.00    +0.000 C 
ATOM      7  C   UNL     1       1.458   3.154  21.181  0.00  0.00    +0.000 C 
ATOM      8  C   UNL     1       2.589   2.493  20.343  0.00  0.00    +0.000 C 
ENDROOT
BRANCH   1  11
ATOM      9  C   UNL     1       5.570   6.350  16.884  0.00  0.00    +0.000 C 
ATOM     10  O   UNL     1       4.875   5.858  16.004  0.00  0.00    +0.000 OA
ATOM     11  N   UNL     1       5.380   6.252  18.240  0.00  0.00    +0.000 N 
ATOM     12  H   UNL     1       5.700   7.058  18.754  0.00  0.00    +0.000 HD
BRANCH   9  14
ATOM     13  C   UNL     1       7.568   7.237  17.700  0.00  0.00    +0.000 C 
ATOM     14  O   UNL     1       6.601   7.208  16.649  0.00  0.00    +0.000 OA
ENDBRANCH   9  14
ENDBRANCH   1  11
BRANCH   5  15
ATOM     15  C   UNL     1       2.505   7.303  18.886  0.00  0.00    +0.000 C 
ATOM     16  O   UNL     1       2.576   7.860  17.792  0.00  0.00    +0.000 OA
ATOM     17  N   UNL     1       1.842   7.898  19.939  0.00  0.00    +0.000 N 
ATOM     18  H   UNL     1       1.574   7.345  20.735  0.00  0.00    +0.000 HD
BRANCH  17  19
ATOM     19  C   UNL     1       1.182   9.172  19.767  0.00  0.00    +0.000 C 
BRANCH  19  20
ATOM     20  C   UNL     1       0.536   9.572  21.043  0.00  0.00    +0.000 A 
ATOM     21  C   UNL     1       0.400   8.948  22.267  0.00  0.00    +0.000 A 
ATOM     22  C   UNL     1      -0.350   9.827  23.084  0.00  0.00    +0.000 A 
ATOM     23  C   UNL     1      -0.617  10.932  22.311  0.00  0.00    +0.000 A 
ATOM     24  O   UNL     1      -0.077  10.792  21.071  0.00  0.00    +0.000 OA
ENDBRANCH  19  20
ENDBRANCH  17  19
ENDBRANCH   5  15
TORSDOF 5
ENDMDL
MODEL 3
REMARK VINA RESULT:      -7.3      1.530      1.786
REMARK  Name = 
REMARK  6 active torsions:
REMARK  status: ('A' for Active; 'I' for Inactive)
REMARK    1  A    between atoms: C_1  and  O_2
REMARK    2  A    between atoms: O_2  and  C_3
REMARK    3  A    between atoms: N_5  and  C_6
REMARK    4  A    between atoms: C_10  and  C_11
REMARK    5  A    between atoms: N_13  and  C_14
REMARK    6  A    between atoms: C_14  and  C_15
REMARK                            x       y       z     vdW  Elec       q    Type
REMARK                         _______ _______ _______ _____ _____    ______ ____
ROOT
ATOM      1  C   UNL     1       4.175   5.008  18.353  0.00  0.00    +0.000 A 
ATOM      2  S   UNL     1       4.137   3.297  18.327  0.00  0.00    +0.000 S 
ATOM      3  C   UNL     1       2.783   3.319  19.301  0.00  0.00    +0.000 A 
ATOM      4  C   UNL     1       2.272   4.571  19.532  0.00  0.00    +0.000 A 
ATOM      5  C   UNL     1       3.045   5.606  18.909  0.00  0.00    +0.000 A 
ATOM      6  C   UNL     1       1.044   4.466  20.365  0.00  0.00    +0.000 C 
ATOM      7  C   UNL     1       1.126   3.010  20.920  0.00  0.00    +0.000 C 
ATOM      8  C   UNL     1       2.034   2.215  19.940  0.00  0.00    +0.000 C 
ENDROOT
BRANCH   1  11
ATOM      9  C   UNL     1       6.447   5.625  18.623  0.00  0.00    +0.000 C 
ATOM     10  O   UNL     1       6.540   5.308  19.801  0.00  0.00    +0.000 OA
ATOM     11  N   UNL     1       5.335   5.528  17.824  0.00  0.00    +0.000 N 
ATOM     12  H   UNL     1       5.545   5.358  16.853  0.00  0.00    +0.000 HD
BRANCH   9  14
ATOM     13  C   UNL     1       7.474   7.404  17.516  0.00  0.00    +0.000 C 
ATOM     14  O   UNL     1       7.501   6.017  17.855  0.00  0.00    +0.000 OA
ENDBRANCH   9  14
ENDBRANCH   1  11
BRANCH   5  15
ATOM     15  C   UNL     1       2.784   7.053  18.802  0.00  0.00    +0.000 C 
ATOM     16  O   UNL     1       3.182   7.736  17.861  0.00  0.00    +0.000 OA
ATOM     17  N   UNL     1       1.982   7.600  19.782  0.00  0.00    +0.000 N 
ATOM     18  H   UNL     1       1.464   6.997  20.397  0.00  0.00    +0.000 HD
BRANCH  17  19
ATOM     19  C   UNL     1       1.560   8.980  19.700  0.00  0.00    +0.000 C 
BRANCH  19  20
ATOM     20  C   UNL     1       0.802   9.341  20.925  0.00  0.00    +0.000 A 
ATOM     21  C   UNL     1      -0.355  10.064  21.139  0.00  0.00    +0.000 A 
ATOM     22  C   UNL     1      -0.560  10.089  22.539  0.00  0.00    +0.000 A 
ATOM     23  C   UNL     1       0.479   9.375  23.088  0.00  0.00    +0.000 A 
ATOM     24  O   UNL     1       1.308   8.909  22.117  0.00  0.00    +0.000 OA
ENDBRANCH  19  20
ENDBRANCH  17  19
ENDBRANCH   5  15
TORSDOF 5
ENDMDL
MODEL 4
REMARK VINA RESULT:      -7.2      4.037      6.330
REMARK  Name = 
REMARK  6 active torsions:
REMARK  status: ('A' for Active; 'I' for Inactive)
REMARK    1  A    between atoms: C_1  and  O_2
REMARK    2  A    between atoms: O_2  and  C_3
REMARK    3  A    between atoms: N_5  and  C_6
REMARK    4  A    between atoms: C_10  and  C_11
REMARK    5  A    between atoms: N_13  and  C_14
REMARK    6  A    between atoms: C_14  and  C_15
REMARK                            x       y       z     vdW  Elec       q    Type
REMARK                         _______ _______ _______ _____ _____    ______ ____
ROOT
ATOM      1  C   UNL     1       5.387   5.310  18.248  0.00  0.00    +0.000 A 
ATOM      2  S   UNL     1       4.837   4.619  19.714  0.00  0.00    +0.000 S 
ATOM      3  C   UNL     1       3.666   3.780  18.871  0.00  0.00    +0.000 A 
ATOM      4  C   UNL     1       3.762   3.891  17.508  0.00  0.00    +0.000 A 
ATOM      5  C   UNL     1       4.839   4.745  17.097  0.00  0.00    +0.000 A 
ATOM      6  C   UNL     1       2.706   3.066  16.862  0.00  0.00    +0.000 C 
ATOM      7  C   UNL     1       1.730   2.768  18.043  0.00  0.00    +0.000 C 
ATOM      8  C   UNL     1       2.557   2.926  19.349  0.00  0.00    +0.000 C 
ENDROOT
BRANCH   1  11
ATOM      9  C   UNL     1       7.615   6.031  18.604  0.00  0.00    +0.000 C 
ATOM     10  O   UNL     1       8.124   4.918  18.613  0.00  0.00    +0.000 OA
ATOM     11  N   UNL     1       6.286   6.333  18.441  0.00  0.00    +0.000 N 
ATOM     12  H   UNL     1       6.123   7.218  17.984  0.00  0.00    +0.000 HD
BRANCH   9  14
ATOM     13  C   UNL     1       7.875   8.155  17.671  0.00  0.00    +0.000 C 
ATOM     14  O   UNL     1       8.326   7.193  18.625  0.00  0.00    +0.000 OA
ENDBRANCH   9  14
ENDBRANCH   1  11
BRANCH   5  15
ATOM     15  C   UNL     1       5.361   5.033  15.750  0.00  0.00    +0.000 C 
ATOM     16  O   UNL     1       5.318   6.152  15.241  0.00  0.00    +0.000 OA
ATOM     17  N   UNL     1       5.992   3.989  15.105  0.00  0.00    +0.000 N 
ATOM     18  H   UNL     1       6.240   3.162  15.621  0.00  0.00    +0.000 HD
BRANCH  17  19
ATOM     19  C   UNL     1       6.652   4.199  13.837  0.00  0.00    +0.000 C 
BRANCH  19  20
ATOM     20  C   UNL     1       5.880   3.529  12.759  0.00  0.00    +0.000 A 
ATOM     21  C   UNL     1       4.640   3.767  12.201  0.00  0.00    +0.000 A 
ATOM     22  C   UNL     1       4.440   2.761  11.226  0.00  0.00    +0.000 A 
ATOM     23  C   UNL     1       5.571   1.980  11.246  0.00  0.00    +0.000 A 
ATOM     24  O   UNL     1       6.456   2.442  12.169  0.00  0.00    +0.000 OA
ENDBRANCH  19  20
ENDBRANCH  17  19
ENDBRANCH   5  15
TORSDOF 5
ENDMDL
MODEL 5
REMARK VINA RESULT:      -7.2      1.279      1.621
REMARK  Name = 
REMARK  6 active torsions:
REMARK  status: ('A' for Active; 'I' for Inactive)
REMARK    1  A    between atoms: C_1  and  O_2
REMARK    2  A    between atoms: O_2  and  C_3
REMARK    3  A    between atoms: N_5  and  C_6
REMARK    4  A    between atoms: C_10  and  C_11
REMARK    5  A    between atoms: N_13  and  C_14
REMARK    6  A    between atoms: C_14  and  C_15
REMARK                            x       y       z     vdW  Elec       q    Type
REMARK                         _______ _______ _______ _____ _____    ______ ____
ROOT
ATOM      1  C   UNL     1       3.705   5.135  17.734  0.00  0.00    +0.000 A 
ATOM      2  S   UNL     1       3.605   3.426  17.733  0.00  0.00    +0.000 S 
ATOM      3  C   UNL     1       2.586   3.492  19.052  0.00  0.00    +0.000 A 
ATOM      4  C   UNL     1       2.204   4.759  19.409  0.00  0.00    +0.000 A 
ATOM      5  C   UNL     1       2.800   5.769  18.584  0.00  0.00    +0.000 A 
ATOM      6  C   UNL     1       1.261   4.694  20.558  0.00  0.00    +0.000 C 
ATOM      7  C   UNL     1       1.450   3.235  21.078  0.00  0.00    +0.000 C 
ATOM      8  C   UNL     1       2.015   2.412  19.886  0.00  0.00    +0.000 C 
ENDROOT
BRANCH   1  11
ATOM      9  C   UNL     1       5.936   5.857  17.396  0.00  0.00    +0.000 C 
ATOM     10  O   UNL     1       6.310   5.705  18.551  0.00  0.00    +0.000 OA
ATOM     11  N   UNL     1       4.682   5.616  16.892  0.00  0.00    +0.000 N 
ATOM     12  H   UNL     1       4.681   5.324  15.927  0.00  0.00    +0.000 HD
BRANCH   9  14
ATOM     13  C   UNL     1       6.901   5.134  15.398  0.00  0.00    +0.000 C 
ATOM     14  O   UNL     1       6.765   6.177  16.364  0.00  0.00    +0.000 OA
ENDBRANCH   9  14
ENDBRANCH   1  11
BRANCH   5  15
ATOM     15  C   UNL     1       2.567   7.224  18.544  0.00  0.00    +0.000 C 
ATOM     16  O   UNL     1       2.876   7.925  17.582  0.00  0.00    +0.000 OA
ATOM     17  N   UNL     1       1.893   7.762  19.621  0.00  0.00    +0.000 N 
ATOM     18  H   UNL     1       1.431   7.153  20.274  0.00  0.00    +0.000 HD
BRANCH  17  19
ATOM     19  C   UNL     1       1.501   9.152  19.623  0.00  0.00    +0.000 C 
BRANCH  19  20
ATOM     20  C   UNL     1       0.707   9.443  20.845  0.00  0.00    +0.000 A 
ATOM     21  C   UNL     1       0.188   8.643  21.843  0.00  0.00    +0.000 A 
ATOM     22  C   UNL     1      -0.505   9.504  22.727  0.00  0.00    +0.000 A 
ATOM     23  C   UNL     1      -0.358  10.773  22.217  0.00  0.00    +0.000 A 
ATOM     24  O   UNL     1       0.383  10.748  21.077  0.00  0.00    +0.000 OA
ENDBRANCH  19  20
ENDBRANCH  17  19
ENDBRANCH   5  15
TORSDOF 5
ENDMDL
MODEL 6
REMARK VINA RESULT:      -7.1      3.629      7.522
REMARK  Name = 
REMARK  6 active torsions:
REMARK  status: ('A' for Active; 'I' for Inactive)
REMARK    1  A    between atoms: C_1  and  O_2
REMARK    2  A    between atoms: O_2  and  C_3
REMARK    3  A    between atoms: N_5  and  C_6
REMARK    4  A    between atoms: C_10  and  C_11
REMARK    5  A    between atoms: N_13  and  C_14
REMARK    6  A    between atoms: C_14  and  C_15
REMARK                            x       y       z     vdW  Elec       q    Type
REMARK                         _______ _______ _______ _____ _____    ______ ____
ROOT
ATOM      1  C   UNL     1      -0.459  10.835  18.934  0.00  0.00    +0.000 A 
ATOM      2  S   UNL     1      -1.181  11.889  20.073  0.00  0.00    +0.000 S 
ATOM      3  C   UNL     1      -0.574  10.954  21.314  0.00  0.00    +0.000 A 
ATOM      4  C   UNL     1       0.272   9.955  20.908  0.00  0.00    +0.000 A 
ATOM      5  C   UNL     1       0.424   9.905  19.482  0.00  0.00    +0.000 A 
ATOM      6  C   UNL     1       0.790   9.222  22.094  0.00  0.00    +0.000 C 
ATOM      7  C   UNL     1      -0.177   9.678  23.231  0.00  0.00    +0.000 C 
ATOM      8  C   UNL     1      -0.783  11.036  22.777  0.00  0.00    +0.000 C 
ENDROOT
BRANCH   1  11
ATOM      9  C   UNL     1      -1.995  10.422  17.179  0.00  0.00    +0.000 C 
ATOM     10  O   UNL     1      -2.690   9.618  17.786  0.00  0.00    +0.000 OA
ATOM     11  N   UNL     1      -0.877  11.069  17.645  0.00  0.00    +0.000 N 
ATOM     12  H   UNL     1      -0.744  11.987  17.249  0.00  0.00    +0.000 HD
BRANCH   9  14
ATOM     13  C   UNL     1      -3.018   9.996  15.125  0.00  0.00    +0.000 C 
ATOM     14  O   UNL     1      -2.303  10.918  15.949  0.00  0.00    +0.000 OA
ENDBRANCH   9  14
ENDBRANCH   1  11
BRANCH   5  15
ATOM     15  C   UNL     1       1.320   9.081  18.651  0.00  0.00    +0.000 C 
ATOM     16  O   UNL     1       1.638   9.390  17.504  0.00  0.00    +0.000 OA
ATOM     17  N   UNL     1       1.865   7.971  19.260  0.00  0.00    +0.000 N 
ATOM     18  H   UNL     1       1.799   7.867  20.258  0.00  0.00    +0.000 HD
BRANCH  17  19
ATOM     19  C   UNL     1       2.854   7.169  18.576  0.00  0.00    +0.000 C 
BRANCH  19  20
ATOM     20  C   UNL     1       2.439   5.743  18.599  0.00  0.00    +0.000 A 
ATOM     21  C   UNL     1       2.473   4.737  17.655  0.00  0.00    +0.000 A 
ATOM     22  C   UNL     1       1.904   3.594  18.265  0.00  0.00    +0.000 A 
ATOM     23  C   UNL     1       1.567   3.973  19.543  0.00  0.00    +0.000 A 
ATOM     24  O   UNL     1       1.894   5.275  19.759  0.00  0.00    +0.000 OA
ENDBRANCH  19  20
ENDBRANCH  17  19
ENDBRANCH   5  15
TORSDOF 5
ENDMDL
MODEL 7
REMARK VINA RESULT:      -7.0      1.443      1.650
REMARK  Name = 
REMARK  6 active torsions:
REMARK  status: ('A' for Active; 'I' for Inactive)
REMARK    1  A    between atoms: C_1  and  O_2
REMARK    2  A    between atoms: O_2  and  C_3
REMARK    3  A    between atoms: N_5  and  C_6
REMARK    4  A    between atoms: C_10  and  C_11
REMARK    5  A    between atoms: N_13  and  C_14
REMARK    6  A    between atoms: C_14  and  C_15
REMARK                            x       y       z     vdW  Elec       q    Type
REMARK                         _______ _______ _______ _____ _____    ______ ____
ROOT
ATOM      1  C   UNL     1       3.532   5.502  17.713  0.00  0.00    +0.000 A 
ATOM      2  S   UNL     1       3.479   3.846  17.283  0.00  0.00    +0.000 S 
ATOM      3  C   UNL     1       2.388   3.568  18.514  0.00  0.00    +0.000 A 
ATOM      4  C   UNL     1       1.952   4.702  19.150  0.00  0.00    +0.000 A 
ATOM      5  C   UNL     1       2.565   5.893  18.638  0.00  0.00    +0.000 A 
ATOM      6  C   UNL     1       0.950   4.341  20.188  0.00  0.00    +0.000 C 
ATOM      7  C   UNL     1       1.151   2.801  20.342  0.00  0.00    +0.000 C 
ATOM      8  C   UNL     1       1.802   2.307  19.019  0.00  0.00    +0.000 C 
ENDROOT
BRANCH   1  11
ATOM      9  C   UNL     1       5.783   6.237  17.655  0.00  0.00    +0.000 C 
ATOM     10  O   UNL     1       6.122   5.735  18.719  0.00  0.00    +0.000 OA
ATOM     11  N   UNL     1       4.540   6.190  17.077  0.00  0.00    +0.000 N 
ATOM     12  H   UNL     1       4.560   6.202  16.068  0.00  0.00    +0.000 HD
BRANCH   9  14
ATOM     13  C   UNL     1       7.589   7.697  17.420  0.00  0.00    +0.000 C 
ATOM     14  O   UNL     1       6.646   6.832  16.786  0.00  0.00    +0.000 OA
ENDBRANCH   9  14
ENDBRANCH   1  11
BRANCH   5  15
ATOM     15  C   UNL     1       2.294   7.309  18.946  0.00  0.00    +0.000 C 
ATOM     16  O   UNL     1       2.282   7.753  20.092  0.00  0.00    +0.000 OA
ATOM     17  N   UNL     1       2.136   8.148  17.863  0.00  0.00    +0.000 N 
ATOM     18  H   UNL     1       2.392   7.830  16.944  0.00  0.00    +0.000 HD
BRANCH  17  19
ATOM     19  C   UNL     1       1.995   9.574  18.052  0.00  0.00    +0.000 C 
BRANCH  19  20
ATOM     20  C   UNL     1       0.575   9.898  18.346  0.00  0.00    +0.000 A 
ATOM     21  C   UNL     1      -0.597   9.723  17.639  0.00  0.00    +0.000 A 
ATOM     22  C   UNL     1      -1.632  10.266  18.436  0.00  0.00    +0.000 A 
ATOM     23  C   UNL     1      -1.028  10.730  19.581  0.00  0.00    +0.000 A 
ATOM     24  O   UNL     1       0.313  10.505  19.540  0.00  0.00    +0.000 OA
ENDBRANCH  19  20
ENDBRANCH  17  19
ENDBRANCH   5  15
TORSDOF 5
ENDMDL
MODEL 8
REMARK VINA RESULT:      -7.0      1.465      1.793
REMARK  Name = 
REMARK  6 active torsions:
REMARK  status: ('A' for Active; 'I' for Inactive)
REMARK    1  A    between atoms: C_1  and  O_2
REMARK    2  A    between atoms: O_2  and  C_3
REMARK    3  A    between atoms: N_5  and  C_6
REMARK    4  A    between atoms: C_10  and  C_11
REMARK    5  A    between atoms: N_13  and  C_14
REMARK    6  A    between atoms: C_14  and  C_15
REMARK                            x       y       z     vdW  Elec       q    Type
REMARK                         _______ _______ _______ _____ _____    ______ ____
ROOT
ATOM      1  C   UNL     1       4.755   4.532  18.960  0.00  0.00    +0.000 A 
ATOM      2  S   UNL     1       4.675   2.847  19.250  0.00  0.00    +0.000 S 
ATOM      3  C   UNL     1       3.039   2.876  18.928  0.00  0.00    +0.000 A 
ATOM      4  C   UNL     1       2.573   4.082  18.472  0.00  0.00    +0.000 A 
ATOM      5  C   UNL     1       3.600   5.082  18.406  0.00  0.00    +0.000 A 
ATOM      6  C   UNL     1       1.120   3.978  18.170  0.00  0.00    +0.000 C 
ATOM      7  C   UNL     1       0.713   2.652  18.886  0.00  0.00    +0.000 C 
ATOM      8  C   UNL     1       2.014   1.814  19.035  0.00  0.00    +0.000 C 
ENDROOT
BRANCH   1  11
ATOM      9  C   UNL     1       7.001   5.080  18.443  0.00  0.00    +0.000 C 
ATOM     10  O   UNL     1       7.003   4.613  17.312  0.00  0.00    +0.000 OA
ATOM     11  N   UNL     1       5.958   5.085  19.335  0.00  0.00    +0.000 N 
ATOM     12  H   UNL     1       5.956   5.882  19.954  0.00  0.00    +0.000 HD
BRANCH   9  14
ATOM     13  C   UNL     1       8.052   7.162  18.520  0.00  0.00    +0.000 C 
ATOM     14  O   UNL     1       8.026   5.806  18.968  0.00  0.00    +0.000 OA
ENDBRANCH   9  14
ENDBRANCH   1  11
BRANCH   5  15
ATOM     15  C   UNL     1       3.558   6.452  17.865  0.00  0.00    +0.000 C 
ATOM     16  O   UNL     1       4.314   6.843  16.977  0.00  0.00    +0.000 OA
ATOM     17  N   UNL     1       2.555   7.267  18.347  0.00  0.00    +0.000 N 
ATOM     18  H   UNL     1       1.800   6.867  18.877  0.00  0.00    +0.000 HD
BRANCH  17  19
ATOM     19  C   UNL     1       2.347   8.584  17.790  0.00  0.00    +0.000 C 
BRANCH  19  20
ATOM     20  C   UNL     1       1.264   9.274  18.538  0.00  0.00    +0.000 A 
ATOM     21  C   UNL     1       1.000   9.427  19.884  0.00  0.00    +0.000 A 
ATOM     22  C   UNL     1      -0.204  10.166  19.974  0.00  0.00    +0.000 A 
ATOM     23  C   UNL     1      -0.592  10.422  18.680  0.00  0.00    +0.000 A 
ATOM     24  O   UNL     1       0.297   9.891  17.799  0.00  0.00    +0.000 OA
ENDBRANCH  19  20
ENDBRANCH  17  19
ENDBRANCH   5  15
TORSDOF 5
ENDMDL
MODEL 9
REMARK VINA RESULT:      -7.0      1.130      1.320
REMARK  Name = 
REMARK  6 active torsions:
REMARK  status: ('A' for Active; 'I' for Inactive)
REMARK    1  A    between atoms: C_1  and  O_2
REMARK    2  A    between atoms: O_2  and  C_3
REMARK    3  A    between atoms: N_5  and  C_6
REMARK    4  A    between atoms: C_10  and  C_11
REMARK    5  A    between atoms: N_13  and  C_14
REMARK    6  A    between atoms: C_14  and  C_15
REMARK                            x       y       z     vdW  Elec       q    Type
REMARK                         _______ _______ _______ _____ _____    ______ ____
ROOT
ATOM      1  C   UNL     1       4.763   4.505  19.116  0.00  0.00    +0.000 A 
ATOM      2  S   UNL     1       4.634   2.880  19.639  0.00  0.00    +0.000 S 
ATOM      3  C   UNL     1       3.012   3.115  19.947  0.00  0.00    +0.000 A 
ATOM      4  C   UNL     1       2.529   4.332  19.539  0.00  0.00    +0.000 A 
ATOM      5  C   UNL     1       3.544   5.164  18.962  0.00  0.00    +0.000 A 
ATOM      6  C   UNL     1       1.069   4.411  19.816  0.00  0.00    +0.000 C 
ATOM      7  C   UNL     1       0.840   3.224  20.803  0.00  0.00    +0.000 C 
ATOM      8  C   UNL     1       2.008   2.225  20.570  0.00  0.00    +0.000 C 
ENDROOT
BRANCH   1  11
ATOM      9  C   UNL     1       6.665   4.716  17.720  0.00  0.00    +0.000 C 
ATOM     10  O   UNL     1       6.171   4.193  16.729  0.00  0.00    +0.000 OA
ATOM     11  N   UNL     1       6.066   4.911  18.939  0.00  0.00    +0.000 N 
ATOM     12  H   UNL     1       6.391   5.733  19.425  0.00  0.00    +0.000 HD
BRANCH   9  14
ATOM     13  C   UNL     1       7.877   6.600  18.376  0.00  0.00    +0.000 C 
ATOM     14  O   UNL     1       7.883   5.325  17.731  0.00  0.00    +0.000 OA
ENDBRANCH   9  14
ENDBRANCH   1  11
BRANCH   5  15
ATOM     15  C   UNL     1       3.434   6.474  18.295  0.00  0.00    +0.000 C 
ATOM     16  O   UNL     1       4.076   6.768  17.289  0.00  0.00    +0.000 OA
ATOM     17  N   UNL     1       2.493   7.342  18.810  0.00  0.00    +0.000 N 
ATOM     18  H   UNL     1       1.808   7.003  19.465  0.00  0.00    +0.000 HD
BRANCH  17  19
ATOM     19  C   UNL     1       2.215   8.598  18.153  0.00  0.00    +0.000 C 
BRANCH  19  20
ATOM     20  C   UNL     1       1.124   9.304  18.873  0.00  0.00    +0.000 A 
ATOM     21  C   UNL     1       0.120  10.156  18.460  0.00  0.00    +0.000 A 
ATOM     22  C   UNL     1      -0.593  10.530  19.624  0.00  0.00    +0.000 A 
ATOM     23  C   UNL     1       0.015   9.877  20.670  0.00  0.00    +0.000 A 
ATOM     24  O   UNL     1       1.056   9.124  20.225  0.00  0.00    +0.000 OA
ENDBRANCH  19  20
ENDBRANCH  17  19
ENDBRANCH   5  15
TORSDOF 5
ENDMDL
