MODEL 1
REMARK VINA RESULT:      -8.5      0.000      0.000
REMARK  Name = 
REMARK  7 active torsions:
REMARK  status: ('A' for Active; 'I' for Inactive)
REMARK    1  A    between atoms: O_1  and  C_2
REMARK    2  A    between atoms: C_2  and  C_3
REMARK    3  A    between atoms: C_2  and  C_18
REMARK    4  A    between atoms: C_3  and  O_4
REMARK    5  A    between atoms: O_4  and  C_5
REMARK    6  A    between atoms: C_9  and  C_10
REMARK    7  A    between atoms: C_18  and  N_19
REMARK                            x       y       z     vdW  Elec       q    Type
REMARK                         _______ _______ _______ _____ _____    ______ ____
ROOT
ATOM      1  C   UNL     1       6.786   7.881  17.722  0.00  0.00    +0.000 C 
ENDROOT
BRANCH   1   2
ATOM      2  C   UNL     1       8.252   8.271  17.975  0.00  0.00    +0.000 C 
BRANCH   2   3
ATOM      3  O   UNL     1       8.733   7.563  19.121  0.00  0.00    +0.000 OA
ATOM      4  H   UNL     1       9.157   8.225  19.693  0.00  0.00    +0.000 HD
ENDBRANCH   2   3
BRANCH   2   5
ATOM      5  C   UNL     1       8.289   9.799  18.214  0.00  0.00    +0.000 C 
BRANCH   5   6
ATOM      6  N   UNL     1       9.533  10.386  18.733  0.00  0.00    +0.000 NA
ATOM      7  C   UNL     1       9.265  11.011  20.041  0.00  0.00    +0.000 C 
ATOM      8  C   UNL     1      10.538  11.646  20.591  0.00  0.00    +0.000 C 
ATOM      9  C   UNL     1      10.788  12.836  19.711  0.00  0.00    +0.000 A 
ATOM     10  C   UNL     1      11.030  14.102  20.247  0.00  0.00    +0.000 A 
ATOM     11  C   UNL     1      11.098  15.204  19.402  0.00  0.00    +0.000 A 
ATOM     12  C   UNL     1      10.977  15.033  18.022  0.00  0.00    +0.000 A 
ATOM     13  C   UNL     1      10.761  13.760  17.480  0.00  0.00    +0.000 A 
ATOM     14  C   UNL     1      10.620  12.653  18.325  0.00  0.00    +0.000 A 
ATOM     15  C   UNL     1      10.254  11.272  17.787  0.00  0.00    +0.000 C 
ENDBRANCH   5   6
ENDBRANCH   2   5
ENDBRANCH   1   2
BRANCH   1  16
ATOM     16  O   UNL     1       6.635   7.246  16.441  0.00  0.00    +0.000 OA
BRANCH  16  17
ATOM     17  C   UNL     1       5.957   6.052  16.502  0.00  0.00    +0.000 A 
ATOM     18  C   UNL     1       6.409   5.023  15.683  0.00  0.00    +0.000 A 
ATOM     19  C   UNL     1       5.769   3.782  15.707  0.00  0.00    +0.000 A 
ATOM     20  C   UNL     1       4.683   3.561  16.567  0.00  0.00    +0.000 A 
ATOM     21  C   UNL     1       4.195   4.584  17.395  0.00  0.00    +0.000 A 
ATOM     22  C   UNL     1       4.831   5.832  17.308  0.00  0.00    +0.000 A 
BRANCH  21  23
ATOM     23  C   UNL     1       3.075   4.390  18.342  0.00  0.00    +0.000 A 
ATOM     24  C   UNL     1       2.909   5.160  19.496  0.00  0.00    +0.000 A 
ATOM     25  N   UNL     1       1.904   5.012  20.401  0.00  0.00    +0.000 NA
ATOM     26  C   UNL     1       1.008   4.029  20.152  0.00  0.00    +0.000 A 
ATOM     27  C   UNL     1       1.074   3.207  19.045  0.00  0.00    +0.000 A 
ATOM     28  F   UNL     1       0.169   2.241  18.851  0.00  0.00    +0.000 F 
ATOM     29  C   UNL     1       2.104   3.392  18.133  0.00  0.00    +0.000 A 
ENDBRANCH  21  23
ENDBRANCH  16  17
ENDBRANCH   1  16
TORSDOF 7
ENDMDL
MODEL 2
REMARK VINA RESULT:      -8.4      5.452      8.058
REMARK  Name = 
REMARK  7 active torsions:
REMARK  status: ('A' for Active; 'I' for Inactive)
REMARK    1  A    between atoms: O_1  and  C_2
REMARK    2  A    between atoms: C_2  and  C_3
REMARK    3  A    between atoms: C_2  and  C_18
REMARK    4  A    between atoms: C_3  and  O_4
REMARK    5  A    between atoms: O_4  and  C_5
REMARK    6  A    between atoms: C_9  and  C_10
REMARK    7  A    between atoms: C_18  and  N_19
REMARK                            x       y       z     vdW  Elec       q    Type
REMARK                         _______ _______ _______ _____ _____    ______ ____
ROOT
ATOM      1  C   UNL     1       3.920   2.553  18.255  0.00  0.00    +0.000 C 
ENDROOT
BRANCH   1   2
ATOM      2  C   UNL     1       2.410   2.727  18.496  0.00  0.00    +0.000 C 
BRANCH   2   3
ATOM      3  O   UNL     1       1.699   1.757  17.722  0.00  0.00    +0.000 OA
ATOM      4  H   UNL     1       1.384   1.083  18.349  0.00  0.00    +0.000 HD
ENDBRANCH   2   3
BRANCH   2   5
ATOM      5  C   UNL     1       2.035   4.163  18.060  0.00  0.00    +0.000 C 
BRANCH   5   6
ATOM      6  N   UNL     1       2.497   5.281  18.895  0.00  0.00    +0.000 NA
ATOM      7  C   UNL     1       1.547   5.483  20.004  0.00  0.00    +0.000 C 
ATOM      8  C   UNL     1       1.995   6.652  20.875  0.00  0.00    +0.000 C 
ATOM      9  C   UNL     1       1.767   7.872  20.030  0.00  0.00    +0.000 A 
ATOM     10  C   UNL     1       1.070   8.978  20.520  0.00  0.00    +0.000 A 
ATOM     11  C   UNL     1       0.742  10.019  19.659  0.00  0.00    +0.000 A 
ATOM     12  C   UNL     1       1.156   9.978  18.326  0.00  0.00    +0.000 A 
ATOM     13  C   UNL     1       1.879   8.882  17.840  0.00  0.00    +0.000 A 
ATOM     14  C   UNL     1       2.154   7.796  18.678  0.00  0.00    +0.000 A 
ATOM     15  C   UNL     1       2.823   6.526  18.157  0.00  0.00    +0.000 C 
ENDBRANCH   5   6
ENDBRANCH   2   5
ENDBRANCH   1   2
BRANCH   1  16
ATOM     16  O   UNL     1       4.678   3.476  19.054  0.00  0.00    +0.000 OA
BRANCH  16  17
ATOM     17  C   UNL     1       5.524   4.268  18.315  0.00  0.00    +0.000 A 
ATOM     18  C   UNL     1       6.241   5.243  18.999  0.00  0.00    +0.000 A 
ATOM     19  C   UNL     1       7.125   6.073  18.305  0.00  0.00    +0.000 A 
ATOM     20  C   UNL     1       7.308   5.915  16.923  0.00  0.00    +0.000 A 
ATOM     21  C   UNL     1       6.588   4.950  16.203  0.00  0.00    +0.000 A 
ATOM     22  C   UNL     1       5.673   4.167  16.924  0.00  0.00    +0.000 A 
BRANCH  21  23
ATOM     23  C   UNL     1       6.770   4.724  14.752  0.00  0.00    +0.000 A 
ATOM     24  C   UNL     1       7.651   5.473  13.968  0.00  0.00    +0.000 A 
ATOM     25  N   UNL     1       7.845   5.311  12.631  0.00  0.00    +0.000 NA
ATOM     26  C   UNL     1       7.110   4.348  12.028  0.00  0.00    +0.000 A 
ATOM     27  C   UNL     1       6.209   3.549  12.702  0.00  0.00    +0.000 A 
ATOM     28  F   UNL     1       5.497   2.618  12.056  0.00  0.00    +0.000 F 
ATOM     29  C   UNL     1       6.043   3.731  14.069  0.00  0.00    +0.000 A 
ENDBRANCH  21  23
ENDBRANCH  16  17
ENDBRANCH   1  16
TORSDOF 7
ENDMDL
MODEL 3
REMARK VINA RESULT:      -8.4      5.703      9.241
REMARK  Name = 
REMARK  7 active torsions:
REMARK  status: ('A' for Active; 'I' for Inactive)
REMARK    1  A    between atoms: O_1  and  C_2
REMARK    2  A    between atoms: C_2  and  C_3
REMARK    3  A    between atoms: C_2  and  C_18
REMARK    4  A    between atoms: C_3  and  O_4
REMARK    5  A    between atoms: O_4  and  C_5
REMARK    6  A    between atoms: C_9  and  C_10
REMARK    7  A    between atoms: C_18  and  N_19
REMARK                            x       y       z     vdW  Elec       q    Type
REMARK                         _______ _______ _______ _____ _____    ______ ____
ROOT
ATOM      1  C   UNL     1       5.170   7.030  17.572  0.00  0.00    +0.000 C 
ENDROOT
BRANCH   1   2
ATOM      2  C   UNL     1       5.841   5.722  17.122  0.00  0.00    +0.000 C 
BRANCH   2   3
ATOM      3  O   UNL     1       6.878   6.026  16.185  0.00  0.00    +0.000 OA
ATOM      4  H   UNL     1       6.569   6.795  15.675  0.00  0.00    +0.000 HD
ENDBRANCH   2   3
BRANCH   2   5
ATOM      5  C   UNL     1       4.748   4.842  16.468  0.00  0.00    +0.000 C 
BRANCH   5   6
ATOM      6  N   UNL     1       4.304   3.642  17.191  0.00  0.00    +0.000 NA
ATOM      7  C   UNL     1       2.885   3.388  16.882  0.00  0.00    +0.000 C 
ATOM      8  C   UNL     1       2.394   2.157  17.637  0.00  0.00    +0.000 C 
ATOM      9  C   UNL     1       2.339   2.582  19.075  0.00  0.00    +0.000 A 
ATOM     10  C   UNL     1       1.200   2.371  19.855  0.00  0.00    +0.000 A 
ATOM     11  C   UNL     1       1.131   2.920  21.130  0.00  0.00    +0.000 A 
ATOM     12  C   UNL     1       2.216   3.633  21.643  0.00  0.00    +0.000 A 
ATOM     13  C   UNL     1       3.369   3.822  20.872  0.00  0.00    +0.000 A 
ATOM     14  C   UNL     1       3.425   3.335  19.561  0.00  0.00    +0.000 A 
ATOM     15  C   UNL     1       4.607   3.632  18.642  0.00  0.00    +0.000 C 
ENDBRANCH   5   6
ENDBRANCH   2   5
ENDBRANCH   1   2
BRANCH   1  16
ATOM     16  O   UNL     1       3.809   7.096  17.112  0.00  0.00    +0.000 OA
BRANCH  16  17
ATOM     17  C   UNL     1       2.942   7.599  18.052  0.00  0.00    +0.000 A 
ATOM     18  C   UNL     1       2.775   6.863  19.220  0.00  0.00    +0.000 A 
ATOM     19  C   UNL     1       1.915   7.326  20.218  0.00  0.00    +0.000 A 
ATOM     20  C   UNL     1       1.232   8.541  20.058  0.00  0.00    +0.000 A 
ATOM     21  C   UNL     1       1.369   9.299  18.884  0.00  0.00    +0.000 A 
ATOM     22  C   UNL     1       2.202   8.779  17.883  0.00  0.00    +0.000 A 
BRANCH  21  23
ATOM     23  C   UNL     1       0.696  10.601  18.682  0.00  0.00    +0.000 A 
ATOM     24  C   UNL     1       1.364  11.825  18.760  0.00  0.00    +0.000 A 
ATOM     25  N   UNL     1       0.788  13.047  18.594  0.00  0.00    +0.000 NA
ATOM     26  C   UNL     1      -0.542  13.057  18.343  0.00  0.00    +0.000 A 
ATOM     27  C   UNL     1      -1.303  11.909  18.245  0.00  0.00    +0.000 A 
ATOM     28  F   UNL     1      -2.618  11.975  18.007  0.00  0.00    +0.000 F 
ATOM     29  C   UNL     1      -0.683  10.678  18.407  0.00  0.00    +0.000 A 
ENDBRANCH  21  23
ENDBRANCH  16  17
ENDBRANCH   1  16
TORSDOF 7
ENDMDL
MODEL 4
REMARK VINA RESULT:      -8.2      6.292      9.054
REMARK  Name = 
REMARK  7 active torsions:
REMARK  status: ('A' for Active; 'I' for Inactive)
REMARK    1  A    between atoms: O_1  and  C_2
REMARK    2  A    between atoms: C_2  and  C_3
REMARK    3  A    between atoms: C_2  and  C_18
REMARK    4  A    between atoms: C_3  and  O_4
REMARK    5  A    between atoms: O_4  and  C_5
REMARK    6  A    between atoms: C_9  and  C_10
REMARK    7  A    between atoms: C_18  and  N_19
REMARK                            x       y       z     vdW  Elec       q    Type
REMARK                         _______ _______ _______ _____ _____    ______ ____
ROOT
ATOM      1  C   UNL     1       1.221   7.989  21.145  0.00  0.00    +0.000 C 
ENDROOT
BRANCH   1   2
ATOM      2  C   UNL     1       1.454   9.440  21.601  0.00  0.00    +0.000 C 
BRANCH   2   3
ATOM      3  O   UNL     1       2.143   9.431  22.854  0.00  0.00    +0.000 OA
ATOM      4  H   UNL     1       2.867   8.788  22.764  0.00  0.00    +0.000 HD
ENDBRANCH   2   3
BRANCH   2   5
ATOM      5  C   UNL     1       0.066  10.110  21.739  0.00  0.00    +0.000 C 
BRANCH   5   6
ATOM      6  N   UNL     1      -0.349  11.060  20.696  0.00  0.00    +0.000 NA
ATOM      7  C   UNL     1      -1.715  11.531  20.986  0.00  0.00    +0.000 C 
ATOM      8  C   UNL     1      -2.176  12.504  19.906  0.00  0.00    +0.000 C 
ATOM      9  C   UNL     1      -2.381  11.656  18.685  0.00  0.00    +0.000 A 
ATOM     10  C   UNL     1      -3.562  11.719  17.943  0.00  0.00    +0.000 A 
ATOM     11  C   UNL     1      -3.777  10.807  16.916  0.00  0.00    +0.000 A 
ATOM     12  C   UNL     1      -2.792   9.870  16.598  0.00  0.00    +0.000 A 
ATOM     13  C   UNL     1      -1.596   9.823  17.324  0.00  0.00    +0.000 A 
ATOM     14  C   UNL     1      -1.397  10.689  18.405  0.00  0.00    +0.000 A 
ATOM     15  C   UNL     1      -0.166  10.585  19.303  0.00  0.00    +0.000 C 
ENDBRANCH   5   6
ENDBRANCH   2   5
ENDBRANCH   1   2
BRANCH   1  16
ATOM     16  O   UNL     1       1.770   7.766  19.836  0.00  0.00    +0.000 OA
BRANCH  16  17
ATOM     17  C   UNL     1       2.383   6.543  19.705  0.00  0.00    +0.000 A 
ATOM     18  C   UNL     1       1.932   5.516  20.527  0.00  0.00    +0.000 A 
ATOM     19  C   UNL     1       2.508   4.247  20.435  0.00  0.00    +0.000 A 
ATOM     20  C   UNL     1       3.526   3.996  19.503  0.00  0.00    +0.000 A 
ATOM     21  C   UNL     1       4.012   5.016  18.670  0.00  0.00    +0.000 A 
ATOM     22  C   UNL     1       3.445   6.290  18.825  0.00  0.00    +0.000 A 
BRANCH  21  23
ATOM     23  C   UNL     1       5.060   4.793  17.650  0.00  0.00    +0.000 A 
ATOM     24  C   UNL     1       6.426   4.814  17.943  0.00  0.00    +0.000 A 
ATOM     25  N   UNL     1       7.426   4.626  17.039  0.00  0.00    +0.000 NA
ATOM     26  C   UNL     1       7.048   4.412  15.757  0.00  0.00    +0.000 A 
ATOM     27  C   UNL     1       5.728   4.372  15.354  0.00  0.00    +0.000 A 
ATOM     28  F   UNL     1       5.408   4.169  14.070  0.00  0.00    +0.000 F 
ATOM     29  C   UNL     1       4.731   4.555  16.302  0.00  0.00    +0.000 A 
ENDBRANCH  21  23
ENDBRANCH  16  17
ENDBRANCH   1  16
TORSDOF 7
ENDMDL
MODEL 5
REMARK VINA RESULT:      -8.2      5.782      8.767
REMARK  Name = 
REMARK  7 active torsions:
REMARK  status: ('A' for Active; 'I' for Inactive)
REMARK    1  A    between atoms: O_1  and  C_2
REMARK    2  A    between atoms: C_2  and  C_3
REMARK    3  A    between atoms: C_2  and  C_18
REMARK    4  A    between atoms: C_3  and  O_4
REMARK    5  A    between atoms: O_4  and  C_5
REMARK    6  A    between atoms: C_9  and  C_10
REMARK    7  A    between atoms: C_18  and  N_19
REMARK                            x       y       z     vdW  Elec       q    Type
REMARK                         _______ _______ _______ _____ _____    ______ ____
ROOT
ATOM      1  C   UNL     1       3.494   7.959  16.946  0.00  0.00    +0.000 C 
ENDROOT
BRANCH   1   2
ATOM      2  C   UNL     1       2.138   8.245  17.613  0.00  0.00    +0.000 C 
BRANCH   2   3
ATOM      3  O   UNL     1       1.893   9.654  17.588  0.00  0.00    +0.000 OA
ATOM      4  H   UNL     1       2.002   9.935  16.663  0.00  0.00    +0.000 HD
ENDBRANCH   2   3
BRANCH   2   5
ATOM      5  C   UNL     1       2.218   7.724  19.067  0.00  0.00    +0.000 C 
BRANCH   5   6
ATOM      6  N   UNL     1       1.707   6.375  19.347  0.00  0.00    +0.000 NA
ATOM      7  C   UNL     1       2.441   5.806  20.492  0.00  0.00    +0.000 C 
ATOM      8  C   UNL     1       1.941   4.396  20.789  0.00  0.00    +0.000 C 
ATOM      9  C   UNL     1       2.436   3.562  19.644  0.00  0.00    +0.000 A 
ATOM     10  C   UNL     1       3.122   2.365  19.857  0.00  0.00    +0.000 A 
ATOM     11  C   UNL     1       3.701   1.705  18.779  0.00  0.00    +0.000 A 
ATOM     12  C   UNL     1       3.548   2.212  17.487  0.00  0.00    +0.000 A 
ATOM     13  C   UNL     1       2.837   3.397  17.269  0.00  0.00    +0.000 A 
ATOM     14  C   UNL     1       2.310   4.109  18.353  0.00  0.00    +0.000 A 
ATOM     15  C   UNL     1       1.642   5.470  18.174  0.00  0.00    +0.000 C 
ENDBRANCH   5   6
ENDBRANCH   2   5
ENDBRANCH   1   2
BRANCH   1  16
ATOM     16  O   UNL     1       4.481   7.589  17.923  0.00  0.00    +0.000 OA
BRANCH  16  17
ATOM     17  C   UNL     1       5.199   6.471  17.574  0.00  0.00    +0.000 A 
ATOM     18  C   UNL     1       5.614   5.635  18.606  0.00  0.00    +0.000 A 
ATOM     19  C   UNL     1       6.339   4.478  18.315  0.00  0.00    +0.000 A 
ATOM     20  C   UNL     1       6.636   4.142  16.985  0.00  0.00    +0.000 A 
ATOM     21  C   UNL     1       6.244   4.974  15.924  0.00  0.00    +0.000 A 
ATOM     22  C   UNL     1       5.561   6.153  16.257  0.00  0.00    +0.000 A 
BRANCH  21  23
ATOM     23  C   UNL     1       6.505   4.647  14.505  0.00  0.00    +0.000 A 
ATOM     24  C   UNL     1       7.527   5.241  13.761  0.00  0.00    +0.000 A 
ATOM     25  N   UNL     1       7.799   4.982  12.453  0.00  0.00    +0.000 NA
ATOM     26  C   UNL     1       6.998   4.081  11.838  0.00  0.00    +0.000 A 
ATOM     27  C   UNL     1       5.958   3.434  12.474  0.00  0.00    +0.000 A 
ATOM     28  F   UNL     1       5.188   2.560  11.816  0.00  0.00    +0.000 F 
ATOM     29  C   UNL     1       5.715   3.710  13.812  0.00  0.00    +0.000 A 
ENDBRANCH  21  23
ENDBRANCH  16  17
ENDBRANCH   1  16
TORSDOF 7
ENDMDL
MODEL 6
REMARK VINA RESULT:      -8.1      6.129      8.389
REMARK  Name = 
REMARK  7 active torsions:
REMARK  status: ('A' for Active; 'I' for Inactive)
REMARK    1  A    between atoms: O_1  and  C_2
REMARK    2  A    between atoms: C_2  and  C_3
REMARK    3  A    between atoms: C_2  and  C_18
REMARK    4  A    between atoms: C_3  and  O_4
REMARK    5  A    between atoms: O_4  and  C_5
REMARK    6  A    between atoms: C_9  and  C_10
REMARK    7  A    between atoms: C_18  and  N_19
REMARK                            x       y       z     vdW  Elec       q    Type
REMARK                         _______ _______ _______ _____ _____    ______ ____
ROOT
ATOM      1  C   UNL     1       2.273   4.963  19.293  0.00  0.00    +0.000 C 
ENDROOT
BRANCH   1   2
ATOM      2  C   UNL     1       3.193   4.012  18.510  0.00  0.00    +0.000 C 
BRANCH   2   3
ATOM      3  O   UNL     1       4.232   3.547  19.376  0.00  0.00    +0.000 OA
ATOM      4  H   UNL     1       4.863   4.282  19.466  0.00  0.00    +0.000 HD
ENDBRANCH   2   3
BRANCH   2   5
ATOM      5  C   UNL     1       3.782   4.811  17.323  0.00  0.00    +0.000 C 
BRANCH   5   6
ATOM      6  N   UNL     1       5.145   4.485  16.879  0.00  0.00    +0.000 NA
ATOM      7  C   UNL     1       5.885   5.735  16.629  0.00  0.00    +0.000 C 
ATOM      8  C   UNL     1       7.298   5.423  16.147  0.00  0.00    +0.000 C 
ATOM      9  C   UNL     1       7.121   4.872  14.762  0.00  0.00    +0.000 A 
ATOM     10  C   UNL     1       7.857   5.362  13.682  0.00  0.00    +0.000 A 
ATOM     11  C   UNL     1       7.552   4.938  12.394  0.00  0.00    +0.000 A 
ATOM     12  C   UNL     1       6.549   3.988  12.193  0.00  0.00    +0.000 A 
ATOM     13  C   UNL     1       5.828   3.475  13.277  0.00  0.00    +0.000 A 
ATOM     14  C   UNL     1       6.078   3.945  14.571  0.00  0.00    +0.000 A 
ATOM     15  C   UNL     1       5.228   3.512  15.764  0.00  0.00    +0.000 C 
ENDBRANCH   5   6
ENDBRANCH   2   5
ENDBRANCH   1   2
BRANCH   1  16
ATOM     16  O   UNL     1       2.992   6.125  19.739  0.00  0.00    +0.000 OA
BRANCH  16  17
ATOM     17  C   UNL     1       2.354   7.306  19.444  0.00  0.00    +0.000 A 
ATOM     18  C   UNL     1       2.419   7.751  18.127  0.00  0.00    +0.000 A 
ATOM     19  C   UNL     1       1.782   8.939  17.762  0.00  0.00    +0.000 A 
ATOM     20  C   UNL     1       1.059   9.677  18.712  0.00  0.00    +0.000 A 
ATOM     21  C   UNL     1       0.988   9.261  20.051  0.00  0.00    +0.000 A 
ATOM     22  C   UNL     1       1.681   8.090  20.392  0.00  0.00    +0.000 A 
BRANCH  21  23
ATOM     23  C   UNL     1       0.213   9.987  21.080  0.00  0.00    +0.000 A 
ATOM     24  C   UNL     1       0.304   9.705  22.445  0.00  0.00    +0.000 A 
ATOM     25  N   UNL     1      -0.395  10.335  23.427  0.00  0.00    +0.000 NA
ATOM     26  C   UNL     1      -1.251  11.305  23.029  0.00  0.00    +0.000 A 
ATOM     27  C   UNL     1      -1.425  11.667  21.708  0.00  0.00    +0.000 A 
ATOM     28  F   UNL     1      -2.294  12.625  21.367  0.00  0.00    +0.000 F 
ATOM     29  C   UNL     1      -0.686  11.013  20.732  0.00  0.00    +0.000 A 
ENDBRANCH  21  23
ENDBRANCH  16  17
ENDBRANCH   1  16
TORSDOF 7
ENDMDL
MODEL 7
REMARK VINA RESULT:      -8.0      5.900      8.113
REMARK  Name = 
REMARK  7 active torsions:
REMARK  status: ('A' for Active; 'I' for Inactive)
REMARK    1  A    between atoms: O_1  and  C_2
REMARK    2  A    between atoms: C_2  and  C_3
REMARK    3  A    between atoms: C_2  and  C_18
REMARK    4  A    between atoms: C_3  and  O_4
REMARK    5  A    between atoms: O_4  and  C_5
REMARK    6  A    between atoms: C_9  and  C_10
REMARK    7  A    between atoms: C_18  and  N_19
REMARK                            x       y       z     vdW  Elec       q    Type
REMARK                         _______ _______ _______ _____ _____    ______ ____
ROOT
ATOM      1  C   UNL     1       3.166   4.003  19.491  0.00  0.00    +0.000 C 
ENDROOT
BRANCH   1   2
ATOM      2  C   UNL     1       1.898   4.631  18.887  0.00  0.00    +0.000 C 
BRANCH   2   3
ATOM      3  O   UNL     1       1.372   3.754  17.888  0.00  0.00    +0.000 OA
ATOM      4  H   UNL     1       0.451   4.029  17.738  0.00  0.00    +0.000 HD
ENDBRANCH   2   3
BRANCH   2   5
ATOM      5  C   UNL     1       2.303   5.990  18.270  0.00  0.00    +0.000 C 
BRANCH   5   6
ATOM      6  N   UNL     1       2.385   7.157  19.161  0.00  0.00    +0.000 NA
ATOM      7  C   UNL     1       1.487   6.952  20.311  0.00  0.00    +0.000 C 
ATOM      8  C   UNL     1       1.539   8.160  21.241  0.00  0.00    +0.000 C 
ATOM      9  C   UNL     1       0.851   9.259  20.487  0.00  0.00    +0.000 A 
ATOM     10  C   UNL     1      -0.165  10.019  21.070  0.00  0.00    +0.000 A 
ATOM     11  C   UNL     1      -0.884  10.917  20.290  0.00  0.00    +0.000 A 
ATOM     12  C   UNL     1      -0.554  11.093  18.945  0.00  0.00    +0.000 A 
ATOM     13  C   UNL     1       0.481  10.351  18.365  0.00  0.00    +0.000 A 
ATOM     14  C   UNL     1       1.166   9.393  19.121  0.00  0.00    +0.000 A 
ATOM     15  C   UNL     1       2.211   8.471  18.496  0.00  0.00    +0.000 C 
ENDBRANCH   5   6
ENDBRANCH   2   5
ENDBRANCH   1   2
BRANCH   1  16
ATOM     16  O   UNL     1       3.883   3.243  18.504  0.00  0.00    +0.000 OA
BRANCH  16  17
ATOM     17  C   UNL     1       4.949   3.922  17.963  0.00  0.00    +0.000 A 
ATOM     18  C   UNL     1       5.759   4.634  18.842  0.00  0.00    +0.000 A 
ATOM     19  C   UNL     1       6.863   5.337  18.354  0.00  0.00    +0.000 A 
ATOM     20  C   UNL     1       7.171   5.314  16.986  0.00  0.00    +0.000 A 
ATOM     21  C   UNL     1       6.364   4.617  16.073  0.00  0.00    +0.000 A 
ATOM     22  C   UNL     1       5.235   3.963  16.591  0.00  0.00    +0.000 A 
BRANCH  21  23
ATOM     23  C   UNL     1       6.666   4.536  14.628  0.00  0.00    +0.000 A 
ATOM     24  C   UNL     1       7.592   5.368  13.994  0.00  0.00    +0.000 A 
ATOM     25  N   UNL     1       7.895   5.339  12.668  0.00  0.00    +0.000 NA
ATOM     26  C   UNL     1       7.228   4.431  11.916  0.00  0.00    +0.000 A 
ATOM     27  C   UNL     1       6.292   3.560  12.435  0.00  0.00    +0.000 A 
ATOM     28  F   UNL     1       5.652   2.689  11.647  0.00  0.00    +0.000 F 
ATOM     29  C   UNL     1       6.015   3.606  13.795  0.00  0.00    +0.000 A 
ENDBRANCH  21  23
ENDBRANCH  16  17
ENDBRANCH   1  16
TORSDOF 7
ENDMDL
MODEL 8
REMARK VINA RESULT:      -8.0      3.689     10.878
REMARK  Name = 
REMARK  7 active torsions:
REMARK  status: ('A' for Active; 'I' for Inactive)
REMARK    1  A    between atoms: O_1  and  C_2
REMARK    2  A    between atoms: C_2  and  C_3
REMARK    3  A    between atoms: C_2  and  C_18
REMARK    4  A    between atoms: C_3  and  O_4
REMARK    5  A    between atoms: O_4  and  C_5
REMARK    6  A    between atoms: C_9  and  C_10
REMARK    7  A    between atoms: C_18  and  N_19
REMARK                            x       y       z     vdW  Elec       q    Type
REMARK                         _______ _______ _______ _____ _____    ______ ____
ROOT
ATOM      1  C   UNL     1       7.263   8.734  17.629  0.00  0.00    +0.000 C 
ENDROOT
BRANCH   1   2
ATOM      2  C   UNL     1       7.136   7.202  17.592  0.00  0.00    +0.000 C 
BRANCH   2   3
ATOM      3  O   UNL     1       7.660   6.719  16.351  0.00  0.00    +0.000 OA
ATOM      4  H   UNL     1       8.479   7.219  16.187  0.00  0.00    +0.000 HD
ENDBRANCH   2   3
BRANCH   2   5
ATOM      5  C   UNL     1       5.633   6.858  17.726  0.00  0.00    +0.000 C 
BRANCH   5   6
ATOM      6  N   UNL     1       5.269   5.478  18.078  0.00  0.00    +0.000 NA
ATOM      7  C   UNL     1       4.461   4.898  16.990  0.00  0.00    +0.000 C 
ATOM      8  C   UNL     1       4.053   3.471  17.342  0.00  0.00    +0.000 C 
ATOM      9  C   UNL     1       3.047   3.617  18.446  0.00  0.00    +0.000 A 
ATOM     10  C   UNL     1       1.810   2.972  18.396  0.00  0.00    +0.000 A 
ATOM     11  C   UNL     1       0.847   3.259  19.357  0.00  0.00    +0.000 A 
ATOM     12  C   UNL     1       1.140   4.147  20.393  0.00  0.00    +0.000 A 
ATOM     13  C   UNL     1       2.389   4.774  20.460  0.00  0.00    +0.000 A 
ATOM     14  C   UNL     1       3.342   4.548  19.460  0.00  0.00    +0.000 A 
ATOM     15  C   UNL     1       4.665   5.310  19.422  0.00  0.00    +0.000 C 
ENDBRANCH   5   6
ENDBRANCH   2   5
ENDBRANCH   1   2
BRANCH   1  16
ATOM     16  O   UNL     1       8.637   9.140  17.517  0.00  0.00    +0.000 OA
BRANCH  16  17
ATOM     17  C   UNL     1       8.957  10.205  18.325  0.00  0.00    +0.000 A 
ATOM     18  C   UNL     1       9.108   9.947  19.683  0.00  0.00    +0.000 A 
ATOM     19  C   UNL     1       9.442  10.986  20.555  0.00  0.00    +0.000 A 
ATOM     20  C   UNL     1       9.647  12.285  20.066  0.00  0.00    +0.000 A 
ATOM     21  C   UNL     1       9.488  12.578  18.703  0.00  0.00    +0.000 A 
ATOM     22  C   UNL     1       9.102  11.521  17.864  0.00  0.00    +0.000 A 
BRANCH  21  23
ATOM     23  C   UNL     1       9.724  13.923  18.135  0.00  0.00    +0.000 A 
ATOM     24  C   UNL     1      10.872  14.255  17.411  0.00  0.00    +0.000 A 
ATOM     25  N   UNL     1      11.139  15.479  16.880  0.00  0.00    +0.000 NA
ATOM     26  C   UNL     1      10.211  16.442  17.087  0.00  0.00    +0.000 A 
ATOM     27  C   UNL     1       9.041  16.228  17.788  0.00  0.00    +0.000 A 
ATOM     28  F   UNL     1       8.161  17.218  17.975  0.00  0.00    +0.000 F 
ATOM     29  C   UNL     1       8.792  14.965  18.306  0.00  0.00    +0.000 A 
ENDBRANCH  21  23
ENDBRANCH  16  17
ENDBRANCH   1  16
TORSDOF 7
ENDMDL
MODEL 9
REMARK VINA RESULT:      -8.0      6.034      8.682
REMARK  Name = 
REMARK  7 active torsions:
REMARK  status: ('A' for Active; 'I' for Inactive)
REMARK    1  A    between atoms: O_1  and  C_2
REMARK    2  A    between atoms: C_2  and  C_3
REMARK    3  A    between atoms: C_2  and  C_18
REMARK    4  A    between atoms: C_3  and  O_4
REMARK    5  A    between atoms: O_4  and  C_5
REMARK    6  A    between atoms: C_9  and  C_10
REMARK    7  A    between atoms: C_18  and  N_19
REMARK                            x       y       z     vdW  Elec       q    Type
REMARK                         _______ _______ _______ _____ _____    ______ ____
ROOT
ATOM      1  C   UNL     1       1.963   8.766  18.581  0.00  0.00    +0.000 C 
ENDROOT
BRANCH   1   2
ATOM      2  C   UNL     1       0.695   9.624  18.734  0.00  0.00    +0.000 C 
BRANCH   2   3
ATOM      3  O   UNL     1       0.116   9.837  17.445  0.00  0.00    +0.000 OA
ATOM      4  H   UNL     1       0.115  10.799  17.300  0.00  0.00    +0.000 HD
ENDBRANCH   2   3
BRANCH   2   5
ATOM      5  C   UNL     1       1.120  10.965  19.377  0.00  0.00    +0.000 C 
BRANCH   5   6
ATOM      6  N   UNL     1       0.832  11.170  20.804  0.00  0.00    +0.000 NA
ATOM      7  C   UNL     1      -0.196  10.205  21.234  0.00  0.00    +0.000 C 
ATOM      8  C   UNL     1      -0.527  10.411  22.709  0.00  0.00    +0.000 C 
ATOM      9  C   UNL     1      -1.268  11.715  22.760  0.00  0.00    +0.000 A 
ATOM     10  C   UNL     1      -2.491  11.833  23.423  0.00  0.00    +0.000 A 
ATOM     11  C   UNL     1      -3.220  13.011  23.313  0.00  0.00    +0.000 A 
ATOM     12  C   UNL     1      -2.704  14.085  22.586  0.00  0.00    +0.000 A 
ATOM     13  C   UNL     1      -1.466  13.978  21.942  0.00  0.00    +0.000 A 
ATOM     14  C   UNL     1      -0.755  12.773  21.987  0.00  0.00    +0.000 A 
ATOM     15  C   UNL     1       0.534  12.569  21.192  0.00  0.00    +0.000 C 
ENDBRANCH   5   6
ENDBRANCH   2   5
ENDBRANCH   1   2
BRANCH   1  16
ATOM     16  O   UNL     1       2.069   7.808  19.647  0.00  0.00    +0.000 OA
BRANCH  16  17
ATOM     17  C   UNL     1       2.578   6.597  19.241  0.00  0.00    +0.000 A 
ATOM     18  C   UNL     1       2.016   5.454  19.798  0.00  0.00    +0.000 A 
ATOM     19  C   UNL     1       2.483   4.193  19.419  0.00  0.00    +0.000 A 
ATOM     20  C   UNL     1       3.504   4.072  18.464  0.00  0.00    +0.000 A 
ATOM     21  C   UNL     1       4.101   5.208  17.895  0.00  0.00    +0.000 A 
ATOM     22  C   UNL     1       3.641   6.459  18.336  0.00  0.00    +0.000 A 
BRANCH  21  23
ATOM     23  C   UNL     1       5.156   5.132  16.862  0.00  0.00    +0.000 A 
ATOM     24  C   UNL     1       6.315   5.911  16.896  0.00  0.00    +0.000 A 
ATOM     25  N   UNL     1       7.307   5.885  15.965  0.00  0.00    +0.000 NA
ATOM     26  C   UNL     1       7.135   5.038  14.924  0.00  0.00    +0.000 A 
ATOM     27  C   UNL     1       6.029   4.223  14.786  0.00  0.00    +0.000 A 
ATOM     28  F   UNL     1       5.901   3.411  13.730  0.00  0.00    +0.000 F 
ATOM     29  C   UNL     1       5.041   4.263  15.760  0.00  0.00    +0.000 A 
ENDBRANCH  21  23
ENDBRANCH  16  17
ENDBRANCH   1  16
TORSDOF 7
ENDMDL
