MODEL 1
REMARK VINA RESULT:      -6.2      0.000      0.000
REMARK  Name = 
REMARK  9 active torsions:
REMARK  status: ('A' for Active; 'I' for Inactive)
REMARK    1  A    between atoms: C_1  and  N_2
REMARK    2  A    between atoms: N_2  and  C_10
REMARK    3  A    between atoms: C_3  and  O_5
REMARK    4  A    between atoms: O_5  and  C_6
REMARK    5  A    between atoms: C_6  and  C_7
REMARK    6  A    between atoms: C_6  and  C_8
REMARK    7  A    between atoms: C_6  and  C_9
REMARK    8  A    between atoms: N_13  and  C_14
REMARK    9  A    between atoms: C_14  and  C_15
REMARK                            x       y       z     vdW  Elec       q    Type
REMARK                         _______ _______ _______ _____ _____    ______ ____
ROOT
ATOM      1  C   UNL     1       4.774   5.899  17.741  0.00  0.00    +0.000 C 
ATOM      2  C   UNL     1       5.917   5.231  18.496  0.00  0.00    +0.000 C 
ATOM      3  C   UNL     1       7.093   6.075  18.059  0.00  0.00    +0.000 C 
ATOM      4  N   UNL     1       6.908   6.266  16.609  0.00  0.00    +0.000 NA
ATOM      5  C   UNL     1       5.428   6.349  16.419  0.00  0.00    +0.000 C 
ENDROOT
BRANCH   1   7
ATOM      6  C   UNL     1       3.432   3.982  16.779  0.00  0.00    +0.000 C 
ATOM      7  N   UNL     1       3.564   5.069  17.733  0.00  0.00    +0.000 N 
ATOM      8  C   UNL     1       2.731   5.216  18.840  0.00  0.00    +0.000 C 
ATOM      9  O   UNL     1       2.893   6.133  19.642  0.00  0.00    +0.000 OA
BRANCH   8  10
ATOM     10  O   UNL     1       1.772   4.258  18.980  0.00  0.00    +0.000 OA
BRANCH  10  11
ATOM     11  C   UNL     1       2.044   3.146  19.885  0.00  0.00    +0.000 C 
ATOM     12  C   UNL     1       3.546   3.035  20.189  0.00  0.00    +0.000 C 
ATOM     13  C   UNL     1       1.320   3.453  21.208  0.00  0.00    +0.000 C 
ATOM     14  C   UNL     1       1.459   1.830  19.343  0.00  0.00    +0.000 C 
ENDBRANCH  10  11
ENDBRANCH   8  10
ENDBRANCH   1   7
BRANCH   4  15
ATOM     15  C   UNL     1       7.466   5.174  15.788  0.00  0.00    +0.000 C 
BRANCH  15  16
ATOM     16  C   UNL     1       6.851   4.994  14.381  0.00  0.00    +0.000 C 
ATOM     17  C   UNL     1       6.143   3.644  14.197  0.00  0.00    +0.000 C 
ATOM     18  C   UNL     1       5.646   3.506  12.762  0.00  0.00    +0.000 C 
ATOM     19  O   UNL     1       6.732   3.620  11.842  0.00  0.00    +0.000 OA
ATOM     20  C   UNL     1       7.366   4.895  11.913  0.00  0.00    +0.000 C 
ATOM     21  C   UNL     1       7.937   5.146  13.304  0.00  0.00    +0.000 C 
ENDBRANCH  15  16
ENDBRANCH   4  15
TORSDOF 5
ENDMDL
MODEL 2
REMARK VINA RESULT:      -6.2      0.822      1.185
REMARK  Name = 
REMARK  9 active torsions:
REMARK  status: ('A' for Active; 'I' for Inactive)
REMARK    1  A    between atoms: C_1  and  N_2
REMARK    2  A    between atoms: N_2  and  C_10
REMARK    3  A    between atoms: C_3  and  O_5
REMARK    4  A    between atoms: O_5  and  C_6
REMARK    5  A    between atoms: C_6  and  C_7
REMARK    6  A    between atoms: C_6  and  C_8
REMARK    7  A    between atoms: C_6  and  C_9
REMARK    8  A    between atoms: N_13  and  C_14
REMARK    9  A    between atoms: C_14  and  C_15
REMARK                            x       y       z     vdW  Elec       q    Type
REMARK                         _______ _______ _______ _____ _____    ______ ____
ROOT
ATOM      1  C   UNL     1       4.961   5.588  17.946  0.00  0.00    +0.000 C 
ATOM      2  C   UNL     1       6.335   5.317  18.548  0.00  0.00    +0.000 C 
ATOM      3  C   UNL     1       7.173   6.370  17.857  0.00  0.00    +0.000 C 
ATOM      4  N   UNL     1       6.741   6.338  16.448  0.00  0.00    +0.000 NA
ATOM      5  C   UNL     1       5.280   6.027  16.502  0.00  0.00    +0.000 C 
ENDROOT
BRANCH   1   7
ATOM      6  C   UNL     1       3.812   3.461  17.199  0.00  0.00    +0.000 C 
ATOM      7  N   UNL     1       4.024   4.489  18.203  0.00  0.00    +0.000 N 
ATOM      8  C   UNL     1       3.602   4.361  19.525  0.00  0.00    +0.000 C 
ATOM      9  O   UNL     1       3.827   5.240  20.354  0.00  0.00    +0.000 OA
BRANCH   8  10
ATOM     10  O   UNL     1       2.972   3.190  19.826  0.00  0.00    +0.000 OA
BRANCH  10  11
ATOM     11  C   UNL     1       1.559   3.249  20.183  0.00  0.00    +0.000 C 
ATOM     12  C   UNL     1       0.707   2.412  19.216  0.00  0.00    +0.000 C 
ATOM     13  C   UNL     1       1.422   2.628  21.585  0.00  0.00    +0.000 C 
ATOM     14  C   UNL     1       1.069   4.704  20.284  0.00  0.00    +0.000 C 
ENDBRANCH  10  11
ENDBRANCH   8  10
ENDBRANCH   1   7
BRANCH   4  15
ATOM     15  C   UNL     1       7.444   5.329  15.632  0.00  0.00    +0.000 C 
BRANCH  15  16
ATOM     16  C   UNL     1       6.842   5.036  14.238  0.00  0.00    +0.000 C 
ATOM     17  C   UNL     1       6.163   3.662  14.148  0.00  0.00    +0.000 C 
ATOM     18  C   UNL     1       5.678   3.411  12.724  0.00  0.00    +0.000 C 
ATOM     19  O   UNL     1       6.767   3.483  11.803  0.00  0.00    +0.000 OA
ATOM     20  C   UNL     1       7.375   4.773  11.786  0.00  0.00    +0.000 C 
ATOM     21  C   UNL     1       7.931   5.134  13.159  0.00  0.00    +0.000 C 
ENDBRANCH  15  16
ENDBRANCH   4  15
TORSDOF 5
ENDMDL
MODEL 3
REMARK VINA RESULT:      -5.9      1.314      1.819
REMARK  Name = 
REMARK  9 active torsions:
REMARK  status: ('A' for Active; 'I' for Inactive)
REMARK    1  A    between atoms: C_1  and  N_2
REMARK    2  A    between atoms: N_2  and  C_10
REMARK    3  A    between atoms: C_3  and  O_5
REMARK    4  A    between atoms: O_5  and  C_6
REMARK    5  A    between atoms: C_6  and  C_7
REMARK    6  A    between atoms: C_6  and  C_8
REMARK    7  A    between atoms: C_6  and  C_9
REMARK    8  A    between atoms: N_13  and  C_14
REMARK    9  A    between atoms: C_14  and  C_15
REMARK                            x       y       z     vdW  Elec       q    Type
REMARK                         _______ _______ _______ _____ _____    ______ ____
ROOT
ATOM      1  C   UNL     1       5.255   6.330  18.485  0.00  0.00    +0.000 C 
ATOM      2  C   UNL     1       6.656   5.874  18.876  0.00  0.00    +0.000 C 
ATOM      3  C   UNL     1       7.493   6.541  17.808  0.00  0.00    +0.000 C 
ATOM      4  N   UNL     1       6.751   6.327  16.552  0.00  0.00    +0.000 NA
ATOM      5  C   UNL     1       5.310   6.383  16.944  0.00  0.00    +0.000 C 
ENDROOT
BRANCH   1   7
ATOM      6  C   UNL     1       2.957   6.183  19.534  0.00  0.00    +0.000 C 
ATOM      7  N   UNL     1       4.215   5.554  19.170  0.00  0.00    +0.000 N 
ATOM      8  C   UNL     1       4.407   4.174  19.179  0.00  0.00    +0.000 C 
ATOM      9  O   UNL     1       5.478   3.677  18.834  0.00  0.00    +0.000 OA
BRANCH   8  10
ATOM     10  O   UNL     1       3.324   3.436  19.551  0.00  0.00    +0.000 OA
BRANCH  10  11
ATOM     11  C   UNL     1       2.644   2.655  18.523  0.00  0.00    +0.000 C 
ATOM     12  C   UNL     1       2.643   3.393  17.176  0.00  0.00    +0.000 C 
ATOM     13  C   UNL     1       3.445   1.353  18.343  0.00  0.00    +0.000 C 
ATOM     14  C   UNL     1       1.227   2.255  18.972  0.00  0.00    +0.000 C 
ENDBRANCH  10  11
ENDBRANCH   8  10
ENDBRANCH   1   7
BRANCH   4  15
ATOM     15  C   UNL     1       7.049   5.040  15.895  0.00  0.00    +0.000 C 
BRANCH  15  16
ATOM     16  C   UNL     1       6.627   4.914  14.413  0.00  0.00    +0.000 C 
ATOM     17  C   UNL     1       6.038   3.540  14.065  0.00  0.00    +0.000 C 
ATOM     18  C   UNL     1       5.734   3.464  12.573  0.00  0.00    +0.000 C 
ATOM     19  O   UNL     1       6.915   3.700  11.807  0.00  0.00    +0.000 OA
ATOM     20  C   UNL     1       7.451   5.003  12.030  0.00  0.00    +0.000 C 
ATOM     21  C   UNL     1       7.827   5.197  13.495  0.00  0.00    +0.000 C 
ENDBRANCH  15  16
ENDBRANCH   4  15
TORSDOF 5
ENDMDL
MODEL 4
REMARK VINA RESULT:      -5.9      1.662      6.839
REMARK  Name = 
REMARK  9 active torsions:
REMARK  status: ('A' for Active; 'I' for Inactive)
REMARK    1  A    between atoms: C_1  and  N_2
REMARK    2  A    between atoms: N_2  and  C_10
REMARK    3  A    between atoms: C_3  and  O_5
REMARK    4  A    between atoms: O_5  and  C_6
REMARK    5  A    between atoms: C_6  and  C_7
REMARK    6  A    between atoms: C_6  and  C_8
REMARK    7  A    between atoms: C_6  and  C_9
REMARK    8  A    between atoms: N_13  and  C_14
REMARK    9  A    between atoms: C_14  and  C_15
REMARK                            x       y       z     vdW  Elec       q    Type
REMARK                         _______ _______ _______ _____ _____    ______ ____
ROOT
ATOM      1  C   UNL     1       5.708   5.522  16.711  0.00  0.00    +0.000 C 
ATOM      2  C   UNL     1       4.864   6.536  15.946  0.00  0.00    +0.000 C 
ATOM      3  C   UNL     1       4.470   7.487  17.054  0.00  0.00    +0.000 C 
ATOM      4  N   UNL     1       4.101   6.620  18.188  0.00  0.00    +0.000 NA
ATOM      5  C   UNL     1       5.022   5.447  18.090  0.00  0.00    +0.000 C 
ENDROOT
BRANCH   1   7
ATOM      6  C   UNL     1       5.095   3.142  16.108  0.00  0.00    +0.000 C 
ATOM      7  N   UNL     1       5.946   4.305  15.927  0.00  0.00    +0.000 N 
ATOM      8  C   UNL     1       6.818   4.449  14.850  0.00  0.00    +0.000 C 
ATOM      9  O   UNL     1       7.501   5.462  14.713  0.00  0.00    +0.000 OA
BRANCH   8  10
ATOM     10  O   UNL     1       6.821   3.418  13.959  0.00  0.00    +0.000 OA
BRANCH  10  11
ATOM     11  C   UNL     1       6.382   3.693  12.595  0.00  0.00    +0.000 C 
ATOM     12  C   UNL     1       7.279   4.746  11.926  0.00  0.00    +0.000 C 
ATOM     13  C   UNL     1       6.526   2.382  11.800  0.00  0.00    +0.000 C 
ATOM     14  C   UNL     1       4.894   4.083  12.557  0.00  0.00    +0.000 C 
ENDBRANCH  10  11
ENDBRANCH   8  10
ENDBRANCH   1   7
BRANCH   4  15
ATOM     15  C   UNL     1       2.697   6.167  18.160  0.00  0.00    +0.000 C 
BRANCH  15  16
ATOM     16  C   UNL     1       2.412   4.784  18.791  0.00  0.00    +0.000 C 
ATOM     17  C   UNL     1       1.460   3.921  17.951  0.00  0.00    +0.000 C 
ATOM     18  C   UNL     1       1.157   2.616  18.682  0.00  0.00    +0.000 C 
ATOM     19  O   UNL     1       0.581   2.880  19.961  0.00  0.00    +0.000 OA
ATOM     20  C   UNL     1       1.467   3.606  20.811  0.00  0.00    +0.000 C 
ATOM     21  C   UNL     1       1.827   4.956  20.202  0.00  0.00    +0.000 C 
ENDBRANCH  15  16
ENDBRANCH   4  15
TORSDOF 5
ENDMDL
MODEL 5
REMARK VINA RESULT:      -5.9      0.997      1.285
REMARK  Name = 
REMARK  9 active torsions:
REMARK  status: ('A' for Active; 'I' for Inactive)
REMARK    1  A    between atoms: C_1  and  N_2
REMARK    2  A    between atoms: N_2  and  C_10
REMARK    3  A    between atoms: C_3  and  O_5
REMARK    4  A    between atoms: O_5  and  C_6
REMARK    5  A    between atoms: C_6  and  C_7
REMARK    6  A    between atoms: C_6  and  C_8
REMARK    7  A    between atoms: C_6  and  C_9
REMARK    8  A    between atoms: N_13  and  C_14
REMARK    9  A    between atoms: C_14  and  C_15
REMARK                            x       y       z     vdW  Elec       q    Type
REMARK                         _______ _______ _______ _____ _____    ______ ____
ROOT
ATOM      1  C   UNL     1       4.862   6.646  17.909  0.00  0.00    +0.000 C 
ATOM      2  C   UNL     1       6.067   5.988  18.573  0.00  0.00    +0.000 C 
ATOM      3  C   UNL     1       7.194   6.473  17.688  0.00  0.00    +0.000 C 
ATOM      4  N   UNL     1       6.686   6.332  16.312  0.00  0.00    +0.000 NA
ATOM      5  C   UNL     1       5.224   6.632  16.410  0.00  0.00    +0.000 C 
ENDROOT
BRANCH   1   7
ATOM      6  C   UNL     1       2.597   6.922  19.003  0.00  0.00    +0.000 C 
ATOM      7  N   UNL     1       3.597   6.072  18.378  0.00  0.00    +0.000 N 
ATOM      8  C   UNL     1       3.327   4.778  17.937  0.00  0.00    +0.000 C 
ATOM      9  O   UNL     1       4.191   4.100  17.385  0.00  0.00    +0.000 OA
BRANCH   8  10
ATOM     10  O   UNL     1       2.046   4.352  18.125  0.00  0.00    +0.000 OA
BRANCH  10  11
ATOM     11  C   UNL     1       1.798   3.384  19.188  0.00  0.00    +0.000 C 
ATOM     12  C   UNL     1       3.108   2.968  19.876  0.00  0.00    +0.000 C 
ATOM     13  C   UNL     1       0.918   4.083  20.240  0.00  0.00    +0.000 C 
ATOM     14  C   UNL     1       1.003   2.174  18.666  0.00  0.00    +0.000 C 
ENDBRANCH  10  11
ENDBRANCH   8  10
ENDBRANCH   1   7
BRANCH   4  15
ATOM     15  C   UNL     1       6.891   4.990  15.734  0.00  0.00    +0.000 C 
BRANCH  15  16
ATOM     16  C   UNL     1       6.530   4.826  14.240  0.00  0.00    +0.000 C 
ATOM     17  C   UNL     1       5.961   3.440  13.903  0.00  0.00    +0.000 C 
ATOM     18  C   UNL     1       5.718   3.327  12.401  0.00  0.00    +0.000 C 
ATOM     19  O   UNL     1       6.928   3.550  11.678  0.00  0.00    +0.000 OA
ATOM     20  C   UNL     1       7.449   4.860  11.891  0.00  0.00    +0.000 C 
ATOM     21  C   UNL     1       7.764   5.092  13.364  0.00  0.00    +0.000 C 
ENDBRANCH  15  16
ENDBRANCH   4  15
TORSDOF 5
ENDMDL
MODEL 6
REMARK VINA RESULT:      -5.8      1.115      1.449
REMARK  Name = 
REMARK  9 active torsions:
REMARK  status: ('A' for Active; 'I' for Inactive)
REMARK    1  A    between atoms: C_1  and  N_2
REMARK    2  A    between atoms: N_2  and  C_10
REMARK    3  A    between atoms: C_3  and  O_5
REMARK    4  A    between atoms: O_5  and  C_6
REMARK    5  A    between atoms: C_6  and  C_7
REMARK    6  A    between atoms: C_6  and  C_8
REMARK    7  A    between atoms: C_6  and  C_9
REMARK    8  A    between atoms: N_13  and  C_14
REMARK    9  A    between atoms: C_14  and  C_15
REMARK                            x       y       z     vdW  Elec       q    Type
REMARK                         _______ _______ _______ _____ _____    ______ ____
ROOT
ATOM      1  C   UNL     1       5.425   5.968  18.311  0.00  0.00    +0.000 C 
ATOM      2  C   UNL     1       6.906   5.843  18.651  0.00  0.00    +0.000 C 
ATOM      3  C   UNL     1       7.527   6.738  17.602  0.00  0.00    +0.000 C 
ATOM      4  N   UNL     1       6.818   6.411  16.352  0.00  0.00    +0.000 NA
ATOM      5  C   UNL     1       5.417   6.103  16.775  0.00  0.00    +0.000 C 
ENDROOT
BRANCH   1   7
ATOM      6  C   UNL     1       5.152   3.594  19.143  0.00  0.00    +0.000 C 
ATOM      7  N   UNL     1       4.622   4.937  18.976  0.00  0.00    +0.000 N 
ATOM      8  C   UNL     1       3.496   5.400  19.653  0.00  0.00    +0.000 C 
ATOM      9  O   UNL     1       3.095   6.554  19.509  0.00  0.00    +0.000 OA
BRANCH   8  10
ATOM     10  O   UNL     1       2.914   4.505  20.500  0.00  0.00    +0.000 OA
BRANCH  10  11
ATOM     11  C   UNL     1       1.580   4.018  20.167  0.00  0.00    +0.000 C 
ATOM     12  C   UNL     1       0.503   5.046  20.547  0.00  0.00    +0.000 C 
ATOM     13  C   UNL     1       1.534   3.836  18.639  0.00  0.00    +0.000 C 
ATOM     14  C   UNL     1       1.318   2.637  20.794  0.00  0.00    +0.000 C 
ENDBRANCH  10  11
ENDBRANCH   8  10
ENDBRANCH   1   7
BRANCH   4  15
ATOM     15  C   UNL     1       7.392   5.263  15.624  0.00  0.00    +0.000 C 
BRANCH  15  16
ATOM     16  C   UNL     1       6.825   4.997  14.210  0.00  0.00    +0.000 C 
ATOM     17  C   UNL     1       6.145   3.627  14.077  0.00  0.00    +0.000 C 
ATOM     18  C   UNL     1       5.697   3.404  12.636  0.00  0.00    +0.000 C 
ATOM     19  O   UNL     1       6.810   3.488  11.746  0.00  0.00    +0.000 OA
ATOM     20  C   UNL     1       7.422   4.776  11.768  0.00  0.00    +0.000 C 
ATOM     21  C   UNL     1       7.943   5.111  13.161  0.00  0.00    +0.000 C 
ENDBRANCH  15  16
ENDBRANCH   4  15
TORSDOF 5
ENDMDL
MODEL 7
REMARK VINA RESULT:      -5.8      3.241      5.133
REMARK  Name = 
REMARK  9 active torsions:
REMARK  status: ('A' for Active; 'I' for Inactive)
REMARK    1  A    between atoms: C_1  and  N_2
REMARK    2  A    between atoms: N_2  and  C_10
REMARK    3  A    between atoms: C_3  and  O_5
REMARK    4  A    between atoms: O_5  and  C_6
REMARK    5  A    between atoms: C_6  and  C_7
REMARK    6  A    between atoms: C_6  and  C_8
REMARK    7  A    between atoms: C_6  and  C_9
REMARK    8  A    between atoms: N_13  and  C_14
REMARK    9  A    between atoms: C_14  and  C_15
REMARK                            x       y       z     vdW  Elec       q    Type
REMARK                         _______ _______ _______ _____ _____    ______ ____
ROOT
ATOM      1  C   UNL     1       2.257   5.827  19.222  0.00  0.00    +0.000 C 
ATOM      2  C   UNL     1       1.795   5.068  17.983  0.00  0.00    +0.000 C 
ATOM      3  C   UNL     1       1.978   3.635  18.430  0.00  0.00    +0.000 C 
ATOM      4  N   UNL     1       3.282   3.611  19.115  0.00  0.00    +0.000 NA
ATOM      5  C   UNL     1       3.386   4.943  19.788  0.00  0.00    +0.000 C 
ENDROOT
BRANCH   1   7
ATOM      6  C   UNL     1       3.080   7.651  17.673  0.00  0.00    +0.000 C 
ATOM      7  N   UNL     1       2.490   7.248  18.938  0.00  0.00    +0.000 N 
ATOM      8  C   UNL     1       1.868   8.141  19.808  0.00  0.00    +0.000 C 
ATOM      9  O   UNL     1       1.354   7.756  20.856  0.00  0.00    +0.000 OA
BRANCH   8  10
ATOM     10  O   UNL     1       1.841   9.438  19.391  0.00  0.00    +0.000 OA
BRANCH  10  11
ATOM     11  C   UNL     1       0.537  10.064  19.194  0.00  0.00    +0.000 C 
ATOM     12  C   UNL     1      -0.353   9.893  20.434  0.00  0.00    +0.000 C 
ATOM     13  C   UNL     1       0.784  11.571  18.999  0.00  0.00    +0.000 C 
ATOM     14  C   UNL     1      -0.141   9.547  17.912  0.00  0.00    +0.000 C 
ENDBRANCH  10  11
ENDBRANCH   8  10
ENDBRANCH   1   7
BRANCH   4  15
ATOM     15  C   UNL     1       4.429   3.410  18.209  0.00  0.00    +0.000 C 
BRANCH  15  16
ATOM     16  C   UNL     1       5.129   4.690  17.696  0.00  0.00    +0.000 C 
ATOM     17  C   UNL     1       5.075   4.839  16.169  0.00  0.00    +0.000 C 
ATOM     18  C   UNL     1       5.863   6.071  15.736  0.00  0.00    +0.000 C 
ATOM     19  O   UNL     1       7.219   5.979  16.173  0.00  0.00    +0.000 OA
ATOM     20  C   UNL     1       7.325   5.927  17.595  0.00  0.00    +0.000 C 
ATOM     21  C   UNL     1       6.595   4.712  18.155  0.00  0.00    +0.000 C 
ENDBRANCH  15  16
ENDBRANCH   4  15
TORSDOF 5
ENDMDL
MODEL 8
REMARK VINA RESULT:      -5.6      1.946      6.696
REMARK  Name = 
REMARK  9 active torsions:
REMARK  status: ('A' for Active; 'I' for Inactive)
REMARK    1  A    between atoms: C_1  and  N_2
REMARK    2  A    between atoms: N_2  and  C_10
REMARK    3  A    between atoms: C_3  and  O_5
REMARK    4  A    between atoms: O_5  and  C_6
REMARK    5  A    between atoms: C_6  and  C_7
REMARK    6  A    between atoms: C_6  and  C_8
REMARK    7  A    between atoms: C_6  and  C_9
REMARK    8  A    between atoms: N_13  and  C_14
REMARK    9  A    between atoms: C_14  and  C_15
REMARK                            x       y       z     vdW  Elec       q    Type
REMARK                         _______ _______ _______ _____ _____    ______ ____
ROOT
ATOM      1  C   UNL     1       5.145   6.072  17.774  0.00  0.00    +0.000 C 
ATOM      2  C   UNL     1       4.144   6.920  16.998  0.00  0.00    +0.000 C 
ATOM      3  C   UNL     1       3.517   7.729  18.112  0.00  0.00    +0.000 C 
ATOM      4  N   UNL     1       3.288   6.765  19.203  0.00  0.00    +0.000 NA
ATOM      5  C   UNL     1       4.433   5.808  19.116  0.00  0.00    +0.000 C 
ENDROOT
BRANCH   1   7
ATOM      6  C   UNL     1       4.861   3.759  16.788  0.00  0.00    +0.000 C 
ATOM      7  N   UNL     1       5.660   4.958  16.969  0.00  0.00    +0.000 N 
ATOM      8  C   UNL     1       6.784   5.247  16.198  0.00  0.00    +0.000 C 
ATOM      9  O   UNL     1       7.417   6.289  16.360  0.00  0.00    +0.000 OA
BRANCH   8  10
ATOM     10  O   UNL     1       7.091   4.324  15.244  0.00  0.00    +0.000 OA
BRANCH  10  11
ATOM     11  C   UNL     1       6.718   4.618  13.864  0.00  0.00    +0.000 C 
ATOM     12  C   UNL     1       7.905   5.197  13.080  0.00  0.00    +0.000 C 
ATOM     13  C   UNL     1       6.329   3.281  13.207  0.00  0.00    +0.000 C 
ATOM     14  C   UNL     1       5.478   5.529  13.804  0.00  0.00    +0.000 C 
ENDBRANCH  10  11
ENDBRANCH   8  10
ENDBRANCH   1   7
BRANCH   4  15
ATOM     15  C   UNL     1       2.009   6.036  19.096  0.00  0.00    +0.000 C 
BRANCH  15  16
ATOM     16  C   UNL     1       2.067   4.511  19.340  0.00  0.00    +0.000 C 
ATOM     17  C   UNL     1       1.467   3.689  18.191  0.00  0.00    +0.000 C 
ATOM     18  C   UNL     1       1.478   2.206  18.548  0.00  0.00    +0.000 C 
ATOM     19  O   UNL     1       0.747   1.974  19.752  0.00  0.00    +0.000 OA
ATOM     20  C   UNL     1       1.321   2.648  20.870  0.00  0.00    +0.000 C 
ATOM     21  C   UNL     1       1.342   4.156  20.648  0.00  0.00    +0.000 C 
ENDBRANCH  15  16
ENDBRANCH   4  15
TORSDOF 5
ENDMDL
MODEL 9
REMARK VINA RESULT:      -5.6      3.163      4.861
REMARK  Name = 
REMARK  9 active torsions:
REMARK  status: ('A' for Active; 'I' for Inactive)
REMARK    1  A    between atoms: C_1  and  N_2
REMARK    2  A    between atoms: N_2  and  C_10
REMARK    3  A    between atoms: C_3  and  O_5
REMARK    4  A    between atoms: O_5  and  C_6
REMARK    5  A    between atoms: C_6  and  C_7
REMARK    6  A    between atoms: C_6  and  C_8
REMARK    7  A    between atoms: C_6  and  C_9
REMARK    8  A    between atoms: N_13  and  C_14
REMARK    9  A    between atoms: C_14  and  C_15
REMARK                            x       y       z     vdW  Elec       q    Type
REMARK                         _______ _______ _______ _____ _____    ______ ____
ROOT
ATOM      1  C   UNL     1       2.260   5.207  19.169  0.00  0.00    +0.000 C 
ATOM      2  C   UNL     1       1.743   4.721  17.819  0.00  0.00    +0.000 C 
ATOM      3  C   UNL     1       2.111   3.255  17.873  0.00  0.00    +0.000 C 
ATOM      4  N   UNL     1       3.478   3.224  18.423  0.00  0.00    +0.000 NA
ATOM      5  C   UNL     1       3.524   4.355  19.400  0.00  0.00    +0.000 C 
ENDROOT
BRANCH   1   7
ATOM      6  C   UNL     1       2.801   7.434  18.096  0.00  0.00    +0.000 C 
ATOM      7  N   UNL     1       2.322   6.672  19.236  0.00  0.00    +0.000 N 
ATOM      8  C   UNL     1       1.649   7.250  20.310  0.00  0.00    +0.000 C 
ATOM      9  O   UNL     1       1.232   6.566  21.243  0.00  0.00    +0.000 OA
BRANCH   8  10
ATOM     10  O   UNL     1       1.459   8.596  20.224  0.00  0.00    +0.000 OA
BRANCH  10  11
ATOM     11  C   UNL     1       0.803   9.266  21.342  0.00  0.00    +0.000 C 
ATOM     12  C   UNL     1       1.688   9.245  22.597  0.00  0.00    +0.000 C 
ATOM     13  C   UNL     1       0.604  10.737  20.933  0.00  0.00    +0.000 C 
ATOM     14  C   UNL     1      -0.595   8.676  21.602  0.00  0.00    +0.000 C 
ENDBRANCH  10  11
ENDBRANCH   8  10
ENDBRANCH   1   7
BRANCH   4  15
ATOM     15  C   UNL     1       4.534   3.389  17.406  0.00  0.00    +0.000 C 
BRANCH  15  16
ATOM     16  C   UNL     1       5.304   4.730  17.429  0.00  0.00    +0.000 C 
ATOM     17  C   UNL     1       5.225   5.497  16.102  0.00  0.00    +0.000 C 
ATOM     18  C   UNL     1       6.081   6.757  16.175  0.00  0.00    +0.000 C 
ATOM     19  O   UNL     1       7.438   6.426  16.472  0.00  0.00    +0.000 OA
ATOM     20  C   UNL     1       7.572   5.789  17.740  0.00  0.00    +0.000 C 
ATOM     21  C   UNL     1       6.779   4.488  17.788  0.00  0.00    +0.000 C 
ENDBRANCH  15  16
ENDBRANCH   4  15
TORSDOF 5
ENDMDL
