MODEL 1
REMARK VINA RESULT:      -6.5      0.000      0.000
REMARK  Name = 
REMARK  9 active torsions:
REMARK  status: ('A' for Active; 'I' for Inactive)
REMARK    1  A    between atoms: C_2  and  O_3
REMARK    2  A    between atoms: C_2  and  C_4
REMARK    3  A    between atoms: C_4  and  C_5
REMARK    4  A    between atoms: C_5  and  C_6
REMARK    5  A    between atoms: C_6  and  C_7
REMARK    6  A    between atoms: C_7  and  C_8
REMARK    7  A    between atoms: C_8  and  N_9
REMARK    8  A    between atoms: N_9  and  S_10
REMARK    9  A    between atoms: S_10  and  C_13
REMARK                            x       y       z     vdW  Elec       q    Type
REMARK                         _______ _______ _______ _____ _____    ______ ____
ROOT
ATOM      1  N   UNL     1       4.195   5.732  19.302  0.00  0.00    +0.000 NA
ATOM      2  H   UNL     1       3.665   5.450  20.129  0.00  0.00    +0.000 HD
ENDROOT
BRANCH   1   3
ATOM      3  S   UNL     1       5.535   4.701  19.125  0.00  0.00    +0.000 S 
ATOM      4  O   UNL     1       6.643   5.359  19.786  0.00  0.00    +0.000 OA
ATOM      5  O   UNL     1       5.097   3.405  19.581  0.00  0.00    +0.000 OA
BRANCH   3   6
ATOM      6  C   UNL     1       5.876   4.702  17.384  0.00  0.00    +0.000 A 
ATOM      7  C   UNL     1       6.763   5.658  16.855  0.00  0.00    +0.000 A 
ATOM      8 CL   UNL     1       7.537   6.900  17.780  0.00  0.00    +0.000 Cl
ATOM      9  C   UNL     1       7.090   5.651  15.487  0.00  0.00    +0.000 A 
ATOM     10  C   UNL     1       6.552   4.696  14.634  0.00  0.00    +0.000 A 
ATOM     11  C   UNL     1       5.689   3.738  15.151  0.00  0.00    +0.000 A 
ATOM     12  C   UNL     1       5.353   3.728  16.517  0.00  0.00    +0.000 A 
ATOM     13 CL   UNL     1       4.304   2.431  16.967  0.00  0.00    +0.000 Cl
ENDBRANCH   3   6
ENDBRANCH   1   3
BRANCH   1  14
ATOM     14  C   UNL     1       3.419   6.016  18.086  0.00  0.00    +0.000 C 
BRANCH  14  15
ATOM     15  C   UNL     1       1.943   5.672  18.298  0.00  0.00    +0.000 C 
BRANCH  15  16
ATOM     16  C   UNL     1       1.642   4.265  17.768  0.00  0.00    +0.000 C 
BRANCH  16  17
ATOM     17  C   UNL     1       1.343   3.270  18.891  0.00  0.00    +0.000 C 
BRANCH  17  18
ATOM     18  C   UNL     1       0.916   3.995  20.173  0.00  0.00    +0.000 C 
BRANCH  18  20
ATOM     19  O   UNL     1       1.900   2.681  21.964  0.00  0.00    +0.000 OA
ATOM     20  C   UNL     1       1.850   3.722  21.330  0.00  0.00    +0.000 C 
BRANCH  20  21
ATOM     21  O   UNL     1       2.656   4.775  21.609  0.00  0.00    +0.000 OA
ATOM     22  H   UNL     1       2.185   5.612  21.775  0.00  0.00    +0.000 HD
ENDBRANCH  20  21
ENDBRANCH  18  20
ENDBRANCH  17  18
ENDBRANCH  16  17
ENDBRANCH  15  16
ENDBRANCH  14  15
ENDBRANCH   1  14
TORSDOF 9
ENDMDL
MODEL 2
REMARK VINA RESULT:      -6.3      0.679      2.214
REMARK  Name = 
REMARK  9 active torsions:
REMARK  status: ('A' for Active; 'I' for Inactive)
REMARK    1  A    between atoms: C_2  and  O_3
REMARK    2  A    between atoms: C_2  and  C_4
REMARK    3  A    between atoms: C_4  and  C_5
REMARK    4  A    between atoms: C_5  and  C_6
REMARK    5  A    between atoms: C_6  and  C_7
REMARK    6  A    between atoms: C_7  and  C_8
REMARK    7  A    between atoms: C_8  and  N_9
REMARK    8  A    between atoms: N_9  and  S_10
REMARK    9  A    between atoms: S_10  and  C_13
REMARK                            x       y       z     vdW  Elec       q    Type
REMARK                         _______ _______ _______ _____ _____    ______ ____
ROOT
ATOM      1  N   UNL     1       4.408   5.913  19.303  0.00  0.00    +0.000 NA
ATOM      2  H   UNL     1       3.999   5.818  20.236  0.00  0.00    +0.000 HD
ENDROOT
BRANCH   1   3
ATOM      3  S   UNL     1       5.648   4.765  19.122  0.00  0.00    +0.000 S 
ATOM      4  O   UNL     1       6.810   5.315  19.789  0.00  0.00    +0.000 OA
ATOM      5  O   UNL     1       5.093   3.512  19.570  0.00  0.00    +0.000 OA
BRANCH   3   6
ATOM      6  C   UNL     1       5.992   4.745  17.382  0.00  0.00    +0.000 A 
ATOM      7  C   UNL     1       5.355   3.794  16.563  0.00  0.00    +0.000 A 
ATOM      8 CL   UNL     1       4.267   2.574  17.135  0.00  0.00    +0.000 Cl
ATOM      9  C   UNL     1       5.570   3.787  15.173  0.00  0.00    +0.000 A 
ATOM     10  C   UNL     1       6.408   4.724  14.581  0.00  0.00    +0.000 A 
ATOM     11  C   UNL     1       7.027   5.677  15.379  0.00  0.00    +0.000 A 
ATOM     12  C   UNL     1       6.821   5.701  16.771  0.00  0.00    +0.000 A 
ATOM     13 CL   UNL     1       7.643   6.990  17.575  0.00  0.00    +0.000 Cl
ENDBRANCH   3   6
ENDBRANCH   1   3
BRANCH   1  14
ATOM     14  C   UNL     1       3.465   6.045  18.182  0.00  0.00    +0.000 C 
BRANCH  14  15
ATOM     15  C   UNL     1       2.040   5.723  18.636  0.00  0.00    +0.000 C 
BRANCH  15  16
ATOM     16  C   UNL     1       1.623   4.335  18.137  0.00  0.00    +0.000 C 
BRANCH  16  17
ATOM     17  C   UNL     1       1.227   3.399  19.280  0.00  0.00    +0.000 C 
BRANCH  17  18
ATOM     18  C   UNL     1       1.658   3.969  20.636  0.00  0.00    +0.000 C 
BRANCH  18  20
ATOM     19  O   UNL     1       3.046   2.421  21.893  0.00  0.00    +0.000 OA
ATOM     20  C   UNL     1       1.945   2.887  21.653  0.00  0.00    +0.000 C 
BRANCH  20  21
ATOM     21  O   UNL     1       0.829   2.468  22.298  0.00  0.00    +0.000 OA
ATOM     22  H   UNL     1       0.373   3.162  22.809  0.00  0.00    +0.000 HD
ENDBRANCH  20  21
ENDBRANCH  18  20
ENDBRANCH  17  18
ENDBRANCH  16  17
ENDBRANCH  15  16
ENDBRANCH  14  15
ENDBRANCH   1  14
TORSDOF 9
ENDMDL
MODEL 3
REMARK VINA RESULT:      -6.2      3.463      6.691
REMARK  Name = 
REMARK  9 active torsions:
REMARK  status: ('A' for Active; 'I' for Inactive)
REMARK    1  A    between atoms: C_2  and  O_3
REMARK    2  A    between atoms: C_2  and  C_4
REMARK    3  A    between atoms: C_4  and  C_5
REMARK    4  A    between atoms: C_5  and  C_6
REMARK    5  A    between atoms: C_6  and  C_7
REMARK    6  A    between atoms: C_7  and  C_8
REMARK    7  A    between atoms: C_8  and  N_9
REMARK    8  A    between atoms: N_9  and  S_10
REMARK    9  A    between atoms: S_10  and  C_13
REMARK                            x       y       z     vdW  Elec       q    Type
REMARK                         _______ _______ _______ _____ _____    ______ ____
ROOT
ATOM      1  N   UNL     1       4.510   5.202  16.989  0.00  0.00    +0.000 NA
ATOM      2  H   UNL     1       4.374   4.191  16.924  0.00  0.00    +0.000 HD
ENDROOT
BRANCH   1   3
ATOM      3  S   UNL     1       4.088   5.718  18.553  0.00  0.00    +0.000 S 
ATOM      4  O   UNL     1       5.248   5.479  19.386  0.00  0.00    +0.000 OA
ATOM      5  O   UNL     1       3.582   7.060  18.400  0.00  0.00    +0.000 OA
BRANCH   3   6
ATOM      6  C   UNL     1       2.818   4.593  19.070  0.00  0.00    +0.000 A 
ATOM      7  C   UNL     1       2.849   3.261  18.616  0.00  0.00    +0.000 A 
ATOM      8 CL   UNL     1       4.031   2.621  17.525  0.00  0.00    +0.000 Cl
ATOM      9  C   UNL     1       1.884   2.334  19.050  0.00  0.00    +0.000 A 
ATOM     10  C   UNL     1       0.888   2.713  19.940  0.00  0.00    +0.000 A 
ATOM     11  C   UNL     1       0.860   4.020  20.408  0.00  0.00    +0.000 A 
ATOM     12  C   UNL     1       1.819   4.960  19.987  0.00  0.00    +0.000 A 
ATOM     13 CL   UNL     1       1.637   6.515  20.717  0.00  0.00    +0.000 Cl
ENDBRANCH   3   6
ENDBRANCH   1   3
BRANCH   1  14
ATOM     14  C   UNL     1       5.765   5.734  16.437  0.00  0.00    +0.000 C 
BRANCH  14  15
ATOM     15  C   UNL     1       6.670   4.595  15.965  0.00  0.00    +0.000 C 
BRANCH  15  16
ATOM     16  C   UNL     1       6.932   4.713  14.458  0.00  0.00    +0.000 C 
BRANCH  16  17
ATOM     17  C   UNL     1       5.837   4.048  13.623  0.00  0.00    +0.000 C 
BRANCH  17  18
ATOM     18  C   UNL     1       6.419   3.398  12.363  0.00  0.00    +0.000 C 
BRANCH  18  20
ATOM     19  O   UNL     1       4.300   2.848  11.308  0.00  0.00    +0.000 OA
ATOM     20  C   UNL     1       5.420   2.510  11.656  0.00  0.00    +0.000 C 
BRANCH  20  21
ATOM     21  O   UNL     1       5.898   1.262  11.433  0.00  0.00    +0.000 OA
ATOM     22  H   UNL     1       5.601   0.595  12.078  0.00  0.00    +0.000 HD
ENDBRANCH  20  21
ENDBRANCH  18  20
ENDBRANCH  17  18
ENDBRANCH  16  17
ENDBRANCH  15  16
ENDBRANCH  14  15
ENDBRANCH   1  14
TORSDOF 9
ENDMDL
MODEL 4
REMARK VINA RESULT:      -6.2      3.342      6.651
REMARK  Name = 
REMARK  9 active torsions:
REMARK  status: ('A' for Active; 'I' for Inactive)
REMARK    1  A    between atoms: C_2  and  O_3
REMARK    2  A    between atoms: C_2  and  C_4
REMARK    3  A    between atoms: C_4  and  C_5
REMARK    4  A    between atoms: C_5  and  C_6
REMARK    5  A    between atoms: C_6  and  C_7
REMARK    6  A    between atoms: C_7  and  C_8
REMARK    7  A    between atoms: C_8  and  N_9
REMARK    8  A    between atoms: N_9  and  S_10
REMARK    9  A    between atoms: S_10  and  C_13
REMARK                            x       y       z     vdW  Elec       q    Type
REMARK                         _______ _______ _______ _____ _____    ______ ____
ROOT
ATOM      1  N   UNL     1       5.478   3.778  17.828  0.00  0.00    +0.000 NA
ATOM      2  H   UNL     1       5.932   3.003  18.315  0.00  0.00    +0.000 HD
ENDROOT
BRANCH   1   3
ATOM      3  S   UNL     1       5.097   4.994  18.953  0.00  0.00    +0.000 S 
ATOM      4  O   UNL     1       6.127   4.941  19.970  0.00  0.00    +0.000 OA
ATOM      5  O   UNL     1       4.914   6.199  18.183  0.00  0.00    +0.000 OA
BRANCH   3   6
ATOM      6  C   UNL     1       3.581   4.456  19.700  0.00  0.00    +0.000 A 
ATOM      7  C   UNL     1       3.481   3.140  20.190  0.00  0.00    +0.000 A 
ATOM      8 CL   UNL     1       4.736   1.952  20.080  0.00  0.00    +0.000 Cl
ATOM      9  C   UNL     1       2.309   2.702  20.832  0.00  0.00    +0.000 A 
ATOM     10  C   UNL     1       1.231   3.561  21.002  0.00  0.00    +0.000 A 
ATOM     11  C   UNL     1       1.326   4.866  20.537  0.00  0.00    +0.000 A 
ATOM     12  C   UNL     1       2.493   5.323  19.895  0.00  0.00    +0.000 A 
ATOM     13 CL   UNL     1       2.428   6.986  19.434  0.00  0.00    +0.000 Cl
ENDBRANCH   3   6
ENDBRANCH   1   3
BRANCH   1  14
ATOM     14  C   UNL     1       6.099   4.218  16.569  0.00  0.00    +0.000 C 
BRANCH  14  15
ATOM     15  C   UNL     1       5.062   4.261  15.445  0.00  0.00    +0.000 C 
BRANCH  15  16
ATOM     16  C   UNL     1       5.680   4.851  14.172  0.00  0.00    +0.000 C 
BRANCH  16  17
ATOM     17  C   UNL     1       6.820   3.990  13.625  0.00  0.00    +0.000 C 
BRANCH  17  18
ATOM     18  C   UNL     1       6.673   3.770  12.115  0.00  0.00    +0.000 C 
BRANCH  18  20
ATOM     19  O   UNL     1       4.400   3.133  11.539  0.00  0.00    +0.000 OA
ATOM     20  C   UNL     1       5.552   2.812  11.778  0.00  0.00    +0.000 C 
BRANCH  20  21
ATOM     21  O   UNL     1       5.959   1.520  11.762  0.00  0.00    +0.000 OA
ATOM     22  H   UNL     1       6.921   1.397  11.859  0.00  0.00    +0.000 HD
ENDBRANCH  20  21
ENDBRANCH  18  20
ENDBRANCH  17  18
ENDBRANCH  16  17
ENDBRANCH  15  16
ENDBRANCH  14  15
ENDBRANCH   1  14
TORSDOF 9
ENDMDL
MODEL 5
REMARK VINA RESULT:      -6.2      3.489      6.554
REMARK  Name = 
REMARK  9 active torsions:
REMARK  status: ('A' for Active; 'I' for Inactive)
REMARK    1  A    between atoms: C_2  and  O_3
REMARK    2  A    between atoms: C_2  and  C_4
REMARK    3  A    between atoms: C_4  and  C_5
REMARK    4  A    between atoms: C_5  and  C_6
REMARK    5  A    between atoms: C_6  and  C_7
REMARK    6  A    between atoms: C_7  and  C_8
REMARK    7  A    between atoms: C_8  and  N_9
REMARK    8  A    between atoms: N_9  and  S_10
REMARK    9  A    between atoms: S_10  and  C_13
REMARK                            x       y       z     vdW  Elec       q    Type
REMARK                         _______ _______ _______ _____ _____    ______ ____
ROOT
ATOM      1  N   UNL     1       4.460   4.017  16.779  0.00  0.00    +0.000 NA
ATOM      2  H   UNL     1       3.880   3.176  16.824  0.00  0.00    +0.000 HD
ENDROOT
BRANCH   1   3
ATOM      3  S   UNL     1       4.612   4.668  18.342  0.00  0.00    +0.000 S 
ATOM      4  O   UNL     1       5.780   4.044  18.929  0.00  0.00    +0.000 OA
ATOM      5  O   UNL     1       4.574   6.100  18.176  0.00  0.00    +0.000 OA
BRANCH   3   6
ATOM      6  C   UNL     1       3.190   4.071  19.218  0.00  0.00    +0.000 A 
ATOM      7  C   UNL     1       2.324   4.991  19.838  0.00  0.00    +0.000 A 
ATOM      8 CL   UNL     1       2.561   6.706  19.857  0.00  0.00    +0.000 Cl
ATOM      9  C   UNL     1       1.163   4.549  20.496  0.00  0.00    +0.000 A 
ATOM     10  C   UNL     1       0.844   3.198  20.541  0.00  0.00    +0.000 A 
ATOM     11  C   UNL     1       1.684   2.284  19.917  0.00  0.00    +0.000 A 
ATOM     12  C   UNL     1       2.848   2.709  19.251  0.00  0.00    +0.000 A 
ATOM     13 CL   UNL     1       3.730   1.425  18.504  0.00  0.00    +0.000 Cl
ENDBRANCH   3   6
ENDBRANCH   1   3
BRANCH   1  14
ATOM     14  C   UNL     1       5.693   3.924  15.983  0.00  0.00    +0.000 C 
BRANCH  14  15
ATOM     15  C   UNL     1       5.748   5.048  14.946  0.00  0.00    +0.000 C 
BRANCH  15  16
ATOM     16  C   UNL     1       6.938   4.843  14.001  0.00  0.00    +0.000 C 
BRANCH  16  17
ATOM     17  C   UNL     1       6.643   3.817  12.906  0.00  0.00    +0.000 C 
BRANCH  17  18
ATOM     18  C   UNL     1       5.141   3.741  12.609  0.00  0.00    +0.000 C 
BRANCH  18  20
ATOM     19  O   UNL     1       5.451   1.724  11.291  0.00  0.00    +0.000 OA
ATOM     20  C   UNL     1       4.816   2.738  11.526  0.00  0.00    +0.000 C 
BRANCH  20  21
ATOM     21  O   UNL     1       3.713   3.078  10.814  0.00  0.00    +0.000 OA
ATOM     22  H   UNL     1       3.019   2.395  10.794  0.00  0.00    +0.000 HD
ENDBRANCH  20  21
ENDBRANCH  18  20
ENDBRANCH  17  18
ENDBRANCH  16  17
ENDBRANCH  15  16
ENDBRANCH  14  15
ENDBRANCH   1  14
TORSDOF 9
ENDMDL
MODEL 6
REMARK VINA RESULT:      -6.2      1.819      2.234
REMARK  Name = 
REMARK  9 active torsions:
REMARK  status: ('A' for Active; 'I' for Inactive)
REMARK    1  A    between atoms: C_2  and  O_3
REMARK    2  A    between atoms: C_2  and  C_4
REMARK    3  A    between atoms: C_4  and  C_5
REMARK    4  A    between atoms: C_5  and  C_6
REMARK    5  A    between atoms: C_6  and  C_7
REMARK    6  A    between atoms: C_7  and  C_8
REMARK    7  A    between atoms: C_8  and  N_9
REMARK    8  A    between atoms: N_9  and  S_10
REMARK    9  A    between atoms: S_10  and  C_13
REMARK                            x       y       z     vdW  Elec       q    Type
REMARK                         _______ _______ _______ _____ _____    ______ ____
ROOT
ATOM      1  N   UNL     1       5.062   3.432  19.278  0.00  0.00    +0.000 NA
ATOM      2  H   UNL     1       5.920   2.880  19.340  0.00  0.00    +0.000 HD
ENDROOT
BRANCH   1   3
ATOM      3  S   UNL     1       5.465   5.084  19.275  0.00  0.00    +0.000 S 
ATOM      4  O   UNL     1       4.286   5.789  19.734  0.00  0.00    +0.000 OA
ATOM      5  O   UNL     1       6.696   5.189  20.018  0.00  0.00    +0.000 OA
BRANCH   3   6
ATOM      6  C   UNL     1       5.695   5.487  17.563  0.00  0.00    +0.000 A 
ATOM      7  C   UNL     1       6.851   5.039  16.898  0.00  0.00    +0.000 A 
ATOM      8 CL   UNL     1       8.129   4.139  17.643  0.00  0.00    +0.000 Cl
ATOM      9  C   UNL     1       7.036   5.301  15.528  0.00  0.00    +0.000 A 
ATOM     10  C   UNL     1       6.078   6.000  14.805  0.00  0.00    +0.000 A 
ATOM     11  C   UNL     1       4.925   6.431  15.449  0.00  0.00    +0.000 A 
ATOM     12  C   UNL     1       4.723   6.175  16.818  0.00  0.00    +0.000 A 
ATOM     13 CL   UNL     1       3.209   6.753  17.418  0.00  0.00    +0.000 Cl
ENDBRANCH   3   6
ENDBRANCH   1   3
BRANCH   1  14
ATOM     14  C   UNL     1       4.068   2.996  18.285  0.00  0.00    +0.000 C 
BRANCH  14  15
ATOM     15  C   UNL     1       3.450   1.658  18.696  0.00  0.00    +0.000 C 
BRANCH  15  16
ATOM     16  C   UNL     1       1.927   1.789  18.814  0.00  0.00    +0.000 C 
BRANCH  16  17
ATOM     17  C   UNL     1       1.479   3.240  19.001  0.00  0.00    +0.000 C 
BRANCH  17  18
ATOM     18  C   UNL     1       0.932   3.473  20.414  0.00  0.00    +0.000 C 
BRANCH  18  20
ATOM     19  O   UNL     1       2.516   2.782  22.122  0.00  0.00    +0.000 OA
ATOM     20  C   UNL     1       2.030   3.665  21.435  0.00  0.00    +0.000 C 
BRANCH  20  21
ATOM     21  O   UNL     1       2.442   4.953  21.521  0.00  0.00    +0.000 OA
ATOM     22  H   UNL     1       3.410   5.068  21.536  0.00  0.00    +0.000 HD
ENDBRANCH  20  21
ENDBRANCH  18  20
ENDBRANCH  17  18
ENDBRANCH  16  17
ENDBRANCH  15  16
ENDBRANCH  14  15
ENDBRANCH   1  14
TORSDOF 9
ENDMDL
MODEL 7
REMARK VINA RESULT:      -6.2      3.571      6.919
REMARK  Name = 
REMARK  9 active torsions:
REMARK  status: ('A' for Active; 'I' for Inactive)
REMARK    1  A    between atoms: C_2  and  O_3
REMARK    2  A    between atoms: C_2  and  C_4
REMARK    3  A    between atoms: C_4  and  C_5
REMARK    4  A    between atoms: C_5  and  C_6
REMARK    5  A    between atoms: C_6  and  C_7
REMARK    6  A    between atoms: C_7  and  C_8
REMARK    7  A    between atoms: C_8  and  N_9
REMARK    8  A    between atoms: N_9  and  S_10
REMARK    9  A    between atoms: S_10  and  C_13
REMARK                            x       y       z     vdW  Elec       q    Type
REMARK                         _______ _______ _______ _____ _____    ______ ____
ROOT
ATOM      1  N   UNL     1       4.966   4.021  17.036  0.00  0.00    +0.000 NA
ATOM      2  H   UNL     1       5.822   3.467  16.956  0.00  0.00    +0.000 HD
ENDROOT
BRANCH   1   3
ATOM      3  S   UNL     1       4.793   4.544  18.645  0.00  0.00    +0.000 S 
ATOM      4  O   UNL     1       5.754   3.788  19.422  0.00  0.00    +0.000 OA
ATOM      5  O   UNL     1       4.882   5.982  18.602  0.00  0.00    +0.000 OA
BRANCH   3   6
ATOM      6  C   UNL     1       3.174   3.999  19.122  0.00  0.00    +0.000 A 
ATOM      7  C   UNL     1       2.831   2.642  18.976  0.00  0.00    +0.000 A 
ATOM      8 CL   UNL     1       3.871   1.431  18.306  0.00  0.00    +0.000 Cl
ATOM      9  C   UNL     1       1.572   2.174  19.393  0.00  0.00    +0.000 A 
ATOM     10  C   UNL     1       0.647   3.038  19.964  0.00  0.00    +0.000 A 
ATOM     11  C   UNL     1       0.984   4.375  20.129  0.00  0.00    +0.000 A 
ATOM     12  C   UNL     1       2.240   4.861  19.720  0.00  0.00    +0.000 A 
ATOM     13 CL   UNL     1       2.479   6.540  20.053  0.00  0.00    +0.000 Cl
ENDBRANCH   3   6
ENDBRANCH   1   3
BRANCH   1  14
ATOM     14  C   UNL     1       4.733   5.027  15.989  0.00  0.00    +0.000 C 
BRANCH  14  15
ATOM     15  C   UNL     1       5.906   5.065  15.009  0.00  0.00    +0.000 C 
BRANCH  15  16
ATOM     16  C   UNL     1       6.047   3.716  14.293  0.00  0.00    +0.000 C 
BRANCH  16  17
ATOM     17  C   UNL     1       6.433   3.874  12.822  0.00  0.00    +0.000 C 
BRANCH  17  18
ATOM     18  C   UNL     1       5.665   2.884  11.939  0.00  0.00    +0.000 C 
BRANCH  18  20
ATOM     19  O   UNL     1       7.677   1.931  10.966  0.00  0.00    +0.000 OA
ATOM     20  C   UNL     1       6.549   1.780  11.404  0.00  0.00    +0.000 C 
BRANCH  20  21
ATOM     21  O   UNL     1       5.954   0.564  11.458  0.00  0.00    +0.000 OA
ATOM     22  H   UNL     1       6.545  -0.164  11.724  0.00  0.00    +0.000 HD
ENDBRANCH  20  21
ENDBRANCH  18  20
ENDBRANCH  17  18
ENDBRANCH  16  17
ENDBRANCH  15  16
ENDBRANCH  14  15
ENDBRANCH   1  14
TORSDOF 9
ENDMDL
MODEL 8
REMARK VINA RESULT:      -6.1      3.314      6.612
REMARK  Name = 
REMARK  9 active torsions:
REMARK  status: ('A' for Active; 'I' for Inactive)
REMARK    1  A    between atoms: C_2  and  O_3
REMARK    2  A    between atoms: C_2  and  C_4
REMARK    3  A    between atoms: C_4  and  C_5
REMARK    4  A    between atoms: C_5  and  C_6
REMARK    5  A    between atoms: C_6  and  C_7
REMARK    6  A    between atoms: C_7  and  C_8
REMARK    7  A    between atoms: C_8  and  N_9
REMARK    8  A    between atoms: N_9  and  S_10
REMARK    9  A    between atoms: S_10  and  C_13
REMARK                            x       y       z     vdW  Elec       q    Type
REMARK                         _______ _______ _______ _____ _____    ______ ____
ROOT
ATOM      1  N   UNL     1       6.142   4.325  18.356  0.00  0.00    +0.000 NA
ATOM      2  H   UNL     1       6.359   3.393  18.716  0.00  0.00    +0.000 HD
ENDROOT
BRANCH   1   3
ATOM      3  S   UNL     1       4.583   4.309  17.679  0.00  0.00    +0.000 S 
ATOM      4  O   UNL     1       4.380   5.620  17.098  0.00  0.00    +0.000 OA
ATOM      5  O   UNL     1       4.532   3.139  16.838  0.00  0.00    +0.000 OA
BRANCH   3   6
ATOM      6  C   UNL     1       3.491   4.166  19.069  0.00  0.00    +0.000 A 
ATOM      7  C   UNL     1       3.519   2.997  19.852  0.00  0.00    +0.000 A 
ATOM      8 CL   UNL     1       4.526   1.625  19.536  0.00  0.00    +0.000 Cl
ATOM      9  C   UNL     1       2.700   2.878  20.989  0.00  0.00    +0.000 A 
ATOM     10  C   UNL     1       1.855   3.914  21.366  0.00  0.00    +0.000 A 
ATOM     11  C   UNL     1       1.833   5.078  20.610  0.00  0.00    +0.000 A 
ATOM     12  C   UNL     1       2.648   5.216  19.471  0.00  0.00    +0.000 A 
ATOM     13 CL   UNL     1       2.508   6.754  18.697  0.00  0.00    +0.000 Cl
ENDBRANCH   3   6
ENDBRANCH   1   3
BRANCH   1  14
ATOM     14  C   UNL     1       6.468   5.461  19.231  0.00  0.00    +0.000 C 
BRANCH  14  15
ATOM     15  C   UNL     1       7.728   6.175  18.738  0.00  0.00    +0.000 C 
BRANCH  15  16
ATOM     16  C   UNL     1       7.434   6.945  17.445  0.00  0.00    +0.000 C 
BRANCH  16  17
ATOM     17  C   UNL     1       7.769   8.432  17.563  0.00  0.00    +0.000 C 
BRANCH  17  18
ATOM     18  C   UNL     1       8.704   8.697  18.748  0.00  0.00    +0.000 C 
BRANCH  18  20
ATOM     19  O   UNL     1       9.628  10.654  19.854  0.00  0.00    +0.000 OA
ATOM     20  C   UNL     1       9.038  10.163  18.905  0.00  0.00    +0.000 C 
BRANCH  20  21
ATOM     21  O   UNL     1       8.610  10.910  17.859  0.00  0.00    +0.000 OA
ATOM     22  H   UNL     1       9.248  10.982  17.126  0.00  0.00    +0.000 HD
ENDBRANCH  20  21
ENDBRANCH  18  20
ENDBRANCH  17  18
ENDBRANCH  16  17
ENDBRANCH  15  16
ENDBRANCH  14  15
ENDBRANCH   1  14
TORSDOF 9
ENDMDL
MODEL 9
REMARK VINA RESULT:      -6.1      1.633      2.042
REMARK  Name = 
REMARK  9 active torsions:
REMARK  status: ('A' for Active; 'I' for Inactive)
REMARK    1  A    between atoms: C_2  and  O_3
REMARK    2  A    between atoms: C_2  and  C_4
REMARK    3  A    between atoms: C_4  and  C_5
REMARK    4  A    between atoms: C_5  and  C_6
REMARK    5  A    between atoms: C_6  and  C_7
REMARK    6  A    between atoms: C_7  and  C_8
REMARK    7  A    between atoms: C_8  and  N_9
REMARK    8  A    between atoms: N_9  and  S_10
REMARK    9  A    between atoms: S_10  and  C_13
REMARK                            x       y       z     vdW  Elec       q    Type
REMARK                         _______ _______ _______ _____ _____    ______ ____
ROOT
ATOM      1  N   UNL     1       3.342   4.974  18.825  0.00  0.00    +0.000 NA
ATOM      2  H   UNL     1       3.044   4.819  17.859  0.00  0.00    +0.000 HD
ENDROOT
BRANCH   1   3
ATOM      3  S   UNL     1       4.961   4.483  18.990  0.00  0.00    +0.000 S 
ATOM      4  O   UNL     1       5.625   5.527  19.743  0.00  0.00    +0.000 OA
ATOM      5  O   UNL     1       4.914   3.141  19.516  0.00  0.00    +0.000 OA
BRANCH   3   6
ATOM      6  C   UNL     1       5.612   4.518  17.340  0.00  0.00    +0.000 A 
ATOM      7  C   UNL     1       6.966   4.845  17.139  0.00  0.00    +0.000 A 
ATOM      8 CL   UNL     1       8.072   5.274  18.400  0.00  0.00    +0.000 Cl
ATOM      9  C   UNL     1       7.521   4.832  15.847  0.00  0.00    +0.000 A 
ATOM     10  C   UNL     1       6.746   4.489  14.746  0.00  0.00    +0.000 A 
ATOM     11  C   UNL     1       5.414   4.148  14.937  0.00  0.00    +0.000 A 
ATOM     12  C   UNL     1       4.842   4.153  16.223  0.00  0.00    +0.000 A 
ATOM     13 CL   UNL     1       3.188   3.655  16.252  0.00  0.00    +0.000 Cl
ENDBRANCH   3   6
ENDBRANCH   1   3
BRANCH   1  14
ATOM     14  C   UNL     1       2.982   6.266  19.427  0.00  0.00    +0.000 C 
BRANCH  14  15
ATOM     15  C   UNL     1       1.903   6.080  20.495  0.00  0.00    +0.000 C 
BRANCH  15  16
ATOM     16  C   UNL     1       2.082   4.732  21.204  0.00  0.00    +0.000 C 
BRANCH  16  17
ATOM     17  C   UNL     1       0.991   3.728  20.831  0.00  0.00    +0.000 C 
BRANCH  17  18
ATOM     18  C   UNL     1       1.590   2.352  20.516  0.00  0.00    +0.000 C 
BRANCH  18  20
ATOM     19  O   UNL     1       0.415   2.131  18.401  0.00  0.00    +0.000 OA
ATOM     20  C   UNL     1       1.427   1.970  19.063  0.00  0.00    +0.000 C 
BRANCH  20  21
ATOM     21  O   UNL     1       2.548   1.414  18.541  0.00  0.00    +0.000 OA
ATOM     22  H   UNL     1       2.626   1.494  17.573  0.00  0.00    +0.000 HD
ENDBRANCH  20  21
ENDBRANCH  18  20
ENDBRANCH  17  18
ENDBRANCH  16  17
ENDBRANCH  15  16
ENDBRANCH  14  15
ENDBRANCH   1  14
TORSDOF 9
ENDMDL
