MODEL 1
REMARK VINA RESULT:      -7.4      0.000      0.000
REMARK  Name = 
REMARK  7 active torsions:
REMARK  status: ('A' for Active; 'I' for Inactive)
REMARK    1  A    between atoms: C_1  and  O_2
REMARK    2  A    between atoms: O_2  and  C_3
REMARK    3  A    between atoms: C_6  and  N_7
REMARK    4  A    between atoms: N_7  and  C_8
REMARK    5  A    between atoms: C_8  and  N_10
REMARK    6  A    between atoms: C_18  and  O_19
REMARK    7  A    between atoms: O_19  and  C_20
REMARK                            x       y       z     vdW  Elec       q    Type
REMARK                         _______ _______ _______ _____ _____    ______ ____
ROOT
ATOM      1  N   UNL     1       4.112   5.372  18.914  0.00  0.00    +0.000 N 
ATOM      2  H   UNL     1       4.503   5.252  19.838  0.00  0.00    +0.000 HD
ENDROOT
BRANCH   1   6
ATOM      3  C   UNL     1       6.830   5.099  15.675  0.00  0.00    +0.000 A 
ATOM      4  C   UNL     1       5.907   4.074  15.898  0.00  0.00    +0.000 A 
ATOM      5  C   UNL     1       5.012   4.127  16.960  0.00  0.00    +0.000 A 
ATOM      6  C   UNL     1       5.058   5.176  17.876  0.00  0.00    +0.000 A 
ATOM      7  C   UNL     1       6.072   6.128  17.724  0.00  0.00    +0.000 A 
ATOM      8  C   UNL     1       6.961   6.114  16.631  0.00  0.00    +0.000 A 
BRANCH   3  10
ATOM      9  C   UNL     1       6.982   4.528  13.386  0.00  0.00    +0.000 C 
ATOM     10  O   UNL     1       7.603   5.106  14.539  0.00  0.00    +0.000 OA
ENDBRANCH   3  10
BRANCH   8  11
ATOM     11  O   UNL     1       7.832   7.166  16.662  0.00  0.00    +0.000 OA
ATOM     12  C   UNL     1       7.733   8.142  17.681  0.00  0.00    +0.000 C 
ENDBRANCH   8  11
ENDBRANCH   1   6
BRANCH   1  13
ATOM     13  C   UNL     1       2.838   5.935  18.881  0.00  0.00    +0.000 C 
ATOM     14  S   UNL     1       2.496   7.560  18.588  0.00  0.00    +0.000 S 
BRANCH  13  15
ATOM     15  N   UNL     1       1.814   4.976  19.153  0.00  0.00    +0.000 N 
ATOM     16  C   UNL     1       1.235   4.838  20.504  0.00  0.00    +0.000 C 
ATOM     17  C   UNL     1       2.061   3.910  21.401  0.00  0.00    +0.000 C 
ATOM     18  C   UNL     1       1.948   2.421  21.082  0.00  0.00    +0.000 C 
ATOM     19  C   UNL     1       2.166   2.039  19.620  0.00  0.00    +0.000 C 
ATOM     20  C   UNL     1       1.070   2.581  18.706  0.00  0.00    +0.000 C 
ATOM     21  C   UNL     1       1.384   3.972  18.164  0.00  0.00    +0.000 C 
ENDBRANCH  13  15
ENDBRANCH   1  13
TORSDOF 5
ENDMDL
MODEL 2
REMARK VINA RESULT:      -7.0      0.910      1.543
REMARK  Name = 
REMARK  7 active torsions:
REMARK  status: ('A' for Active; 'I' for Inactive)
REMARK    1  A    between atoms: C_1  and  O_2
REMARK    2  A    between atoms: O_2  and  C_3
REMARK    3  A    between atoms: C_6  and  N_7
REMARK    4  A    between atoms: N_7  and  C_8
REMARK    5  A    between atoms: C_8  and  N_10
REMARK    6  A    between atoms: C_18  and  O_19
REMARK    7  A    between atoms: O_19  and  C_20
REMARK                            x       y       z     vdW  Elec       q    Type
REMARK                         _______ _______ _______ _____ _____    ______ ____
ROOT
ATOM      1  N   UNL     1       4.868   5.233  19.444  0.00  0.00    +0.000 N 
ATOM      2  H   UNL     1       5.443   5.365  20.265  0.00  0.00    +0.000 HD
ENDROOT
BRANCH   1   6
ATOM      3  C   UNL     1       6.951   5.336  15.756  0.00  0.00    +0.000 A 
ATOM      4  C   UNL     1       6.153   4.235  16.074  0.00  0.00    +0.000 A 
ATOM      5  C   UNL     1       5.468   4.165  17.282  0.00  0.00    +0.000 A 
ATOM      6  C   UNL     1       5.617   5.164  18.241  0.00  0.00    +0.000 A 
ATOM      7  C   UNL     1       6.522   6.196  17.971  0.00  0.00    +0.000 A 
ATOM      8  C   UNL     1       7.193   6.306  16.737  0.00  0.00    +0.000 A 
BRANCH   3  10
ATOM      9  C   UNL     1       7.013   4.521  13.538  0.00  0.00    +0.000 C 
ATOM     10  O   UNL     1       7.499   5.461  14.502  0.00  0.00    +0.000 OA
ENDBRANCH   3  10
BRANCH   8  11
ATOM     11  O   UNL     1       7.985   7.417  16.679  0.00  0.00    +0.000 OA
ATOM     12  C   UNL     1       7.909   8.400  17.693  0.00  0.00    +0.000 C 
ENDBRANCH   8  11
ENDBRANCH   1   6
BRANCH   1  13
ATOM     13  C   UNL     1       3.501   5.403  19.650  0.00  0.00    +0.000 C 
ATOM     14  S   UNL     1       2.626   6.800  19.290  0.00  0.00    +0.000 S 
BRANCH  13  15
ATOM     15  N   UNL     1       2.893   4.251  20.236  0.00  0.00    +0.000 N 
ATOM     16  C   UNL     1       3.530   2.921  20.145  0.00  0.00    +0.000 C 
ATOM     17  C   UNL     1       3.177   2.195  18.843  0.00  0.00    +0.000 C 
ATOM     18  C   UNL     1       1.757   1.641  18.766  0.00  0.00    +0.000 C 
ATOM     19  C   UNL     1       0.643   2.626  19.115  0.00  0.00    +0.000 C 
ATOM     20  C   UNL     1       0.674   3.048  20.581  0.00  0.00    +0.000 C 
ATOM     21  C   UNL     1       1.544   4.278  20.825  0.00  0.00    +0.000 C 
ENDBRANCH  13  15
ENDBRANCH   1  13
TORSDOF 5
ENDMDL
MODEL 3
REMARK VINA RESULT:      -6.9      1.175      1.396
REMARK  Name = 
REMARK  7 active torsions:
REMARK  status: ('A' for Active; 'I' for Inactive)
REMARK    1  A    between atoms: C_1  and  O_2
REMARK    2  A    between atoms: O_2  and  C_3
REMARK    3  A    between atoms: C_6  and  N_7
REMARK    4  A    between atoms: N_7  and  C_8
REMARK    5  A    between atoms: C_8  and  N_10
REMARK    6  A    between atoms: C_18  and  O_19
REMARK    7  A    between atoms: O_19  and  C_20
REMARK                            x       y       z     vdW  Elec       q    Type
REMARK                         _______ _______ _______ _____ _____    ______ ____
ROOT
ATOM      1  N   UNL     1       2.742   5.713  17.847  0.00  0.00    +0.000 N 
ATOM      2  H   UNL     1       1.988   5.739  17.174  0.00  0.00    +0.000 HD
ENDROOT
BRANCH   1   6
ATOM      3  C   UNL     1       6.478   5.330  15.885  0.00  0.00    +0.000 A 
ATOM      4  C   UNL     1       5.565   4.273  15.857  0.00  0.00    +0.000 A 
ATOM      5  C   UNL     1       4.338   4.362  16.502  0.00  0.00    +0.000 A 
ATOM      6  C   UNL     1       4.012   5.487  17.257  0.00  0.00    +0.000 A 
ATOM      7  C   UNL     1       4.985   6.484  17.391  0.00  0.00    +0.000 A 
ATOM      8  C   UNL     1       6.218   6.430  16.712  0.00  0.00    +0.000 A 
BRANCH   3  10
ATOM      9  C   UNL     1       7.413   4.903  13.756  0.00  0.00    +0.000 C 
ATOM     10  O   UNL     1       7.618   5.286  15.120  0.00  0.00    +0.000 OA
ENDBRANCH   3  10
BRANCH   8  11
ATOM     11  O   UNL     1       6.988   7.532  16.952  0.00  0.00    +0.000 OA
ATOM     12  C   UNL     1       7.892   7.545  18.040  0.00  0.00    +0.000 C 
ENDBRANCH   8  11
ENDBRANCH   1   6
BRANCH   1  13
ATOM     13  C   UNL     1       2.340   5.651  19.179  0.00  0.00    +0.000 C 
ATOM     14  S   UNL     1       2.212   6.971  20.223  0.00  0.00    +0.000 S 
BRANCH  13  15
ATOM     15  N   UNL     1       2.059   4.315  19.599  0.00  0.00    +0.000 N 
ATOM     16  C   UNL     1       2.964   3.596  20.519  0.00  0.00    +0.000 C 
ATOM     17  C   UNL     1       4.116   2.907  19.781  0.00  0.00    +0.000 C 
ATOM     18  C   UNL     1       3.735   1.652  19.000  0.00  0.00    +0.000 C 
ATOM     19  C   UNL     1       2.543   1.795  18.057  0.00  0.00    +0.000 C 
ATOM     20  C   UNL     1       1.234   2.040  18.803  0.00  0.00    +0.000 C 
ATOM     21  C   UNL     1       0.953   3.522  19.036  0.00  0.00    +0.000 C 
ENDBRANCH  13  15
ENDBRANCH   1  13
TORSDOF 5
ENDMDL
MODEL 4
REMARK VINA RESULT:      -6.8      1.978      3.611
REMARK  Name = 
REMARK  7 active torsions:
REMARK  status: ('A' for Active; 'I' for Inactive)
REMARK    1  A    between atoms: C_1  and  O_2
REMARK    2  A    between atoms: O_2  and  C_3
REMARK    3  A    between atoms: C_6  and  N_7
REMARK    4  A    between atoms: N_7  and  C_8
REMARK    5  A    between atoms: C_8  and  N_10
REMARK    6  A    between atoms: C_18  and  O_19
REMARK    7  A    between atoms: O_19  and  C_20
REMARK                            x       y       z     vdW  Elec       q    Type
REMARK                         _______ _______ _______ _____ _____    ______ ____
ROOT
ATOM      1  N   UNL     1       4.879   2.948  18.479  0.00  0.00    +0.000 N 
ATOM      2  H   UNL     1       5.110   2.170  17.876  0.00  0.00    +0.000 HD
ENDROOT
BRANCH   1   6
ATOM      3  C   UNL     1       7.030   6.363  17.191  0.00  0.00    +0.000 A 
ATOM      4  C   UNL     1       6.751   6.188  18.548  0.00  0.00    +0.000 A 
ATOM      5  C   UNL     1       6.035   5.086  19.001  0.00  0.00    +0.000 A 
ATOM      6  C   UNL     1       5.514   4.158  18.101  0.00  0.00    +0.000 A 
ATOM      7  C   UNL     1       5.683   4.412  16.735  0.00  0.00    +0.000 A 
ATOM      8  C   UNL     1       6.439   5.501  16.259  0.00  0.00    +0.000 A 
BRANCH   3  10
ATOM      9  C   UNL     1       7.926   8.501  17.656  0.00  0.00    +0.000 C 
ATOM     10  O   UNL     1       7.864   7.374  16.776  0.00  0.00    +0.000 OA
ENDBRANCH   3  10
BRANCH   8  11
ATOM     11  O   UNL     1       6.510   5.522  14.895  0.00  0.00    +0.000 OA
ATOM     12  C   UNL     1       6.369   4.324  14.156  0.00  0.00    +0.000 C 
ENDBRANCH   8  11
ENDBRANCH   1   6
BRANCH   1  13
ATOM     13  C   UNL     1       4.216   2.604  19.655  0.00  0.00    +0.000 C 
ATOM     14  S   UNL     1       4.751   1.468  20.782  0.00  0.00    +0.000 S 
BRANCH  13  15
ATOM     15  N   UNL     1       2.985   3.313  19.810  0.00  0.00    +0.000 N 
ATOM     16  C   UNL     1       1.855   3.095  18.884  0.00  0.00    +0.000 C 
ATOM     17  C   UNL     1       1.960   3.959  17.624  0.00  0.00    +0.000 C 
ATOM     18  C   UNL     1       1.656   5.442  17.820  0.00  0.00    +0.000 C 
ATOM     19  C   UNL     1       2.399   6.125  18.966  0.00  0.00    +0.000 C 
ATOM     20  C   UNL     1       1.977   5.593  20.333  0.00  0.00    +0.000 C 
ATOM     21  C   UNL     1       2.813   4.401  20.788  0.00  0.00    +0.000 C 
ENDBRANCH  13  15
ENDBRANCH   1  13
TORSDOF 5
ENDMDL
MODEL 5
REMARK VINA RESULT:      -6.7      4.072      5.679
REMARK  Name = 
REMARK  7 active torsions:
REMARK  status: ('A' for Active; 'I' for Inactive)
REMARK    1  A    between atoms: C_1  and  O_2
REMARK    2  A    between atoms: O_2  and  C_3
REMARK    3  A    between atoms: C_6  and  N_7
REMARK    4  A    between atoms: N_7  and  C_8
REMARK    5  A    between atoms: C_8  and  N_10
REMARK    6  A    between atoms: C_18  and  O_19
REMARK    7  A    between atoms: O_19  and  C_20
REMARK                            x       y       z     vdW  Elec       q    Type
REMARK                         _______ _______ _______ _____ _____    ______ ____
ROOT
ATOM      1  N   UNL     1       3.257   5.686  18.280  0.00  0.00    +0.000 N 
ATOM      2  H   UNL     1       3.098   5.388  17.327  0.00  0.00    +0.000 HD
ENDROOT
BRANCH   1   6
ATOM      3  C   UNL     1       1.310   9.342  19.166  0.00  0.00    +0.000 A 
ATOM      4  C   UNL     1       2.045   9.213  17.986  0.00  0.00    +0.000 A 
ATOM      5  C   UNL     1       2.706   8.032  17.673  0.00  0.00    +0.000 A 
ATOM      6  C   UNL     1       2.712   6.963  18.566  0.00  0.00    +0.000 A 
ATOM      7  C   UNL     1       2.088   7.148  19.805  0.00  0.00    +0.000 A 
ATOM      8  C   UNL     1       1.377   8.322  20.123  0.00  0.00    +0.000 A 
BRANCH   3  10
ATOM      9  C   UNL     1      -0.594  10.589  18.527  0.00  0.00    +0.000 C 
ATOM     10  O   UNL     1       0.540  10.459  19.390  0.00  0.00    +0.000 OA
ENDBRANCH   3  10
BRANCH   8  11
ATOM     11  O   UNL     1       0.809   8.260  21.363  0.00  0.00    +0.000 OA
ATOM     12  C   UNL     1       1.212   9.162  22.376  0.00  0.00    +0.000 C 
ENDBRANCH   8  11
ENDBRANCH   1   6
BRANCH   1  13
ATOM     13  C   UNL     1       4.167   4.910  18.994  0.00  0.00    +0.000 C 
ATOM     14  S   UNL     1       5.828   5.188  19.084  0.00  0.00    +0.000 S 
BRANCH  13  15
ATOM     15  N   UNL     1       3.541   3.804  19.647  0.00  0.00    +0.000 N 
ATOM     16  C   UNL     1       3.441   2.485  18.991  0.00  0.00    +0.000 C 
ATOM     17  C   UNL     1       2.215   2.379  18.078  0.00  0.00    +0.000 C 
ATOM     18  C   UNL     1       0.875   2.245  18.796  0.00  0.00    +0.000 C 
ATOM     19  C   UNL     1       0.604   3.274  19.891  0.00  0.00    +0.000 C 
ATOM     20  C   UNL     1       1.548   3.122  21.081  0.00  0.00    +0.000 C 
ATOM     21  C   UNL     1       2.828   3.938  20.929  0.00  0.00    +0.000 C 
ENDBRANCH  13  15
ENDBRANCH   1  13
TORSDOF 5
ENDMDL
MODEL 6
REMARK VINA RESULT:      -6.6      3.966      6.224
REMARK  Name = 
REMARK  7 active torsions:
REMARK  status: ('A' for Active; 'I' for Inactive)
REMARK    1  A    between atoms: C_1  and  O_2
REMARK    2  A    between atoms: O_2  and  C_3
REMARK    3  A    between atoms: C_6  and  N_7
REMARK    4  A    between atoms: N_7  and  C_8
REMARK    5  A    between atoms: C_8  and  N_10
REMARK    6  A    between atoms: C_18  and  O_19
REMARK    7  A    between atoms: O_19  and  C_20
REMARK                            x       y       z     vdW  Elec       q    Type
REMARK                         _______ _______ _______ _____ _____    ______ ____
ROOT
ATOM      1  N   UNL     1       2.858   5.995  20.078  0.00  0.00    +0.000 N 
ATOM      2  H   UNL     1       3.403   6.065  20.927  0.00  0.00    +0.000 HD
ENDROOT
BRANCH   1   6
ATOM      3  C   UNL     1       0.966   9.585  18.861  0.00  0.00    +0.000 A 
ATOM      4  C   UNL     1       1.798   8.901  17.972  0.00  0.00    +0.000 A 
ATOM      5  C   UNL     1       2.445   7.729  18.346  0.00  0.00    +0.000 A 
ATOM      6  C   UNL     1       2.334   7.240  19.646  0.00  0.00    +0.000 A 
ATOM      7  C   UNL     1       1.608   8.002  20.567  0.00  0.00    +0.000 A 
ATOM      8  C   UNL     1       0.912   9.170  20.197  0.00  0.00    +0.000 A 
BRANCH   3  10
ATOM      9  C   UNL     1      -1.111  10.328  18.011  0.00  0.00    +0.000 C 
ATOM     10  O   UNL     1       0.217  10.655  18.432  0.00  0.00    +0.000 OA
ENDBRANCH   3  10
BRANCH   8  11
ATOM     11  O   UNL     1       0.233   9.720  21.247  0.00  0.00    +0.000 OA
ATOM     12  C   UNL     1       0.566   9.364  22.575  0.00  0.00    +0.000 C 
ENDBRANCH   8  11
ENDBRANCH   1   6
BRANCH   1  13
ATOM     13  C   UNL     1       2.544   4.696  19.685  0.00  0.00    +0.000 C 
ATOM     14  S   UNL     1       1.182   3.830  20.175  0.00  0.00    +0.000 S 
BRANCH  13  15
ATOM     15  N   UNL     1       3.532   4.140  18.815  0.00  0.00    +0.000 N 
ATOM     16  C   UNL     1       4.914   3.905  19.279  0.00  0.00    +0.000 C 
ATOM     17  C   UNL     1       5.793   5.153  19.147  0.00  0.00    +0.000 C 
ATOM     18  C   UNL     1       6.214   5.509  17.723  0.00  0.00    +0.000 C 
ATOM     19  C   UNL     1       5.087   5.571  16.695  0.00  0.00    +0.000 C 
ATOM     20  C   UNL     1       4.453   4.206  16.441  0.00  0.00    +0.000 C 
ATOM     21  C   UNL     1       3.288   3.910  17.380  0.00  0.00    +0.000 C 
ENDBRANCH  13  15
ENDBRANCH   1  13
TORSDOF 5
ENDMDL
MODEL 7
REMARK VINA RESULT:      -6.5      3.719      5.297
REMARK  Name = 
REMARK  7 active torsions:
REMARK  status: ('A' for Active; 'I' for Inactive)
REMARK    1  A    between atoms: C_1  and  O_2
REMARK    2  A    between atoms: O_2  and  C_3
REMARK    3  A    between atoms: C_6  and  N_7
REMARK    4  A    between atoms: N_7  and  C_8
REMARK    5  A    between atoms: C_8  and  N_10
REMARK    6  A    between atoms: C_18  and  O_19
REMARK    7  A    between atoms: O_19  and  C_20
REMARK                            x       y       z     vdW  Elec       q    Type
REMARK                         _______ _______ _______ _____ _____    ______ ____
ROOT
ATOM      1  N   UNL     1       4.340   5.432  18.832  0.00  0.00    +0.000 N 
ATOM      2  H   UNL     1       4.937   5.405  19.647  0.00  0.00    +0.000 HD
ENDROOT
BRANCH   1   6
ATOM      3  C   UNL     1       1.623   8.679  18.684  0.00  0.00    +0.000 A 
ATOM      4  C   UNL     1       2.539   8.491  17.647  0.00  0.00    +0.000 A 
ATOM      5  C   UNL     1       3.452   7.444  17.673  0.00  0.00    +0.000 A 
ATOM      6  C   UNL     1       3.526   6.592  18.773  0.00  0.00    +0.000 A 
ATOM      7  C   UNL     1       2.697   6.868  19.865  0.00  0.00    +0.000 A 
ATOM      8  C   UNL     1       1.736   7.898  19.841  0.00  0.00    +0.000 A 
BRANCH   3  10
ATOM      9  C   UNL     1       1.021  10.951  18.939  0.00  0.00    +0.000 C 
ATOM     10  O   UNL     1       0.630   9.623  18.574  0.00  0.00    +0.000 OA
ENDBRANCH   3  10
BRANCH   8  11
ATOM     11  O   UNL     1       1.008   7.952  20.996  0.00  0.00    +0.000 OA
ATOM     12  C   UNL     1       1.339   8.889  22.002  0.00  0.00    +0.000 C 
ENDBRANCH   8  11
ENDBRANCH   1   6
BRANCH   1  13
ATOM     13  C   UNL     1       4.272   4.241  18.112  0.00  0.00    +0.000 C 
ATOM     14  S   UNL     1       4.898   3.998  16.565  0.00  0.00    +0.000 S 
BRANCH  13  15
ATOM     15  N   UNL     1       3.576   3.217  18.825  0.00  0.00    +0.000 N 
ATOM     16  C   UNL     1       2.298   2.671  18.325  0.00  0.00    +0.000 C 
ATOM     17  C   UNL     1       1.095   3.511  18.763  0.00  0.00    +0.000 C 
ATOM     18  C   UNL     1       0.703   3.378  20.232  0.00  0.00    +0.000 C 
ATOM     19  C   UNL     1       1.837   3.555  21.238  0.00  0.00    +0.000 C 
ATOM     20  C   UNL     1       2.877   2.441  21.148  0.00  0.00    +0.000 C 
ATOM     21  C   UNL     1       3.995   2.753  20.159  0.00  0.00    +0.000 C 
ENDBRANCH  13  15
ENDBRANCH   1  13
TORSDOF 5
ENDMDL
MODEL 8
REMARK VINA RESULT:      -6.5      2.094      3.124
REMARK  Name = 
REMARK  7 active torsions:
REMARK  status: ('A' for Active; 'I' for Inactive)
REMARK    1  A    between atoms: C_1  and  O_2
REMARK    2  A    between atoms: O_2  and  C_3
REMARK    3  A    between atoms: C_6  and  N_7
REMARK    4  A    between atoms: N_7  and  C_8
REMARK    5  A    between atoms: C_8  and  N_10
REMARK    6  A    between atoms: C_18  and  O_19
REMARK    7  A    between atoms: O_19  and  C_20
REMARK                            x       y       z     vdW  Elec       q    Type
REMARK                         _______ _______ _______ _____ _____    ______ ____
ROOT
ATOM      1  N   UNL     1       3.834   3.245  16.739  0.00  0.00    +0.000 N 
ATOM      2  H   UNL     1       3.544   2.816  15.871  0.00  0.00    +0.000 HD
ENDROOT
BRANCH   1   6
ATOM      3  C   UNL     1       6.982   6.076  16.598  0.00  0.00    +0.000 A 
ATOM      4  C   UNL     1       6.009   6.068  15.597  0.00  0.00    +0.000 A 
ATOM      5  C   UNL     1       4.972   5.143  15.607  0.00  0.00    +0.000 A 
ATOM      6  C   UNL     1       4.914   4.150  16.583  0.00  0.00    +0.000 A 
ATOM      7  C   UNL     1       5.966   4.082  17.503  0.00  0.00    +0.000 A 
ATOM      8  C   UNL     1       7.003   5.035  17.534  0.00  0.00    +0.000 A 
BRANCH   3  10
ATOM      9  C   UNL     1       7.568   8.168  17.531  0.00  0.00    +0.000 C 
ATOM     10  O   UNL     1       7.912   7.087  16.658  0.00  0.00    +0.000 OA
ENDBRANCH   3  10
BRANCH   8  11
ATOM     11  O   UNL     1       7.890   4.799  18.546  0.00  0.00    +0.000 OA
ATOM     12  C   UNL     1       7.765   5.487  19.776  0.00  0.00    +0.000 C 
ENDBRANCH   8  11
ENDBRANCH   1   6
BRANCH   1  13
ATOM     13  C   UNL     1       3.291   2.674  17.888  0.00  0.00    +0.000 C 
ATOM     14  S   UNL     1       3.856   1.275  18.643  0.00  0.00    +0.000 S 
BRANCH  13  15
ATOM     15  N   UNL     1       2.158   3.398  18.370  0.00  0.00    +0.000 N 
ATOM     16  C   UNL     1       1.849   4.755  17.873  0.00  0.00    +0.000 C 
ATOM     17  C   UNL     1       2.614   5.842  18.635  0.00  0.00    +0.000 C 
ATOM     18  C   UNL     1       2.113   6.127  20.048  0.00  0.00    +0.000 C 
ATOM     19  C   UNL     1       1.939   4.906  20.948  0.00  0.00    +0.000 C 
ATOM     20  C   UNL     1       0.828   3.978  20.464  0.00  0.00    +0.000 C 
ATOM     21  C   UNL     1       1.325   2.918  19.486  0.00  0.00    +0.000 C 
ENDBRANCH  13  15
ENDBRANCH   1  13
TORSDOF 5
ENDMDL
MODEL 9
REMARK VINA RESULT:      -6.5      1.110      1.478
REMARK  Name = 
REMARK  7 active torsions:
REMARK  status: ('A' for Active; 'I' for Inactive)
REMARK    1  A    between atoms: C_1  and  O_2
REMARK    2  A    between atoms: O_2  and  C_3
REMARK    3  A    between atoms: C_6  and  N_7
REMARK    4  A    between atoms: N_7  and  C_8
REMARK    5  A    between atoms: C_8  and  N_10
REMARK    6  A    between atoms: C_18  and  O_19
REMARK    7  A    between atoms: O_19  and  C_20
REMARK                            x       y       z     vdW  Elec       q    Type
REMARK                         _______ _______ _______ _____ _____    ______ ____
ROOT
ATOM      1  N   UNL     1       3.350   6.273  17.719  0.00  0.00    +0.000 N 
ATOM      2  H   UNL     1       2.760   6.852  17.138  0.00  0.00    +0.000 HD
ENDROOT
BRANCH   1   6
ATOM      3  C   UNL     1       6.827   5.193  15.554  0.00  0.00    +0.000 A 
ATOM      4  C   UNL     1       5.680   4.401  15.468  0.00  0.00    +0.000 A 
ATOM      5  C   UNL     1       4.528   4.720  16.177  0.00  0.00    +0.000 A 
ATOM      6  C   UNL     1       4.510   5.805  17.051  0.00  0.00    +0.000 A 
ATOM      7  C   UNL     1       5.703   6.513  17.233  0.00  0.00    +0.000 A 
ATOM      8  C   UNL     1       6.868   6.230  16.493  0.00  0.00    +0.000 A 
BRANCH   3  10
ATOM      9  C   UNL     1       7.632   5.071  13.334  0.00  0.00    +0.000 C 
ATOM     10  O   UNL     1       7.904   4.951  14.734  0.00  0.00    +0.000 OA
ENDBRANCH   3  10
BRANCH   8  11
ATOM     11  O   UNL     1       7.893   7.079  16.801  0.00  0.00    +0.000 OA
ATOM     12  C   UNL     1       7.650   8.234  17.581  0.00  0.00    +0.000 C 
ENDBRANCH   8  11
ENDBRANCH   1   6
BRANCH   1  13
ATOM     13  C   UNL     1       2.776   5.871  18.923  0.00  0.00    +0.000 C 
ATOM     14  S   UNL     1       2.163   6.905  20.106  0.00  0.00    +0.000 S 
BRANCH  13  15
ATOM     15  N   UNL     1       2.778   4.450  19.077  0.00  0.00    +0.000 N 
ATOM     16  C   UNL     1       1.557   3.654  18.837  0.00  0.00    +0.000 C 
ATOM     17  C   UNL     1       0.655   3.584  20.073  0.00  0.00    +0.000 C 
ATOM     18  C   UNL     1       1.155   2.681  21.198  0.00  0.00    +0.000 C 
ATOM     19  C   UNL     1       2.599   2.908  21.637  0.00  0.00    +0.000 C 
ATOM     20  C   UNL     1       3.605   2.542  20.548  0.00  0.00    +0.000 C 
ATOM     21  C   UNL     1       3.929   3.712  19.624  0.00  0.00    +0.000 C 
ENDBRANCH  13  15
ENDBRANCH   1  13
TORSDOF 5
ENDMDL
