MODEL 1
REMARK VINA RESULT:      -6.1      0.000      0.000
REMARK  Name = 
REMARK  16 active torsions:
REMARK  status: ('A' for Active; 'I' for Inactive)
REMARK    1  A    between atoms: C_1  and  C_2
REMARK    2  A    between atoms: C_2  and  C_3
REMARK    3  A    between atoms: C_3  and  C_4
REMARK    4  A    between atoms: C_4  and  C_5
REMARK    5  A    between atoms: C_5  and  C_6
REMARK    6  A    between atoms: C_6  and  C_7
REMARK    7  A    between atoms: C_7  and  C_8
REMARK    8  A    between atoms: C_8  and  C_9
REMARK    9  A    between atoms: C_9  and  C_10
REMARK   10  A    between atoms: C_10  and  C_11
REMARK   11  A    between atoms: C_11  and  C_12
REMARK   12  A    between atoms: C_12  and  C_13
REMARK   13  A    between atoms: C_13  and  C_14
REMARK   14  A    between atoms: C_14  and  C_15
REMARK   15  A    between atoms: C_15  and  C_16
REMARK   16  A    between atoms: C_19  and  C_20
REMARK                            x       y       z     vdW  Elec       q    Type
REMARK                         _______ _______ _______ _____ _____    ______ ____
ROOT
ATOM      1  C   UNL     1       5.408   5.166  18.768  0.00  0.00    +0.000 C 
ENDROOT
BRANCH   1   2
ATOM      2  C   UNL     1       5.499   6.544  18.121  0.00  0.00    +0.000 C 
BRANCH   2   3
ATOM      3  C   UNL     1       4.356   6.759  17.136  0.00  0.00    +0.000 C 
BRANCH   3   4
ATOM      4  C   UNL     1       3.269   7.621  17.764  0.00  0.00    +0.000 C 
BRANCH   4   5
ATOM      5  C   UNL     1       2.200   6.749  18.407  0.00  0.00    +0.000 C 
BRANCH   5   6
ATOM      6  C   UNL     1       2.410   6.678  19.912  0.00  0.00    +0.000 C 
BRANCH   6   7
ATOM      7  C   UNL     1       1.458   5.667  20.533  0.00  0.00    +0.000 C 
BRANCH   7   8
ATOM      8  C   UNL     1       2.240   4.554  21.216  0.00  0.00    +0.000 C 
BRANCH   8   9
ATOM      9  C   UNL     1       1.521   3.222  21.052  0.00  0.00    +0.000 C 
BRANCH   9  10
ATOM     10  C   UNL     1       0.751   3.188  19.739  0.00  0.00    +0.000 C 
BRANCH  10  11
ATOM     11  C   UNL     1       1.292   2.092  18.830  0.00  0.00    +0.000 C 
BRANCH  11  13
ATOM     12  C   UNL     1       2.487   3.476  17.117  0.00  0.00    +0.000 C 
ATOM     13  C   UNL     1       2.648   2.482  18.251  0.00  0.00    +0.000 C 
ENDBRANCH  11  13
ENDBRANCH  10  11
ENDBRANCH   9  10
ENDBRANCH   8   9
ENDBRANCH   7   8
ENDBRANCH   6   7
ENDBRANCH   5   6
ENDBRANCH   4   5
ENDBRANCH   3   4
ENDBRANCH   2   3
ENDBRANCH   1   2
BRANCH   1  14
ATOM     14  C   UNL     1       5.986   4.094  17.847  0.00  0.00    +0.000 C 
BRANCH  14  15
ATOM     15  C   UNL     1       7.310   4.551  17.240  0.00  0.00    +0.000 C 
BRANCH  15  16
ATOM     16  C   UNL     1       7.201   4.716  15.773  0.00  0.00    +0.000 A 
ATOM     17  N   UNL     1       7.746   5.624  14.998  0.00  0.00    +0.000 NA
ATOM     18  N   UNL     1       7.335   5.334  13.715  0.00  0.00    +0.000 NA
ATOM     19  C   UNL     1       6.566   4.265  13.796  0.00  0.00    +0.000 A 
ATOM     20  O   UNL     1       6.433   3.813  15.088  0.00  0.00    +0.000 OA
BRANCH  19  21
ATOM     21  C   UNL     1       5.888   3.531  12.735  0.00  0.00    +0.000 A 
ATOM     22  C   UNL     1       6.527   2.427  12.161  0.00  0.00    +0.000 A 
ATOM     23  C   UNL     1       5.870   1.716  11.171  0.00  0.00    +0.000 A 
ATOM     24  N   UNL     1       4.640   2.028  10.713  0.00  0.00    +0.000 NA
ATOM     25  C   UNL     1       4.042   3.101  11.272  0.00  0.00    +0.000 A 
ATOM     26  C   UNL     1       4.616   3.875  12.269  0.00  0.00    +0.000 A 
ENDBRANCH  19  21
ENDBRANCH  15  16
ENDBRANCH  14  15
ENDBRANCH   1  14
TORSDOF 15
ENDMDL
MODEL 2
REMARK VINA RESULT:      -5.9      4.339      8.054
REMARK  Name = 
REMARK  16 active torsions:
REMARK  status: ('A' for Active; 'I' for Inactive)
REMARK    1  A    between atoms: C_1  and  C_2
REMARK    2  A    between atoms: C_2  and  C_3
REMARK    3  A    between atoms: C_3  and  C_4
REMARK    4  A    between atoms: C_4  and  C_5
REMARK    5  A    between atoms: C_5  and  C_6
REMARK    6  A    between atoms: C_6  and  C_7
REMARK    7  A    between atoms: C_7  and  C_8
REMARK    8  A    between atoms: C_8  and  C_9
REMARK    9  A    between atoms: C_9  and  C_10
REMARK   10  A    between atoms: C_10  and  C_11
REMARK   11  A    between atoms: C_11  and  C_12
REMARK   12  A    between atoms: C_12  and  C_13
REMARK   13  A    between atoms: C_13  and  C_14
REMARK   14  A    between atoms: C_14  and  C_15
REMARK   15  A    between atoms: C_15  and  C_16
REMARK   16  A    between atoms: C_19  and  C_20
REMARK                            x       y       z     vdW  Elec       q    Type
REMARK                         _______ _______ _______ _____ _____    ______ ____
ROOT
ATOM      1  C   UNL     1       5.731   7.340  17.402  0.00  0.00    +0.000 C 
ENDROOT
BRANCH   1   2
ATOM      2  C   UNL     1       6.585   6.236  16.787  0.00  0.00    +0.000 C 
BRANCH   2   3
ATOM      3  C   UNL     1       5.962   5.724  15.493  0.00  0.00    +0.000 C 
BRANCH   3   4
ATOM      4  C   UNL     1       6.517   4.349  15.145  0.00  0.00    +0.000 C 
BRANCH   4   5
ATOM      5  C   UNL     1       5.707   3.257  15.829  0.00  0.00    +0.000 C 
BRANCH   5   6
ATOM      6  C   UNL     1       4.321   3.772  16.188  0.00  0.00    +0.000 C 
BRANCH   6   7
ATOM      7  C   UNL     1       4.002   3.464  17.643  0.00  0.00    +0.000 C 
BRANCH   7   8
ATOM      8  C   UNL     1       2.756   2.594  17.740  0.00  0.00    +0.000 C 
BRANCH   8   9
ATOM      9  C   UNL     1       2.766   1.795  19.035  0.00  0.00    +0.000 C 
BRANCH   9  10
ATOM     10  C   UNL     1       3.441   2.586  20.147  0.00  0.00    +0.000 C 
BRANCH  10  11
ATOM     11  C   UNL     1       2.480   2.799  21.310  0.00  0.00    +0.000 C 
BRANCH  11  13
ATOM     12  C   UNL     1       1.437   4.965  20.604  0.00  0.00    +0.000 C 
ATOM     13  C   UNL     1       1.201   3.486  20.844  0.00  0.00    +0.000 C 
ENDBRANCH  11  13
ENDBRANCH  10  11
ENDBRANCH   9  10
ENDBRANCH   8   9
ENDBRANCH   7   8
ENDBRANCH   6   7
ENDBRANCH   5   6
ENDBRANCH   4   5
ENDBRANCH   3   4
ENDBRANCH   2   3
ENDBRANCH   1   2
BRANCH   1  14
ATOM     14  C   UNL     1       4.307   7.295  16.854  0.00  0.00    +0.000 C 
BRANCH  14  15
ATOM     15  C   UNL     1       3.311   6.924  17.949  0.00  0.00    +0.000 C 
BRANCH  15  16
ATOM     16  C   UNL     1       2.435   8.068  18.290  0.00  0.00    +0.000 A 
ATOM     17  N   UNL     1       1.955   9.006  17.507  0.00  0.00    +0.000 NA
ATOM     18  N   UNL     1       1.197   9.829  18.312  0.00  0.00    +0.000 NA
ATOM     19  C   UNL     1       1.267   9.335  19.533  0.00  0.00    +0.000 A 
ATOM     20  O   UNL     1       2.047   8.204  19.596  0.00  0.00    +0.000 OA
BRANCH  19  21
ATOM     21  C   UNL     1       0.637   9.808  20.759  0.00  0.00    +0.000 A 
ATOM     22  C   UNL     1       0.613   8.966  21.876  0.00  0.00    +0.000 A 
ATOM     23  C   UNL     1       0.037   9.426  23.047  0.00  0.00    +0.000 A 
ATOM     24  N   UNL     1      -0.517  10.649  23.181  0.00  0.00    +0.000 NA
ATOM     25  C   UNL     1      -0.493  11.445  22.091  0.00  0.00    +0.000 A 
ATOM     26  C   UNL     1       0.061  11.076  20.875  0.00  0.00    +0.000 A 
ENDBRANCH  19  21
ENDBRANCH  15  16
ENDBRANCH  14  15
ENDBRANCH   1  14
TORSDOF 15
ENDMDL
MODEL 3
REMARK VINA RESULT:      -5.8      0.866      2.509
REMARK  Name = 
REMARK  16 active torsions:
REMARK  status: ('A' for Active; 'I' for Inactive)
REMARK    1  A    between atoms: C_1  and  C_2
REMARK    2  A    between atoms: C_2  and  C_3
REMARK    3  A    between atoms: C_3  and  C_4
REMARK    4  A    between atoms: C_4  and  C_5
REMARK    5  A    between atoms: C_5  and  C_6
REMARK    6  A    between atoms: C_6  and  C_7
REMARK    7  A    between atoms: C_7  and  C_8
REMARK    8  A    between atoms: C_8  and  C_9
REMARK    9  A    between atoms: C_9  and  C_10
REMARK   10  A    between atoms: C_10  and  C_11
REMARK   11  A    between atoms: C_11  and  C_12
REMARK   12  A    between atoms: C_12  and  C_13
REMARK   13  A    between atoms: C_13  and  C_14
REMARK   14  A    between atoms: C_14  and  C_15
REMARK   15  A    between atoms: C_15  and  C_16
REMARK   16  A    between atoms: C_19  and  C_20
REMARK                            x       y       z     vdW  Elec       q    Type
REMARK                         _______ _______ _______ _____ _____    ______ ____
ROOT
ATOM      1  C   UNL     1       5.557   5.400  19.313  0.00  0.00    +0.000 C 
ENDROOT
BRANCH   1   2
ATOM      2  C   UNL     1       4.985   4.027  18.977  0.00  0.00    +0.000 C 
BRANCH   2   3
ATOM      3  C   UNL     1       3.934   4.129  17.877  0.00  0.00    +0.000 C 
BRANCH   3   4
ATOM      4  C   UNL     1       3.840   2.817  17.109  0.00  0.00    +0.000 C 
BRANCH   4   5
ATOM      5  C   UNL     1       2.551   2.085  17.456  0.00  0.00    +0.000 C 
BRANCH   5   6
ATOM      6  C   UNL     1       1.514   3.064  17.989  0.00  0.00    +0.000 C 
BRANCH   6   7
ATOM      7  C   UNL     1       0.880   2.523  19.261  0.00  0.00    +0.000 C 
BRANCH   7   8
ATOM      8  C   UNL     1       1.930   2.362  20.351  0.00  0.00    +0.000 C 
BRANCH   8   9
ATOM      9  C   UNL     1       1.620   3.280  21.525  0.00  0.00    +0.000 C 
BRANCH   9  10
ATOM     10  C   UNL     1       2.336   4.614  21.365  0.00  0.00    +0.000 C 
BRANCH  10  11
ATOM     11  C   UNL     1       1.694   5.434  20.253  0.00  0.00    +0.000 C 
BRANCH  11  13
ATOM     12  C   UNL     1       2.300   7.374  18.787  0.00  0.00    +0.000 C 
ATOM     13  C   UNL     1       2.276   6.843  20.208  0.00  0.00    +0.000 C 
ENDBRANCH  11  13
ENDBRANCH  10  11
ENDBRANCH   9  10
ENDBRANCH   8   9
ENDBRANCH   7   8
ENDBRANCH   6   7
ENDBRANCH   5   6
ENDBRANCH   4   5
ENDBRANCH   3   4
ENDBRANCH   2   3
ENDBRANCH   1   2
BRANCH   1  14
ATOM     14  C   UNL     1       6.592   5.826  18.274  0.00  0.00    +0.000 C 
BRANCH  14  15
ATOM     15  C   UNL     1       7.173   4.613  17.552  0.00  0.00    +0.000 C 
BRANCH  15  16
ATOM     16  C   UNL     1       7.152   4.800  16.084  0.00  0.00    +0.000 A 
ATOM     17  N   UNL     1       7.742   5.720  15.357  0.00  0.00    +0.000 NA
ATOM     18  N   UNL     1       7.409   5.450  14.048  0.00  0.00    +0.000 NA
ATOM     19  C   UNL     1       6.638   4.380  14.066  0.00  0.00    +0.000 A 
ATOM     20  O   UNL     1       6.428   3.908  15.341  0.00  0.00    +0.000 OA
BRANCH  19  21
ATOM     21  C   UNL     1       6.025   3.662  12.954  0.00  0.00    +0.000 A 
ATOM     22  C   UNL     1       6.784   2.715  12.260  0.00  0.00    +0.000 A 
ATOM     23  C   UNL     1       6.193   2.016  11.221  0.00  0.00    +0.000 A 
ATOM     24  N   UNL     1       4.916   2.198  10.827  0.00  0.00    +0.000 NA
ATOM     25  C   UNL     1       4.200   3.122  11.502  0.00  0.00    +0.000 A 
ATOM     26  C   UNL     1       4.702   3.870  12.556  0.00  0.00    +0.000 A 
ENDBRANCH  19  21
ENDBRANCH  15  16
ENDBRANCH  14  15
ENDBRANCH   1  14
TORSDOF 15
ENDMDL
MODEL 4
REMARK VINA RESULT:      -5.8      3.149      5.988
REMARK  Name = 
REMARK  16 active torsions:
REMARK  status: ('A' for Active; 'I' for Inactive)
REMARK    1  A    between atoms: C_1  and  C_2
REMARK    2  A    between atoms: C_2  and  C_3
REMARK    3  A    between atoms: C_3  and  C_4
REMARK    4  A    between atoms: C_4  and  C_5
REMARK    5  A    between atoms: C_5  and  C_6
REMARK    6  A    between atoms: C_6  and  C_7
REMARK    7  A    between atoms: C_7  and  C_8
REMARK    8  A    between atoms: C_8  and  C_9
REMARK    9  A    between atoms: C_9  and  C_10
REMARK   10  A    between atoms: C_10  and  C_11
REMARK   11  A    between atoms: C_11  and  C_12
REMARK   12  A    between atoms: C_12  and  C_13
REMARK   13  A    between atoms: C_13  and  C_14
REMARK   14  A    between atoms: C_14  and  C_15
REMARK   15  A    between atoms: C_15  and  C_16
REMARK   16  A    between atoms: C_19  and  C_20
REMARK                            x       y       z     vdW  Elec       q    Type
REMARK                         _______ _______ _______ _____ _____    ______ ____
ROOT
ATOM      1  C   UNL     1       1.625   4.020  21.043  0.00  0.00    +0.000 C 
ENDROOT
BRANCH   1   2
ATOM      2  C   UNL     1       1.341   5.481  20.715  0.00  0.00    +0.000 C 
BRANCH   2   3
ATOM      3  C   UNL     1       1.770   5.814  19.291  0.00  0.00    +0.000 C 
BRANCH   3   4
ATOM      4  C   UNL     1       3.048   6.642  19.301  0.00  0.00    +0.000 C 
BRANCH   4   5
ATOM      5  C   UNL     1       3.147   7.487  18.039  0.00  0.00    +0.000 C 
BRANCH   5   6
ATOM      6  C   UNL     1       1.856   8.262  17.819  0.00  0.00    +0.000 C 
BRANCH   6   7
ATOM      7  C   UNL     1       1.598   9.203  18.985  0.00  0.00    +0.000 C 
BRANCH   7   8
ATOM      8  C   UNL     1       1.333  10.614  18.480  0.00  0.00    +0.000 C 
BRANCH   8   9
ATOM      9  C   UNL     1       0.917  11.521  19.630  0.00  0.00    +0.000 C 
BRANCH   9  10
ATOM     10  C   UNL     1      -0.367  11.014  20.273  0.00  0.00    +0.000 C 
BRANCH  10  11
ATOM     11  C   UNL     1      -0.243  11.020  21.792  0.00  0.00    +0.000 C 
BRANCH  11  13
ATOM     12  C   UNL     1      -0.422   8.521  21.804  0.00  0.00    +0.000 C 
ATOM     13  C   UNL     1       0.370   9.718  22.295  0.00  0.00    +0.000 C 
ENDBRANCH  11  13
ENDBRANCH  10  11
ENDBRANCH   9  10
ENDBRANCH   8   9
ENDBRANCH   7   8
ENDBRANCH   6   7
ENDBRANCH   5   6
ENDBRANCH   4   5
ENDBRANCH   3   4
ENDBRANCH   2   3
ENDBRANCH   1   2
BRANCH   1  14
ATOM     14  C   UNL     1       0.858   3.093  20.103  0.00  0.00    +0.000 C 
BRANCH  14  15
ATOM     15  C   UNL     1       1.773   2.013  19.532  0.00  0.00    +0.000 C 
BRANCH  15  16
ATOM     16  C   UNL     1       3.157   2.511  19.369  0.00  0.00    +0.000 A 
ATOM     17  N   UNL     1       4.208   2.302  20.126  0.00  0.00    +0.000 NA
ATOM     18  N   UNL     1       5.250   2.985  19.537  0.00  0.00    +0.000 NA
ATOM     19  C   UNL     1       4.761   3.564  18.458  0.00  0.00    +0.000 A 
ATOM     20  O   UNL     1       3.421   3.306  18.286  0.00  0.00    +0.000 OA
BRANCH  19  21
ATOM     21  C   UNL     1       5.438   4.390  17.465  0.00  0.00    +0.000 A 
ATOM     22  C   UNL     1       6.480   5.227  17.877  0.00  0.00    +0.000 A 
ATOM     23  C   UNL     1       7.138   5.991  16.928  0.00  0.00    +0.000 A 
ATOM     24  N   UNL     1       6.830   5.985  15.615  0.00  0.00    +0.000 NA
ATOM     25  C   UNL     1       5.816   5.179  15.236  0.00  0.00    +0.000 A 
ATOM     26  C   UNL     1       5.098   4.375  16.109  0.00  0.00    +0.000 A 
ENDBRANCH  19  21
ENDBRANCH  15  16
ENDBRANCH  14  15
ENDBRANCH   1  14
TORSDOF 15
ENDMDL
MODEL 5
REMARK VINA RESULT:      -5.8      3.751      6.699
REMARK  Name = 
REMARK  16 active torsions:
REMARK  status: ('A' for Active; 'I' for Inactive)
REMARK    1  A    between atoms: C_1  and  C_2
REMARK    2  A    between atoms: C_2  and  C_3
REMARK    3  A    between atoms: C_3  and  C_4
REMARK    4  A    between atoms: C_4  and  C_5
REMARK    5  A    between atoms: C_5  and  C_6
REMARK    6  A    between atoms: C_6  and  C_7
REMARK    7  A    between atoms: C_7  and  C_8
REMARK    8  A    between atoms: C_8  and  C_9
REMARK    9  A    between atoms: C_9  and  C_10
REMARK   10  A    between atoms: C_10  and  C_11
REMARK   11  A    between atoms: C_11  and  C_12
REMARK   12  A    between atoms: C_12  and  C_13
REMARK   13  A    between atoms: C_13  and  C_14
REMARK   14  A    between atoms: C_14  and  C_15
REMARK   15  A    between atoms: C_15  and  C_16
REMARK   16  A    between atoms: C_19  and  C_20
REMARK                            x       y       z     vdW  Elec       q    Type
REMARK                         _______ _______ _______ _____ _____    ______ ____
ROOT
ATOM      1  C   UNL     1       1.309   3.902  18.921  0.00  0.00    +0.000 C 
ENDROOT
BRANCH   1   2
ATOM      2  C   UNL     1       1.211   4.243  20.404  0.00  0.00    +0.000 C 
BRANCH   2   3
ATOM      3  C   UNL     1       2.176   5.365  20.769  0.00  0.00    +0.000 C 
BRANCH   3   4
ATOM      4  C   UNL     1       2.536   6.179  19.533  0.00  0.00    +0.000 C 
BRANCH   4   5
ATOM      5  C   UNL     1       1.863   7.543  19.577  0.00  0.00    +0.000 C 
BRANCH   5   6
ATOM      6  C   UNL     1       2.226   8.352  18.340  0.00  0.00    +0.000 C 
BRANCH   6   7
ATOM      7  C   UNL     1       1.130   9.359  18.025  0.00  0.00    +0.000 C 
BRANCH   7   8
ATOM      8  C   UNL     1       0.815  10.201  19.252  0.00  0.00    +0.000 C 
BRANCH   8   9
ATOM      9  C   UNL     1      -0.249  11.239  18.925  0.00  0.00    +0.000 C 
BRANCH   9  10
ATOM     10  C   UNL     1      -0.852  11.809  20.202  0.00  0.00    +0.000 C 
BRANCH  10  11
ATOM     11  C   UNL     1      -0.066  11.337  21.420  0.00  0.00    +0.000 C 
BRANCH  11  13
ATOM     12  C   UNL     1      -2.242  12.105  22.397  0.00  0.00    +0.000 C 
ATOM     13  C   UNL     1      -0.852  11.580  22.704  0.00  0.00    +0.000 C 
ENDBRANCH  11  13
ENDBRANCH  10  11
ENDBRANCH   9  10
ENDBRANCH   8   9
ENDBRANCH   7   8
ENDBRANCH   6   7
ENDBRANCH   5   6
ENDBRANCH   4   5
ENDBRANCH   3   4
ENDBRANCH   2   3
ENDBRANCH   1   2
BRANCH   1  14
ATOM     14  C   UNL     1       1.224   2.392  18.703  0.00  0.00    +0.000 C 
BRANCH  14  15
ATOM     15  C   UNL     1       2.541   1.843  18.163  0.00  0.00    +0.000 C 
BRANCH  15  16
ATOM     16  C   UNL     1       3.697   2.606  18.686  0.00  0.00    +0.000 A 
ATOM     17  N   UNL     1       4.399   2.404  19.776  0.00  0.00    +0.000 NA
ATOM     18  N   UNL     1       5.363   3.388  19.802  0.00  0.00    +0.000 NA
ATOM     19  C   UNL     1       5.182   4.124  18.723  0.00  0.00    +0.000 A 
ATOM     20  O   UNL     1       4.128   3.682  17.958  0.00  0.00    +0.000 OA
BRANCH  19  21
ATOM     21  C   UNL     1       5.936   5.282  18.256  0.00  0.00    +0.000 A 
ATOM     22  C   UNL     1       7.151   5.593  18.875  0.00  0.00    +0.000 A 
ATOM     23  C   UNL     1       7.877   6.677  18.413  0.00  0.00    +0.000 A 
ATOM     24  N   UNL     1       7.481   7.467  17.394  0.00  0.00    +0.000 NA
ATOM     25  C   UNL     1       6.302   7.157  16.813  0.00  0.00    +0.000 A 
ATOM     26  C   UNL     1       5.504   6.092  17.203  0.00  0.00    +0.000 A 
ENDBRANCH  19  21
ENDBRANCH  15  16
ENDBRANCH  14  15
ENDBRANCH   1  14
TORSDOF 15
ENDMDL
MODEL 6
REMARK VINA RESULT:      -5.7      4.856      7.591
REMARK  Name = 
REMARK  16 active torsions:
REMARK  status: ('A' for Active; 'I' for Inactive)
REMARK    1  A    between atoms: C_1  and  C_2
REMARK    2  A    between atoms: C_2  and  C_3
REMARK    3  A    between atoms: C_3  and  C_4
REMARK    4  A    between atoms: C_4  and  C_5
REMARK    5  A    between atoms: C_5  and  C_6
REMARK    6  A    between atoms: C_6  and  C_7
REMARK    7  A    between atoms: C_7  and  C_8
REMARK    8  A    between atoms: C_8  and  C_9
REMARK    9  A    between atoms: C_9  and  C_10
REMARK   10  A    between atoms: C_10  and  C_11
REMARK   11  A    between atoms: C_11  and  C_12
REMARK   12  A    between atoms: C_12  and  C_13
REMARK   13  A    between atoms: C_13  and  C_14
REMARK   14  A    between atoms: C_14  and  C_15
REMARK   15  A    between atoms: C_15  and  C_16
REMARK   16  A    between atoms: C_19  and  C_20
REMARK                            x       y       z     vdW  Elec       q    Type
REMARK                         _______ _______ _______ _____ _____    ______ ____
ROOT
ATOM      1  C   UNL     1       6.172   5.794  17.562  0.00  0.00    +0.000 C 
ENDROOT
BRANCH   1   2
ATOM      2  C   UNL     1       5.666   5.333  18.925  0.00  0.00    +0.000 C 
BRANCH   2   3
ATOM      3  C   UNL     1       5.039   3.947  18.832  0.00  0.00    +0.000 C 
BRANCH   3   4
ATOM      4  C   UNL     1       4.623   3.647  17.398  0.00  0.00    +0.000 C 
BRANCH   4   5
ATOM      5  C   UNL     1       3.127   3.380  17.320  0.00  0.00    +0.000 C 
BRANCH   5   6
ATOM      6  C   UNL     1       2.798   2.028  17.938  0.00  0.00    +0.000 C 
BRANCH   6   7
ATOM      7  C   UNL     1       2.259   2.208  19.349  0.00  0.00    +0.000 C 
BRANCH   7   8
ATOM      8  C   UNL     1       0.865   2.817  19.310  0.00  0.00    +0.000 C 
BRANCH   8   9
ATOM      9  C   UNL     1       0.796   4.044  20.208  0.00  0.00    +0.000 C 
BRANCH   9  10
ATOM     10  C   UNL     1       2.181   4.648  20.396  0.00  0.00    +0.000 C 
BRANCH  10  11
ATOM     11  C   UNL     1       2.161   6.140  20.086  0.00  0.00    +0.000 C 
BRANCH  11  13
ATOM     12  C   UNL     1       2.642   7.818  18.289  0.00  0.00    +0.000 C 
ATOM     13  C   UNL     1       2.233   6.387  18.584  0.00  0.00    +0.000 C 
ENDBRANCH  11  13
ENDBRANCH  10  11
ENDBRANCH   9  10
ENDBRANCH   8   9
ENDBRANCH   7   8
ENDBRANCH   6   7
ENDBRANCH   5   6
ENDBRANCH   4   5
ENDBRANCH   3   4
ENDBRANCH   2   3
ENDBRANCH   1   2
BRANCH   1  14
ATOM     14  C   UNL     1       7.426   6.653  17.710  0.00  0.00    +0.000 C 
BRANCH  14  15
ATOM     15  C   UNL     1       7.153   8.095  17.292  0.00  0.00    +0.000 C 
BRANCH  15  16
ATOM     16  C   UNL     1       8.059   9.038  17.988  0.00  0.00    +0.000 A 
ATOM     17  N   UNL     1       8.878   8.813  18.988  0.00  0.00    +0.000 NA
ATOM     18  N   UNL     1       9.492  10.017  19.261  0.00  0.00    +0.000 NA
ATOM     19  C   UNL     1       9.002  10.894  18.406  0.00  0.00    +0.000 A 
ATOM     20  O   UNL     1       8.074  10.337  17.558  0.00  0.00    +0.000 OA
BRANCH  19  21
ATOM     21  C   UNL     1       9.322  12.308  18.248  0.00  0.00    +0.000 A 
ATOM     22  C   UNL     1      10.657  12.715  18.339  0.00  0.00    +0.000 A 
ATOM     23  C   UNL     1      10.960  14.054  18.162  0.00  0.00    +0.000 A 
ATOM     24  N   UNL     1      10.038  15.005  17.911  0.00  0.00    +0.000 NA
ATOM     25  C   UNL     1       8.754  14.597  17.834  0.00  0.00    +0.000 A 
ATOM     26  C   UNL     1       8.350  13.280  17.995  0.00  0.00    +0.000 A 
ENDBRANCH  19  21
ENDBRANCH  15  16
ENDBRANCH  14  15
ENDBRANCH   1  14
TORSDOF 15
ENDMDL
MODEL 7
REMARK VINA RESULT:      -5.7      5.281      8.869
REMARK  Name = 
REMARK  16 active torsions:
REMARK  status: ('A' for Active; 'I' for Inactive)
REMARK    1  A    between atoms: C_1  and  C_2
REMARK    2  A    between atoms: C_2  and  C_3
REMARK    3  A    between atoms: C_3  and  C_4
REMARK    4  A    between atoms: C_4  and  C_5
REMARK    5  A    between atoms: C_5  and  C_6
REMARK    6  A    between atoms: C_6  and  C_7
REMARK    7  A    between atoms: C_7  and  C_8
REMARK    8  A    between atoms: C_8  and  C_9
REMARK    9  A    between atoms: C_9  and  C_10
REMARK   10  A    between atoms: C_10  and  C_11
REMARK   11  A    between atoms: C_11  and  C_12
REMARK   12  A    between atoms: C_12  and  C_13
REMARK   13  A    between atoms: C_13  and  C_14
REMARK   14  A    between atoms: C_14  and  C_15
REMARK   15  A    between atoms: C_15  and  C_16
REMARK   16  A    between atoms: C_19  and  C_20
REMARK                            x       y       z     vdW  Elec       q    Type
REMARK                         _______ _______ _______ _____ _____    ______ ____
ROOT
ATOM      1  C   UNL     1       2.272   6.369  18.636  0.00  0.00    +0.000 C 
ENDROOT
BRANCH   1   2
ATOM      2  C   UNL     1       2.952   5.790  19.871  0.00  0.00    +0.000 C 
BRANCH   2   3
ATOM      3  C   UNL     1       1.926   5.209  20.836  0.00  0.00    +0.000 C 
BRANCH   3   4
ATOM      4  C   UNL     1       1.013   4.227  20.114  0.00  0.00    +0.000 C 
BRANCH   4   5
ATOM      5  C   UNL     1       1.392   2.794  20.456  0.00  0.00    +0.000 C 
BRANCH   5   6
ATOM      6  C   UNL     1       2.515   2.313  19.548  0.00  0.00    +0.000 C 
BRANCH   6   7
ATOM      7  C   UNL     1       2.008   2.135  18.125  0.00  0.00    +0.000 C 
BRANCH   7   8
ATOM      8  C   UNL     1       2.665   3.147  17.198  0.00  0.00    +0.000 C 
BRANCH   8   9
ATOM      9  C   UNL     1       4.157   3.240  17.486  0.00  0.00    +0.000 C 
BRANCH   9  10
ATOM     10  C   UNL     1       4.769   4.429  16.758  0.00  0.00    +0.000 C 
BRANCH  10  11
ATOM     11  C   UNL     1       6.229   4.608  17.160  0.00  0.00    +0.000 C 
BRANCH  11  13
ATOM     12  C   UNL     1       7.648   6.022  18.664  0.00  0.00    +0.000 C 
ATOM     13  C   UNL     1       6.341   5.263  18.532  0.00  0.00    +0.000 C 
ENDBRANCH  11  13
ENDBRANCH  10  11
ENDBRANCH   9  10
ENDBRANCH   8   9
ENDBRANCH   7   8
ENDBRANCH   6   7
ENDBRANCH   5   6
ENDBRANCH   4   5
ENDBRANCH   3   4
ENDBRANCH   2   3
ENDBRANCH   1   2
BRANCH   1  14
ATOM     14  C   UNL     1       2.808   7.764  18.324  0.00  0.00    +0.000 C 
BRANCH  14  15
ATOM     15  C   UNL     1       1.732   8.631  17.676  0.00  0.00    +0.000 C 
BRANCH  15  16
ATOM     16  C   UNL     1       1.489   9.863  18.461  0.00  0.00    +0.000 A 
ATOM     17  N   UNL     1       0.862  10.006  19.606  0.00  0.00    +0.000 NA
ATOM     18  N   UNL     1       0.914  11.349  19.908  0.00  0.00    +0.000 NA
ATOM     19  C   UNL     1       1.571  11.934  18.925  0.00  0.00    +0.000 A 
ATOM     20  O   UNL     1       1.970  11.041  17.958  0.00  0.00    +0.000 OA
BRANCH  19  21
ATOM     21  C   UNL     1       1.923  13.339  18.755  0.00  0.00    +0.000 A 
ATOM     22  C   UNL     1       0.973  14.317  19.065  0.00  0.00    +0.000 A 
ATOM     23  C   UNL     1       1.318  15.650  18.927  0.00  0.00    +0.000 A 
ATOM     24  N   UNL     1       2.527  16.073  18.501  0.00  0.00    +0.000 NA
ATOM     25  C   UNL     1       3.429  15.115  18.199  0.00  0.00    +0.000 A 
ATOM     26  C   UNL     1       3.179  13.755  18.306  0.00  0.00    +0.000 A 
ENDBRANCH  19  21
ENDBRANCH  15  16
ENDBRANCH  14  15
ENDBRANCH   1  14
TORSDOF 15
ENDMDL
MODEL 8
REMARK VINA RESULT:      -5.7      6.346     10.102
REMARK  Name = 
REMARK  16 active torsions:
REMARK  status: ('A' for Active; 'I' for Inactive)
REMARK    1  A    between atoms: C_1  and  C_2
REMARK    2  A    between atoms: C_2  and  C_3
REMARK    3  A    between atoms: C_3  and  C_4
REMARK    4  A    between atoms: C_4  and  C_5
REMARK    5  A    between atoms: C_5  and  C_6
REMARK    6  A    between atoms: C_6  and  C_7
REMARK    7  A    between atoms: C_7  and  C_8
REMARK    8  A    between atoms: C_8  and  C_9
REMARK    9  A    between atoms: C_9  and  C_10
REMARK   10  A    between atoms: C_10  and  C_11
REMARK   11  A    between atoms: C_11  and  C_12
REMARK   12  A    between atoms: C_12  and  C_13
REMARK   13  A    between atoms: C_13  and  C_14
REMARK   14  A    between atoms: C_14  and  C_15
REMARK   15  A    between atoms: C_15  and  C_16
REMARK   16  A    between atoms: C_19  and  C_20
REMARK                            x       y       z     vdW  Elec       q    Type
REMARK                         _______ _______ _______ _____ _____    ______ ____
ROOT
ATOM      1  C   UNL     1       2.116   7.906  17.786  0.00  0.00    +0.000 C 
ENDROOT
BRANCH   1   2
ATOM      2  C   UNL     1       2.698   7.197  19.004  0.00  0.00    +0.000 C 
BRANCH   2   3
ATOM      3  C   UNL     1       2.081   5.815  19.176  0.00  0.00    +0.000 C 
BRANCH   3   4
ATOM      4  C   UNL     1       1.908   5.490  20.654  0.00  0.00    +0.000 C 
BRANCH   4   5
ATOM      5  C   UNL     1       1.935   3.985  20.878  0.00  0.00    +0.000 C 
BRANCH   5   6
ATOM      6  C   UNL     1       1.002   3.287  19.899  0.00  0.00    +0.000 C 
BRANCH   6   7
ATOM      7  C   UNL     1       1.676   2.059  19.308  0.00  0.00    +0.000 C 
BRANCH   7   8
ATOM      8  C   UNL     1       2.142   2.341  17.888  0.00  0.00    +0.000 C 
BRANCH   8   9
ATOM      9  C   UNL     1       3.656   2.489  17.845  0.00  0.00    +0.000 C 
BRANCH   9  10
ATOM     10  C   UNL     1       4.049   3.755  17.095  0.00  0.00    +0.000 C 
BRANCH  10  11
ATOM     11  C   UNL     1       5.261   4.409  17.749  0.00  0.00    +0.000 C 
BRANCH  11  13
ATOM     12  C   UNL     1       5.061   6.348  16.175  0.00  0.00    +0.000 C 
ATOM     13  C   UNL     1       5.996   5.306  16.760  0.00  0.00    +0.000 C 
ENDBRANCH  11  13
ENDBRANCH  10  11
ENDBRANCH   9  10
ENDBRANCH   8   9
ENDBRANCH   7   8
ENDBRANCH   6   7
ENDBRANCH   5   6
ENDBRANCH   4   5
ENDBRANCH   3   4
ENDBRANCH   2   3
ENDBRANCH   1   2
BRANCH   1  14
ATOM     14  C   UNL     1       1.971   9.403  18.045  0.00  0.00    +0.000 C 
BRANCH  14  15
ATOM     15  C   UNL     1       0.505   9.786  18.231  0.00  0.00    +0.000 C 
BRANCH  15  16
ATOM     16  C   UNL     1       0.268  10.378  19.568  0.00  0.00    +0.000 A 
ATOM     17  N   UNL     1       1.073  10.434  20.603  0.00  0.00    +0.000 NA
ATOM     18  N   UNL     1       0.378  11.088  21.597  0.00  0.00    +0.000 NA
ATOM     19  C   UNL     1      -0.806  11.387  21.097  0.00  0.00    +0.000 A 
ATOM     20  O   UNL     1      -0.949  10.959  19.797  0.00  0.00    +0.000 OA
BRANCH  19  21
ATOM     21  C   UNL     1      -1.920  12.094  21.717  0.00  0.00    +0.000 A 
ATOM     22  C   UNL     1      -2.203  11.860  23.067  0.00  0.00    +0.000 A 
ATOM     23  C   UNL     1      -3.245  12.552  23.660  0.00  0.00    +0.000 A 
ATOM     24  N   UNL     1      -4.020  13.444  23.010  0.00  0.00    +0.000 NA
ATOM     25  C   UNL     1      -3.739  13.651  21.706  0.00  0.00    +0.000 A 
ATOM     26  C   UNL     1      -2.716  13.010  21.024  0.00  0.00    +0.000 A 
ENDBRANCH  19  21
ENDBRANCH  15  16
ENDBRANCH  14  15
ENDBRANCH   1  14
TORSDOF 15
ENDMDL
MODEL 9
REMARK VINA RESULT:      -5.7      3.403      6.179
REMARK  Name = 
REMARK  16 active torsions:
REMARK  status: ('A' for Active; 'I' for Inactive)
REMARK    1  A    between atoms: C_1  and  C_2
REMARK    2  A    between atoms: C_2  and  C_3
REMARK    3  A    between atoms: C_3  and  C_4
REMARK    4  A    between atoms: C_4  and  C_5
REMARK    5  A    between atoms: C_5  and  C_6
REMARK    6  A    between atoms: C_6  and  C_7
REMARK    7  A    between atoms: C_7  and  C_8
REMARK    8  A    between atoms: C_8  and  C_9
REMARK    9  A    between atoms: C_9  and  C_10
REMARK   10  A    between atoms: C_10  and  C_11
REMARK   11  A    between atoms: C_11  and  C_12
REMARK   12  A    between atoms: C_12  and  C_13
REMARK   13  A    between atoms: C_13  and  C_14
REMARK   14  A    between atoms: C_14  and  C_15
REMARK   15  A    between atoms: C_15  and  C_16
REMARK   16  A    between atoms: C_19  and  C_20
REMARK                            x       y       z     vdW  Elec       q    Type
REMARK                         _______ _______ _______ _____ _____    ______ ____
ROOT
ATOM      1  C   UNL     1       1.552   4.058  20.979  0.00  0.00    +0.000 C 
ENDROOT
BRANCH   1   2
ATOM      2  C   UNL     1       1.034   5.126  20.023  0.00  0.00    +0.000 C 
BRANCH   2   3
ATOM      3  C   UNL     1       2.061   6.238  19.840  0.00  0.00    +0.000 C 
BRANCH   3   4
ATOM      4  C   UNL     1       2.588   6.246  18.412  0.00  0.00    +0.000 C 
BRANCH   4   5
ATOM      5  C   UNL     1       2.830   7.672  17.939  0.00  0.00    +0.000 C 
BRANCH   5   6
ATOM      6  C   UNL     1       1.568   8.506  18.103  0.00  0.00    +0.000 C 
BRANCH   6   7
ATOM      7  C   UNL     1       1.905   9.989  18.072  0.00  0.00    +0.000 C 
BRANCH   7   8
ATOM      8  C   UNL     1       0.957  10.767  18.972  0.00  0.00    +0.000 C 
BRANCH   8   9
ATOM      9  C   UNL     1       0.929  10.158  20.367  0.00  0.00    +0.000 C 
BRANCH   9  10
ATOM     10  C   UNL     1      -0.503  10.037  20.869  0.00  0.00    +0.000 C 
BRANCH  10  11
ATOM     11  C   UNL     1      -0.540  10.068  22.392  0.00  0.00    +0.000 C 
BRANCH  11  13
ATOM     12  C   UNL     1      -1.735  12.189  21.801  0.00  0.00    +0.000 C 
ATOM     13  C   UNL     1      -1.021  11.423  22.899  0.00  0.00    +0.000 C 
ENDBRANCH  11  13
ENDBRANCH  10  11
ENDBRANCH   9  10
ENDBRANCH   8   9
ENDBRANCH   7   8
ENDBRANCH   6   7
ENDBRANCH   5   6
ENDBRANCH   4   5
ENDBRANCH   3   4
ENDBRANCH   2   3
ENDBRANCH   1   2
BRANCH   1  14
ATOM     14  C   UNL     1       1.056   2.674  20.568  0.00  0.00    +0.000 C 
BRANCH  14  15
ATOM     15  C   UNL     1       1.727   2.213  19.277  0.00  0.00    +0.000 C 
BRANCH  15  16
ATOM     16  C   UNL     1       3.147   2.632  19.230  0.00  0.00    +0.000 A 
ATOM     17  N   UNL     1       4.109   2.397  20.091  0.00  0.00    +0.000 NA
ATOM     18  N   UNL     1       5.238   3.001  19.582  0.00  0.00    +0.000 NA
ATOM     19  C   UNL     1       4.885   3.563  18.442  0.00  0.00    +0.000 A 
ATOM     20  O   UNL     1       3.555   3.369  18.151  0.00  0.00    +0.000 OA
BRANCH  19  21
ATOM     21  C   UNL     1       5.697   4.314  17.491  0.00  0.00    +0.000 A 
ATOM     22  C   UNL     1       5.725   3.904  16.154  0.00  0.00    +0.000 A 
ATOM     23  C   UNL     1       6.476   4.634  15.248  0.00  0.00    +0.000 A 
ATOM     24  N   UNL     1       7.196   5.726  15.577  0.00  0.00    +0.000 NA
ATOM     25  C   UNL     1       7.165   6.102  16.873  0.00  0.00    +0.000 A 
ATOM     26  C   UNL     1       6.443   5.439  17.854  0.00  0.00    +0.000 A 
ENDBRANCH  19  21
ENDBRANCH  15  16
ENDBRANCH  14  15
ENDBRANCH   1  14
TORSDOF 15
ENDMDL
