MODEL 1
REMARK VINA RESULT:      -8.0      0.000      0.000
REMARK  Name = 
REMARK  10 active torsions:
REMARK  status: ('A' for Active; 'I' for Inactive)
REMARK    1  A    between atoms: C_1  and  C_2
REMARK    2  A    between atoms: C_5  and  O_6
REMARK    3  A    between atoms: O_6  and  C_7
REMARK    4  A    between atoms: C_7  and  C_8
REMARK    5  A    between atoms: C_10  and  N_11
REMARK    6  A    between atoms: C_13  and  C_14
REMARK    7  A    between atoms: C_14  and  N_15
REMARK    8  A    between atoms: C_26  and  O_27
REMARK    9  A    between atoms: O_27  and  C_28
REMARK   10  A    between atoms: C_31  and  C_32
REMARK                            x       y       z     vdW  Elec       q    Type
REMARK                         _______ _______ _______ _____ _____    ______ ____
ROOT
ATOM      1  C   UNL     1      -0.393  11.747  21.276  0.00  0.00    +0.000 C 
ATOM      2  O   UNL     1       0.363  12.837  21.856  0.00  0.00    +0.000 OA
ATOM      3  C   UNL     1       0.209  14.009  21.030  0.00  0.00    +0.000 C 
ATOM      4  C   UNL     1      -1.053  13.771  20.222  0.00  0.00    +0.000 C 
ATOM      5  C   UNL     1      -1.022  12.275  19.983  0.00  0.00    +0.000 C 
ENDROOT
BRANCH   3   6
ATOM      6  N   UNL     1       1.432  14.190  20.260  0.00  0.00    +0.000 N 
ATOM      7  C   UNL     1       1.597  14.932  19.128  0.00  0.00    +0.000 A 
ATOM      8  C   UNL     1       2.935  14.809  18.828  0.00  0.00    +0.000 A 
ATOM      9  N   UNL     1       3.520  13.975  19.748  0.00  0.00    +0.000 NA
ATOM     10  N   UNL     1       2.587  13.591  20.613  0.00  0.00    +0.000 NA
BRANCH   8  11
ATOM     11  C   UNL     1       3.715  15.444  17.732  0.00  0.00    +0.000 C 
BRANCH  11  12
ATOM     12  N   UNL     1       5.096  15.649  18.152  0.00  0.00    +0.000 N 
ATOM     13  C   UNL     1       6.058  14.725  17.815  0.00  0.00    +0.000 A 
ATOM     14  C   UNL     1       7.332  14.909  18.154  0.00  0.00    +0.000 A 
ATOM     15  C   UNL     1       7.628  16.157  18.883  0.00  0.00    +0.000 A 
ATOM     16  N   UNL     1       8.917  16.440  19.243  0.00  0.00    +0.000 N 
ATOM     17  N   UNL     1       6.725  17.030  19.204  0.00  0.00    +0.000 NA
ATOM     18  C   UNL     1       5.412  16.815  18.856  0.00  0.00    +0.000 A 
ATOM     19  O   UNL     1       4.543  17.632  19.157  0.00  0.00    +0.000 OA
ATOM     20  H   UNL     1       9.647  16.115  18.623  0.00  0.00    +0.000 HD
ATOM     21  H   UNL     1       9.026  17.414  19.510  0.00  0.00    +0.000 HD
ENDBRANCH  11  12
ENDBRANCH   8  11
ENDBRANCH   3   6
BRANCH   1  22
ATOM     22  C   UNL     1       0.524  10.533  21.024  0.00  0.00    +0.000 C 
BRANCH  22  23
ATOM     23  O   UNL     1       0.752  10.428  19.614  0.00  0.00    +0.000 OA
BRANCH  23  28
ATOM     24  C   UNL     1       3.347   5.632  18.038  0.00  0.00    +0.000 C 
ATOM     25  C   UNL     1       2.732   6.940  18.450  0.00  0.00    +0.000 A 
ATOM     26  C   UNL     1       2.236   7.118  19.745  0.00  0.00    +0.000 A 
ATOM     27  C   UNL     1       1.605   8.313  20.097  0.00  0.00    +0.000 A 
ATOM     28  C   UNL     1       1.470   9.352  19.174  0.00  0.00    +0.000 A 
ATOM     29  C   UNL     1       1.981   9.190  17.887  0.00  0.00    +0.000 A 
ATOM     30  C   UNL     1       2.608   7.988  17.530  0.00  0.00    +0.000 A 
ENDBRANCH  23  28
ENDBRANCH  22  23
ENDBRANCH   1  22
BRANCH   5  31
ATOM     31  O   UNL     1      -2.365  11.816  19.818  0.00  0.00    +0.000 OA
BRANCH  31  32
ATOM     32  C   UNL     1      -2.742  11.409  18.571  0.00  0.00    +0.000 A 
ATOM     33  C   UNL     1      -1.905  10.478  17.953  0.00  0.00    +0.000 A 
ATOM     34  C   UNL     1      -2.192  10.009  16.667  0.00  0.00    +0.000 A 
ATOM     35  C   UNL     1      -3.327  10.463  15.990  0.00  0.00    +0.000 A 
ATOM     36  C   UNL     1      -3.642  10.009  14.596  0.00  0.00    +0.000 C 
ATOM     37  C   UNL     1      -4.194  11.347  16.639  0.00  0.00    +0.000 A 
ATOM     38  C   UNL     1      -3.912  11.805  17.928  0.00  0.00    +0.000 A 
ENDBRANCH  31  32
ENDBRANCH   5  31
TORSDOF 8
ENDMDL
MODEL 2
REMARK VINA RESULT:      -8.0      5.352      9.968
REMARK  Name = 
REMARK  10 active torsions:
REMARK  status: ('A' for Active; 'I' for Inactive)
REMARK    1  A    between atoms: C_1  and  C_2
REMARK    2  A    between atoms: C_5  and  O_6
REMARK    3  A    between atoms: O_6  and  C_7
REMARK    4  A    between atoms: C_7  and  C_8
REMARK    5  A    between atoms: C_10  and  N_11
REMARK    6  A    between atoms: C_13  and  C_14
REMARK    7  A    between atoms: C_14  and  N_15
REMARK    8  A    between atoms: C_26  and  O_27
REMARK    9  A    between atoms: O_27  and  C_28
REMARK   10  A    between atoms: C_31  and  C_32
REMARK                            x       y       z     vdW  Elec       q    Type
REMARK                         _______ _______ _______ _____ _____    ______ ____
ROOT
ATOM      1  C   UNL     1       7.397   6.208  17.379  0.00  0.00    +0.000 C 
ATOM      2  O   UNL     1       6.936   5.479  18.541  0.00  0.00    +0.000 OA
ATOM      3  C   UNL     1       5.941   4.518  18.132  0.00  0.00    +0.000 C 
ATOM      4  C   UNL     1       6.168   4.312  16.646  0.00  0.00    +0.000 C 
ATOM      5  C   UNL     1       6.603   5.686  16.178  0.00  0.00    +0.000 C 
ENDROOT
BRANCH   3   6
ATOM      6  N   UNL     1       4.630   5.027  18.511  0.00  0.00    +0.000 N 
ATOM      7  C   UNL     1       4.307   5.728  19.635  0.00  0.00    +0.000 A 
ATOM      8  C   UNL     1       2.967   6.006  19.493  0.00  0.00    +0.000 A 
ATOM      9  N   UNL     1       2.518   5.437  18.327  0.00  0.00    +0.000 NA
ATOM     10  N   UNL     1       3.542   4.828  17.740  0.00  0.00    +0.000 NA
BRANCH   8  11
ATOM     11  C   UNL     1       2.071   6.795  20.380  0.00  0.00    +0.000 C 
BRANCH  11  12
ATOM     12  N   UNL     1       1.788   8.095  19.782  0.00  0.00    +0.000 N 
ATOM     13  C   UNL     1       2.164   8.346  18.483  0.00  0.00    +0.000 A 
ATOM     14  C   UNL     1       1.884   9.511  17.903  0.00  0.00    +0.000 A 
ATOM     15  C   UNL     1       1.142  10.479  18.734  0.00  0.00    +0.000 A 
ATOM     16  N   UNL     1       0.787  11.690  18.206  0.00  0.00    +0.000 N 
ATOM     17  N   UNL     1       0.788  10.248  19.958  0.00  0.00    +0.000 NA
ATOM     18  C   UNL     1       1.098   9.042  20.544  0.00  0.00    +0.000 A 
ATOM     19  O   UNL     1       0.772   8.809  21.707  0.00  0.00    +0.000 OA
ATOM     20  H   UNL     1       0.576  11.714  17.217  0.00  0.00    +0.000 HD
ATOM     21  H   UNL     1       0.085  12.156  18.774  0.00  0.00    +0.000 HD
ENDBRANCH  11  12
ENDBRANCH   8  11
ENDBRANCH   3   6
BRANCH   1  22
ATOM     22  C   UNL     1       7.209   7.724  17.587  0.00  0.00    +0.000 C 
BRANCH  22  23
ATOM     23  O   UNL     1       8.270   8.197  18.426  0.00  0.00    +0.000 OA
BRANCH  23  28
ATOM     24  C   UNL     1       9.854  13.648  18.442  0.00  0.00    +0.000 C 
ATOM     25  C   UNL     1       9.363  12.227  18.469  0.00  0.00    +0.000 A 
ATOM     26  C   UNL     1       9.935  11.292  19.337  0.00  0.00    +0.000 A 
ATOM     27  C   UNL     1       9.518   9.959  19.305  0.00  0.00    +0.000 A 
ATOM     28  C   UNL     1       8.519   9.541  18.423  0.00  0.00    +0.000 A 
ATOM     29  C   UNL     1       7.929  10.472  17.571  0.00  0.00    +0.000 A 
ATOM     30  C   UNL     1       8.353  11.809  17.595  0.00  0.00    +0.000 A 
ENDBRANCH  23  28
ENDBRANCH  22  23
ENDBRANCH   1  22
BRANCH   5  31
ATOM     31  O   UNL     1       7.426   5.530  15.022  0.00  0.00    +0.000 OA
BRANCH  31  32
ATOM     32  C   UNL     1       6.929   4.786  13.991  0.00  0.00    +0.000 A 
ATOM     33  C   UNL     1       5.623   4.318  14.149  0.00  0.00    +0.000 A 
ATOM     34  C   UNL     1       5.025   3.532  13.159  0.00  0.00    +0.000 A 
ATOM     35  C   UNL     1       5.729   3.213  11.995  0.00  0.00    +0.000 A 
ATOM     36  C   UNL     1       5.131   2.341  10.932  0.00  0.00    +0.000 C 
ATOM     37  C   UNL     1       7.013   3.736  11.815  0.00  0.00    +0.000 A 
ATOM     38  C   UNL     1       7.603   4.531  12.800  0.00  0.00    +0.000 A 
ENDBRANCH  31  32
ENDBRANCH   5  31
TORSDOF 8
ENDMDL
MODEL 3
REMARK VINA RESULT:      -7.9      4.586      8.172
REMARK  Name = 
REMARK  10 active torsions:
REMARK  status: ('A' for Active; 'I' for Inactive)
REMARK    1  A    between atoms: C_1  and  C_2
REMARK    2  A    between atoms: C_5  and  O_6
REMARK    3  A    between atoms: O_6  and  C_7
REMARK    4  A    between atoms: C_7  and  C_8
REMARK    5  A    between atoms: C_10  and  N_11
REMARK    6  A    between atoms: C_13  and  C_14
REMARK    7  A    between atoms: C_14  and  N_15
REMARK    8  A    between atoms: C_26  and  O_27
REMARK    9  A    between atoms: O_27  and  C_28
REMARK   10  A    between atoms: C_31  and  C_32
REMARK                            x       y       z     vdW  Elec       q    Type
REMARK                         _______ _______ _______ _____ _____    ______ ____
ROOT
ATOM      1  C   UNL     1      -0.594  10.881  20.177  0.00  0.00    +0.000 C 
ATOM      2  O   UNL     1      -0.621   9.457  19.923  0.00  0.00    +0.000 OA
ATOM      3  C   UNL     1       0.572   8.857  20.467  0.00  0.00    +0.000 C 
ATOM      4  C   UNL     1       1.084   9.843  21.500  0.00  0.00    +0.000 C 
ATOM      5  C   UNL     1       0.726  11.184  20.892  0.00  0.00    +0.000 C 
ENDROOT
BRANCH   3   6
ATOM      6  N   UNL     1       1.479   8.562  19.366  0.00  0.00    +0.000 N 
ATOM      7  C   UNL     1       2.470   7.627  19.336  0.00  0.00    +0.000 A 
ATOM      8  C   UNL     1       2.992   7.719  18.066  0.00  0.00    +0.000 A 
ATOM      9  N   UNL     1       2.341   8.722  17.392  0.00  0.00    +0.000 NA
ATOM     10  N   UNL     1       1.425   9.240  18.202  0.00  0.00    +0.000 NA
BRANCH   8  11
ATOM     11  C   UNL     1       4.064   6.909  17.428  0.00  0.00    +0.000 C 
BRANCH  11  12
ATOM     12  N   UNL     1       4.206   5.631  18.117  0.00  0.00    +0.000 N 
ATOM     13  C   UNL     1       3.154   4.746  18.141  0.00  0.00    +0.000 A 
ATOM     14  C   UNL     1       3.271   3.559  18.730  0.00  0.00    +0.000 A 
ATOM     15  C   UNL     1       4.590   3.266  19.324  0.00  0.00    +0.000 A 
ATOM     16  N   UNL     1       4.808   2.056  19.924  0.00  0.00    +0.000 N 
ATOM     17  N   UNL     1       5.584   4.097  19.306  0.00  0.00    +0.000 NA
ATOM     18  C   UNL     1       5.438   5.325  18.703  0.00  0.00    +0.000 A 
ATOM     19  O   UNL     1       6.371   6.126  18.681  0.00  0.00    +0.000 OA
ATOM     20  H   UNL     1       4.318   1.259  19.538  0.00  0.00    +0.000 HD
ATOM     21  H   UNL     1       5.798   1.881  20.069  0.00  0.00    +0.000 HD
ENDBRANCH  11  12
ENDBRANCH   8  11
ENDBRANCH   3   6
BRANCH   1  22
ATOM     22  C   UNL     1      -0.734  11.664  18.857  0.00  0.00    +0.000 C 
BRANCH  22  23
ATOM     23  O   UNL     1      -1.729  11.017  18.054  0.00  0.00    +0.000 OA
BRANCH  23  28
ATOM     24  C   UNL     1      -7.232  12.385  18.287  0.00  0.00    +0.000 C 
ATOM     25  C   UNL     1      -5.757  12.103  18.227  0.00  0.00    +0.000 A 
ATOM     26  C   UNL     1      -5.182  11.560  17.075  0.00  0.00    +0.000 A 
ATOM     27  C   UNL     1      -3.823  11.237  17.054  0.00  0.00    +0.000 A 
ATOM     28  C   UNL     1      -3.015  11.462  18.171  0.00  0.00    +0.000 A 
ATOM     29  C   UNL     1      -3.577  12.024  19.316  0.00  0.00    +0.000 A 
ATOM     30  C   UNL     1      -4.943  12.340  19.341  0.00  0.00    +0.000 A 
ENDBRANCH  23  28
ENDBRANCH  22  23
ENDBRANCH   1  22
BRANCH   5  31
ATOM     31  O   UNL     1       0.556  12.129  21.949  0.00  0.00    +0.000 OA
BRANCH  31  32
ATOM     32  C   UNL     1      -0.720  12.497  22.266  0.00  0.00    +0.000 A 
ATOM     33  C   UNL     1      -1.429  11.607  23.075  0.00  0.00    +0.000 A 
ATOM     34  C   UNL     1      -2.750  11.881  23.445  0.00  0.00    +0.000 A 
ATOM     35  C   UNL     1      -3.371  13.056  23.012  0.00  0.00    +0.000 A 
ATOM     36  C   UNL     1      -4.798  13.360  23.358  0.00  0.00    +0.000 C 
ATOM     37  C   UNL     1      -2.635  13.972  22.254  0.00  0.00    +0.000 A 
ATOM     38  C   UNL     1      -1.313  13.701  21.896  0.00  0.00    +0.000 A 
ENDBRANCH  31  32
ENDBRANCH   5  31
TORSDOF 8
ENDMDL
MODEL 4
REMARK VINA RESULT:      -7.9      4.025      8.324
REMARK  Name = 
REMARK  10 active torsions:
REMARK  status: ('A' for Active; 'I' for Inactive)
REMARK    1  A    between atoms: C_1  and  C_2
REMARK    2  A    between atoms: C_5  and  O_6
REMARK    3  A    between atoms: O_6  and  C_7
REMARK    4  A    between atoms: C_7  and  C_8
REMARK    5  A    between atoms: C_10  and  N_11
REMARK    6  A    between atoms: C_13  and  C_14
REMARK    7  A    between atoms: C_14  and  N_15
REMARK    8  A    between atoms: C_26  and  O_27
REMARK    9  A    between atoms: O_27  and  C_28
REMARK   10  A    between atoms: C_31  and  C_32
REMARK                            x       y       z     vdW  Elec       q    Type
REMARK                         _______ _______ _______ _____ _____    ______ ____
ROOT
ATOM      1  C   UNL     1      -0.395  10.183  20.362  0.00  0.00    +0.000 C 
ATOM      2  O   UNL     1      -0.495   8.837  20.885  0.00  0.00    +0.000 OA
ATOM      3  C   UNL     1       0.753   8.481  21.515  0.00  0.00    +0.000 C 
ATOM      4  C   UNL     1       1.439   9.799  21.822  0.00  0.00    +0.000 C 
ATOM      5  C   UNL     1       1.025  10.674  20.656  0.00  0.00    +0.000 C 
ENDROOT
BRANCH   3   6
ATOM      6  N   UNL     1       1.474   7.580  20.626  0.00  0.00    +0.000 N 
ATOM      7  C   UNL     1       1.712   6.251  20.808  0.00  0.00    +0.000 A 
ATOM      8  C   UNL     1       2.384   5.862  19.672  0.00  0.00    +0.000 A 
ATOM      9  N   UNL     1       2.566   6.961  18.869  0.00  0.00    +0.000 NA
ATOM     10  N   UNL     1       2.016   8.010  19.469  0.00  0.00    +0.000 NA
BRANCH   8  11
ATOM     11  C   UNL     1       2.858   4.510  19.275  0.00  0.00    +0.000 C 
BRANCH  11  12
ATOM     12  N   UNL     1       4.172   4.600  18.650  0.00  0.00    +0.000 N 
ATOM     13  C   UNL     1       5.230   5.124  19.355  0.00  0.00    +0.000 A 
ATOM     14  C   UNL     1       6.447   5.182  18.819  0.00  0.00    +0.000 A 
ATOM     15  C   UNL     1       6.574   4.637  17.454  0.00  0.00    +0.000 A 
ATOM     16  N   UNL     1       7.796   4.629  16.840  0.00  0.00    +0.000 N 
ATOM     17  N   UNL     1       5.580   4.143  16.786  0.00  0.00    +0.000 NA
ATOM     18  C   UNL     1       4.326   4.104  17.352  0.00  0.00    +0.000 A 
ATOM     19  O   UNL     1       3.372   3.642  16.728  0.00  0.00    +0.000 OA
ATOM     20  H   UNL     1       8.606   4.507  17.434  0.00  0.00    +0.000 HD
ATOM     21  H   UNL     1       7.804   4.020  16.027  0.00  0.00    +0.000 HD
ENDBRANCH  11  12
ENDBRANCH   8  11
ENDBRANCH   3   6
BRANCH   1  22
ATOM     22  C   UNL     1      -0.716  10.197  18.855  0.00  0.00    +0.000 C 
BRANCH  22  23
ATOM     23  O   UNL     1      -1.272  11.476  18.526  0.00  0.00    +0.000 OA
BRANCH  23  28
ATOM     24  C   UNL     1      -6.825  12.195  17.599  0.00  0.00    +0.000 C 
ATOM     25  C   UNL     1      -5.367  11.924  17.844  0.00  0.00    +0.000 A 
ATOM     26  C   UNL     1      -4.775  12.258  19.066  0.00  0.00    +0.000 A 
ATOM     27  C   UNL     1      -3.405  12.065  19.258  0.00  0.00    +0.000 A 
ATOM     28  C   UNL     1      -2.608  11.526  18.245  0.00  0.00    +0.000 A 
ATOM     29  C   UNL     1      -3.195  11.170  17.033  0.00  0.00    +0.000 A 
ATOM     30  C   UNL     1      -4.569  11.371  16.835  0.00  0.00    +0.000 A 
ENDBRANCH  23  28
ENDBRANCH  22  23
ENDBRANCH   1  22
BRANCH   5  31
ATOM     31  O   UNL     1       1.041  12.036  21.085  0.00  0.00    +0.000 OA
BRANCH  31  32
ATOM     32  C   UNL     1       1.587  12.957  20.239  0.00  0.00    +0.000 A 
ATOM     33  C   UNL     1       1.759  14.240  20.763  0.00  0.00    +0.000 A 
ATOM     34  C   UNL     1       2.295  15.263  19.975  0.00  0.00    +0.000 A 
ATOM     35  C   UNL     1       2.673  15.008  18.654  0.00  0.00    +0.000 A 
ATOM     36  C   UNL     1       3.215  16.091  17.770  0.00  0.00    +0.000 C 
ATOM     37  C   UNL     1       2.557  13.706  18.156  0.00  0.00    +0.000 A 
ATOM     38  C   UNL     1       2.032  12.684  18.949  0.00  0.00    +0.000 A 
ENDBRANCH  31  32
ENDBRANCH   5  31
TORSDOF 8
ENDMDL
MODEL 5
REMARK VINA RESULT:      -7.9      4.464      7.726
REMARK  Name = 
REMARK  10 active torsions:
REMARK  status: ('A' for Active; 'I' for Inactive)
REMARK    1  A    between atoms: C_1  and  C_2
REMARK    2  A    between atoms: C_5  and  O_6
REMARK    3  A    between atoms: O_6  and  C_7
REMARK    4  A    between atoms: C_7  and  C_8
REMARK    5  A    between atoms: C_10  and  N_11
REMARK    6  A    between atoms: C_13  and  C_14
REMARK    7  A    between atoms: C_14  and  N_15
REMARK    8  A    between atoms: C_26  and  O_27
REMARK    9  A    between atoms: O_27  and  C_28
REMARK   10  A    between atoms: C_31  and  C_32
REMARK                            x       y       z     vdW  Elec       q    Type
REMARK                         _______ _______ _______ _____ _____    ______ ____
ROOT
ATOM      1  C   UNL     1       0.169  11.356  20.532  0.00  0.00    +0.000 C 
ATOM      2  O   UNL     1       1.554  10.940  20.459  0.00  0.00    +0.000 OA
ATOM      3  C   UNL     1       1.827  10.438  19.135  0.00  0.00    +0.000 C 
ATOM      4  C   UNL     1       0.741  11.021  18.251  0.00  0.00    +0.000 C 
ATOM      5  C   UNL     1      -0.463  11.050  19.171  0.00  0.00    +0.000 C 
ENDROOT
BRANCH   3   6
ATOM      6  N   UNL     1       1.882   8.984  19.200  0.00  0.00    +0.000 N 
ATOM      7  C   UNL     1       2.064   8.114  18.167  0.00  0.00    +0.000 A 
ATOM      8  C   UNL     1       2.083   6.873  18.760  0.00  0.00    +0.000 A 
ATOM      9  N   UNL     1       1.871   7.024  20.108  0.00  0.00    +0.000 NA
ATOM     10  N   UNL     1       1.736   8.320  20.365  0.00  0.00    +0.000 NA
BRANCH   8  11
ATOM     11  C   UNL     1       2.306   5.538  18.143  0.00  0.00    +0.000 C 
BRANCH  11  12
ATOM     12  N   UNL     1       3.733   5.242  18.088  0.00  0.00    +0.000 N 
ATOM     13  C   UNL     1       4.541   5.929  17.212  0.00  0.00    +0.000 A 
ATOM     14  C   UNL     1       5.852   5.703  17.169  0.00  0.00    +0.000 A 
ATOM     15  C   UNL     1       6.361   4.699  18.123  0.00  0.00    +0.000 A 
ATOM     16  N   UNL     1       7.700   4.427  18.168  0.00  0.00    +0.000 N 
ATOM     17  N   UNL     1       5.603   4.048  18.949  0.00  0.00    +0.000 NA
ATOM     18  C   UNL     1       4.248   4.286  18.968  0.00  0.00    +0.000 A 
ATOM     19  O   UNL     1       3.516   3.673  19.743  0.00  0.00    +0.000 OA
ATOM     20  H   UNL     1       8.329   5.193  17.966  0.00  0.00    +0.000 HD
ATOM     21  H   UNL     1       7.952   3.917  19.010  0.00  0.00    +0.000 HD
ENDBRANCH  11  12
ENDBRANCH   8  11
ENDBRANCH   3   6
BRANCH   1  22
ATOM     22  C   UNL     1      -0.550  10.627  21.684  0.00  0.00    +0.000 C 
BRANCH  22  23
ATOM     23  O   UNL     1      -0.433  11.428  22.866  0.00  0.00    +0.000 OA
BRANCH  23  28
ATOM     24  C   UNL     1      -4.516  15.193  24.035  0.00  0.00    +0.000 C 
ATOM     25  C   UNL     1      -3.431  14.227  23.650  0.00  0.00    +0.000 A 
ATOM     26  C   UNL     1      -3.699  12.860  23.544  0.00  0.00    +0.000 A 
ATOM     27  C   UNL     1      -2.669  11.963  23.253  0.00  0.00    +0.000 A 
ATOM     28  C   UNL     1      -1.363  12.413  23.050  0.00  0.00    +0.000 A 
ATOM     29  C   UNL     1      -1.092  13.777  23.132  0.00  0.00    +0.000 A 
ATOM     30  C   UNL     1      -2.123  14.678  23.433  0.00  0.00    +0.000 A 
ENDBRANCH  23  28
ENDBRANCH  22  23
ENDBRANCH   1  22
BRANCH   5  31
ATOM     31  O   UNL     1      -1.335  12.097  18.741  0.00  0.00    +0.000 OA
BRANCH  31  32
ATOM     32  C   UNL     1      -2.676  11.849  18.764  0.00  0.00    +0.000 A 
ATOM     33  C   UNL     1      -3.144  10.931  17.821  0.00  0.00    +0.000 A 
ATOM     34  C   UNL     1      -4.505  10.618  17.748  0.00  0.00    +0.000 A 
ATOM     35  C   UNL     1      -5.412  11.217  18.627  0.00  0.00    +0.000 A 
ATOM     36  C   UNL     1      -6.882  10.933  18.550  0.00  0.00    +0.000 C 
ATOM     37  C   UNL     1      -4.929  12.087  19.609  0.00  0.00    +0.000 A 
ATOM     38  C   UNL     1      -3.568  12.389  19.687  0.00  0.00    +0.000 A 
ENDBRANCH  31  32
ENDBRANCH   5  31
TORSDOF 8
ENDMDL
MODEL 6
REMARK VINA RESULT:      -7.8      4.258      8.729
REMARK  Name = 
REMARK  10 active torsions:
REMARK  status: ('A' for Active; 'I' for Inactive)
REMARK    1  A    between atoms: C_1  and  C_2
REMARK    2  A    between atoms: C_5  and  O_6
REMARK    3  A    between atoms: O_6  and  C_7
REMARK    4  A    between atoms: C_7  and  C_8
REMARK    5  A    between atoms: C_10  and  N_11
REMARK    6  A    between atoms: C_13  and  C_14
REMARK    7  A    between atoms: C_14  and  N_15
REMARK    8  A    between atoms: C_26  and  O_27
REMARK    9  A    between atoms: O_27  and  C_28
REMARK   10  A    between atoms: C_31  and  C_32
REMARK                            x       y       z     vdW  Elec       q    Type
REMARK                         _______ _______ _______ _____ _____    ______ ____
ROOT
ATOM      1  C   UNL     1       0.714  12.287  19.065  0.00  0.00    +0.000 C 
ATOM      2  O   UNL     1       1.408  11.406  18.149  0.00  0.00    +0.000 OA
ATOM      3  C   UNL     1       0.631  10.204  17.971  0.00  0.00    +0.000 C 
ATOM      4  C   UNL     1      -0.781  10.572  18.383  0.00  0.00    +0.000 C 
ATOM      5  C   UNL     1      -0.557  11.559  19.511  0.00  0.00    +0.000 C 
ENDROOT
BRANCH   3   6
ATOM      6  N   UNL     1       1.259   9.136  18.738  0.00  0.00    +0.000 N 
ATOM      7  C   UNL     1       2.066   8.143  18.268  0.00  0.00    +0.000 A 
ATOM      8  C   UNL     1       2.427   7.433  19.389  0.00  0.00    +0.000 A 
ATOM      9  N   UNL     1       1.803   7.983  20.481  0.00  0.00    +0.000 NA
ATOM     10  N   UNL     1       1.079   9.018  20.068  0.00  0.00    +0.000 NA
BRANCH   8  11
ATOM     11  C   UNL     1       3.344   6.268  19.511  0.00  0.00    +0.000 C 
BRANCH  11  12
ATOM     12  N   UNL     1       2.629   5.031  19.217  0.00  0.00    +0.000 N 
ATOM     13  C   UNL     1       2.467   4.630  17.911  0.00  0.00    +0.000 A 
ATOM     14  C   UNL     1       1.852   3.486  17.619  0.00  0.00    +0.000 A 
ATOM     15  C   UNL     1       1.386   2.695  18.774  0.00  0.00    +0.000 A 
ATOM     16  N   UNL     1       0.770   1.492  18.565  0.00  0.00    +0.000 N 
ATOM     17  N   UNL     1       1.534   3.070  20.005  0.00  0.00    +0.000 NA
ATOM     18  C   UNL     1       2.162   4.262  20.286  0.00  0.00    +0.000 A 
ATOM     19  O   UNL     1       2.307   4.634  21.450  0.00  0.00    +0.000 OA
ATOM     20  H   UNL     1       1.076   0.954  17.765  0.00  0.00    +0.000 HD
ATOM     21  H   UNL     1       0.720   0.942  19.418  0.00  0.00    +0.000 HD
ENDBRANCH  11  12
ENDBRANCH   8  11
ENDBRANCH   3   6
BRANCH   1  22
ATOM     22  C   UNL     1       1.625  12.650  20.254  0.00  0.00    +0.000 C 
BRANCH  22  23
ATOM     23  O   UNL     1       1.732  14.077  20.320  0.00  0.00    +0.000 OA
BRANCH  23  28
ATOM     24  C   UNL     1      -2.763  16.719  22.564  0.00  0.00    +0.000 C 
ATOM     25  C   UNL     1      -1.524  16.072  22.010  0.00  0.00    +0.000 A 
ATOM     26  C   UNL     1      -1.225  16.158  20.647  0.00  0.00    +0.000 A 
ATOM     27  C   UNL     1      -0.108  15.496  20.131  0.00  0.00    +0.000 A 
ATOM     28  C   UNL     1       0.732  14.751  20.962  0.00  0.00    +0.000 A 
ATOM     29  C   UNL     1       0.451  14.679  22.325  0.00  0.00    +0.000 A 
ATOM     30  C   UNL     1      -0.674  15.336  22.844  0.00  0.00    +0.000 A 
ENDBRANCH  23  28
ENDBRANCH  22  23
ENDBRANCH   1  22
BRANCH   5  31
ATOM     31  O   UNL     1      -1.681  12.438  19.573  0.00  0.00    +0.000 OA
BRANCH  31  32
ATOM     32  C   UNL     1      -2.355  12.517  20.757  0.00  0.00    +0.000 A 
ATOM     33  C   UNL     1      -1.717  11.948  21.861  0.00  0.00    +0.000 A 
ATOM     34  C   UNL     1      -2.329  11.961  23.119  0.00  0.00    +0.000 A 
ATOM     35  C   UNL     1      -3.584  12.551  23.284  0.00  0.00    +0.000 A 
ATOM     36  C   UNL     1      -4.285  12.546  24.610  0.00  0.00    +0.000 C 
ATOM     37  C   UNL     1      -4.189  13.173  22.188  0.00  0.00    +0.000 A 
ATOM     38  C   UNL     1      -3.571  13.170  20.936  0.00  0.00    +0.000 A 
ENDBRANCH  31  32
ENDBRANCH   5  31
TORSDOF 8
ENDMDL
MODEL 7
REMARK VINA RESULT:      -7.7      4.664      7.930
REMARK  Name = 
REMARK  10 active torsions:
REMARK  status: ('A' for Active; 'I' for Inactive)
REMARK    1  A    between atoms: C_1  and  C_2
REMARK    2  A    between atoms: C_5  and  O_6
REMARK    3  A    between atoms: O_6  and  C_7
REMARK    4  A    between atoms: C_7  and  C_8
REMARK    5  A    between atoms: C_10  and  N_11
REMARK    6  A    between atoms: C_13  and  C_14
REMARK    7  A    between atoms: C_14  and  N_15
REMARK    8  A    between atoms: C_26  and  O_27
REMARK    9  A    between atoms: O_27  and  C_28
REMARK   10  A    between atoms: C_31  and  C_32
REMARK                            x       y       z     vdW  Elec       q    Type
REMARK                         _______ _______ _______ _____ _____    ______ ____
ROOT
ATOM      1  C   UNL     1       0.152  11.144  20.014  0.00  0.00    +0.000 C 
ATOM      2  O   UNL     1       1.536  10.725  20.065  0.00  0.00    +0.000 OA
ATOM      3  C   UNL     1       1.833   9.932  18.897  0.00  0.00    +0.000 C 
ATOM      4  C   UNL     1       0.766  10.295  17.882  0.00  0.00    +0.000 C 
ATOM      5  C   UNL     1      -0.455  10.534  18.747  0.00  0.00    +0.000 C 
ENDROOT
BRANCH   3   6
ATOM      6  N   UNL     1       1.882   8.532  19.295  0.00  0.00    +0.000 N 
ATOM      7  C   UNL     1       2.285   7.470  18.542  0.00  0.00    +0.000 A 
ATOM      8  C   UNL     1       2.185   6.389  19.388  0.00  0.00    +0.000 A 
ATOM      9  N   UNL     1       1.691   6.817  20.595  0.00  0.00    +0.000 NA
ATOM     10  N   UNL     1       1.496   8.129  20.523  0.00  0.00    +0.000 NA
BRANCH   8  11
ATOM     11  C   UNL     1       2.543   4.967  19.144  0.00  0.00    +0.000 C 
BRANCH  11  12
ATOM     12  N   UNL     1       3.914   4.869  18.656  0.00  0.00    +0.000 N 
ATOM     13  C   UNL     1       4.944   5.390  19.404  0.00  0.00    +0.000 A 
ATOM     14  C   UNL     1       6.207   5.280  18.999  0.00  0.00    +0.000 A 
ATOM     15  C   UNL     1       6.412   4.558  17.727  0.00  0.00    +0.000 A 
ATOM     16  N   UNL     1       7.682   4.373  17.253  0.00  0.00    +0.000 N 
ATOM     17  N   UNL     1       5.445   4.067  17.019  0.00  0.00    +0.000 NA
ATOM     18  C   UNL     1       4.145   4.203  17.449  0.00  0.00    +0.000 A 
ATOM     19  O   UNL     1       3.216   3.746  16.785  0.00  0.00    +0.000 OA
ATOM     20  H   UNL     1       8.415   4.261  17.940  0.00  0.00    +0.000 HD
ATOM     21  H   UNL     1       7.710   3.668  16.522  0.00  0.00    +0.000 HD
ENDBRANCH  11  12
ENDBRANCH   8  11
ENDBRANCH   3   6
BRANCH   1  22
ATOM     22  C   UNL     1      -0.592  10.697  21.288  0.00  0.00    +0.000 C 
BRANCH  22  23
ATOM     23  O   UNL     1      -0.337  11.660  22.318  0.00  0.00    +0.000 OA
BRANCH  23  28
ATOM     24  C   UNL     1      -4.705  15.012  23.696  0.00  0.00    +0.000 C 
ATOM     25  C   UNL     1      -3.536  14.112  23.411  0.00  0.00    +0.000 A 
ATOM     26  C   UNL     1      -2.355  14.627  22.869  0.00  0.00    +0.000 A 
ATOM     27  C   UNL     1      -1.300  13.771  22.544  0.00  0.00    +0.000 A 
ATOM     28  C   UNL     1      -1.398  12.396  22.765  0.00  0.00    +0.000 A 
ATOM     29  C   UNL     1      -2.564  11.877  23.325  0.00  0.00    +0.000 A 
ATOM     30  C   UNL     1      -3.628  12.734  23.645  0.00  0.00    +0.000 A 
ENDBRANCH  23  28
ENDBRANCH  22  23
ENDBRANCH   1  22
BRANCH   5  31
ATOM     31  O   UNL     1      -1.315  11.453  18.072  0.00  0.00    +0.000 OA
BRANCH  31  32
ATOM     32  C   UNL     1      -2.615  11.517  18.481  0.00  0.00    +0.000 A 
ATOM     33  C   UNL     1      -3.502  10.652  17.835  0.00  0.00    +0.000 A 
ATOM     34  C   UNL     1      -4.860  10.650  18.168  0.00  0.00    +0.000 A 
ATOM     35  C   UNL     1      -5.343  11.509  19.159  0.00  0.00    +0.000 A 
ATOM     36  C   UNL     1      -6.799  11.559  19.511  0.00  0.00    +0.000 C 
ATOM     37  C   UNL     1      -4.439  12.327  19.844  0.00  0.00    +0.000 A 
ATOM     38  C   UNL     1      -3.082  12.319  19.519  0.00  0.00    +0.000 A 
ENDBRANCH  31  32
ENDBRANCH   5  31
TORSDOF 8
ENDMDL
MODEL 8
REMARK VINA RESULT:      -7.6      3.264      7.864
REMARK  Name = 
REMARK  10 active torsions:
REMARK  status: ('A' for Active; 'I' for Inactive)
REMARK    1  A    between atoms: C_1  and  C_2
REMARK    2  A    between atoms: C_5  and  O_6
REMARK    3  A    between atoms: O_6  and  C_7
REMARK    4  A    between atoms: C_7  and  C_8
REMARK    5  A    between atoms: C_10  and  N_11
REMARK    6  A    between atoms: C_13  and  C_14
REMARK    7  A    between atoms: C_14  and  N_15
REMARK    8  A    between atoms: C_26  and  O_27
REMARK    9  A    between atoms: O_27  and  C_28
REMARK   10  A    between atoms: C_31  and  C_32
REMARK                            x       y       z     vdW  Elec       q    Type
REMARK                         _______ _______ _______ _____ _____    ______ ____
ROOT
ATOM      1  C   UNL     1      -0.252  11.430  18.280  0.00  0.00    +0.000 C 
ATOM      2  O   UNL     1      -0.331  12.876  18.288  0.00  0.00    +0.000 OA
ATOM      3  C   UNL     1       0.925  13.414  18.751  0.00  0.00    +0.000 C 
ATOM      4  C   UNL     1       1.940  12.307  18.540  0.00  0.00    +0.000 C 
ATOM      5  C   UNL     1       1.133  11.053  18.812  0.00  0.00    +0.000 C 
ENDROOT
BRANCH   3   6
ATOM      6  N   UNL     1       0.750  13.864  20.126  0.00  0.00    +0.000 N 
ATOM      7  C   UNL     1      -0.418  14.182  20.751  0.00  0.00    +0.000 A 
ATOM      8  C   UNL     1      -0.045  14.498  22.038  0.00  0.00    +0.000 A 
ATOM      9  N   UNL     1       1.321  14.404  22.137  0.00  0.00    +0.000 NA
ATOM     10  N   UNL     1       1.799  14.028  20.957  0.00  0.00    +0.000 NA
BRANCH   8  11
ATOM     11  C   UNL     1      -0.896  14.869  23.200  0.00  0.00    +0.000 C 
BRANCH  11  12
ATOM     12  N   UNL     1      -2.208  14.244  23.083  0.00  0.00    +0.000 N 
ATOM     13  C   UNL     1      -3.302  15.007  22.748  0.00  0.00    +0.000 A 
ATOM     14  C   UNL     1      -4.503  14.454  22.599  0.00  0.00    +0.000 A 
ATOM     15  C   UNL     1      -4.565  12.992  22.796  0.00  0.00    +0.000 A 
ATOM     16  N   UNL     1      -5.754  12.338  22.631  0.00  0.00    +0.000 N 
ATOM     17  N   UNL     1      -3.537  12.269  23.112  0.00  0.00    +0.000 NA
ATOM     18  C   UNL     1      -2.307  12.863  23.276  0.00  0.00    +0.000 A 
ATOM     19  O   UNL     1      -1.323  12.190  23.580  0.00  0.00    +0.000 OA
ATOM     20  H   UNL     1      -6.389  12.710  21.938  0.00  0.00    +0.000 HD
ATOM     21  H   UNL     1      -5.622  11.334  22.551  0.00  0.00    +0.000 HD
ENDBRANCH  11  12
ENDBRANCH   8  11
ENDBRANCH   3   6
BRANCH   1  22
ATOM     22  C   UNL     1      -1.387  10.827  19.130  0.00  0.00    +0.000 C 
BRANCH  22  23
ATOM     23  O   UNL     1      -2.446  10.429  18.251  0.00  0.00    +0.000 OA
BRANCH  23  28
ATOM     24  C   UNL     1      -7.273  13.365  17.711  0.00  0.00    +0.000 C 
ATOM     25  C   UNL     1      -5.955  12.659  17.861  0.00  0.00    +0.000 A 
ATOM     26  C   UNL     1      -5.397  11.957  16.789  0.00  0.00    +0.000 A 
ATOM     27  C   UNL     1      -4.206  11.246  16.959  0.00  0.00    +0.000 A 
ATOM     28  C   UNL     1      -3.547  11.236  18.190  0.00  0.00    +0.000 A 
ATOM     29  C   UNL     1      -4.086  11.951  19.258  0.00  0.00    +0.000 A 
ATOM     30  C   UNL     1      -5.286  12.658  19.091  0.00  0.00    +0.000 A 
ENDBRANCH  23  28
ENDBRANCH  22  23
ENDBRANCH   1  22
BRANCH   5  31
ATOM     31  O   UNL     1       1.712   9.975  18.076  0.00  0.00    +0.000 OA
BRANCH  31  32
ATOM     32  C   UNL     1       1.862   8.781  18.721  0.00  0.00    +0.000 A 
ATOM     33  C   UNL     1       2.550   7.790  18.017  0.00  0.00    +0.000 A 
ATOM     34  C   UNL     1       2.744   6.524  18.580  0.00  0.00    +0.000 A 
ATOM     35  C   UNL     1       2.257   6.242  19.859  0.00  0.00    +0.000 A 
ATOM     36  C   UNL     1       2.414   4.884  20.475  0.00  0.00    +0.000 C 
ATOM     37  C   UNL     1       1.623   7.257  20.582  0.00  0.00    +0.000 A 
ATOM     38  C   UNL     1       1.441   8.524  20.023  0.00  0.00    +0.000 A 
ENDBRANCH  31  32
ENDBRANCH   5  31
TORSDOF 8
ENDMDL
MODEL 9
REMARK VINA RESULT:      -7.6      5.079      7.939
REMARK  Name = 
REMARK  10 active torsions:
REMARK  status: ('A' for Active; 'I' for Inactive)
REMARK    1  A    between atoms: C_1  and  C_2
REMARK    2  A    between atoms: C_5  and  O_6
REMARK    3  A    between atoms: O_6  and  C_7
REMARK    4  A    between atoms: C_7  and  C_8
REMARK    5  A    between atoms: C_10  and  N_11
REMARK    6  A    between atoms: C_13  and  C_14
REMARK    7  A    between atoms: C_14  and  N_15
REMARK    8  A    between atoms: C_26  and  O_27
REMARK    9  A    between atoms: O_27  and  C_28
REMARK   10  A    between atoms: C_31  and  C_32
REMARK                            x       y       z     vdW  Elec       q    Type
REMARK                         _______ _______ _______ _____ _____    ______ ____
ROOT
ATOM      1  C   UNL     1      -1.722  13.382  21.637  0.00  0.00    +0.000 C 
ATOM      2  O   UNL     1      -2.911  14.107  22.033  0.00  0.00    +0.000 OA
ATOM      3  C   UNL     1      -3.676  13.295  22.947  0.00  0.00    +0.000 C 
ATOM      4  C   UNL     1      -2.695  12.280  23.503  0.00  0.00    +0.000 C 
ATOM      5  C   UNL     1      -1.781  12.014  22.324  0.00  0.00    +0.000 C 
ENDROOT
BRANCH   3   6
ATOM      6  N   UNL     1      -4.818  12.747  22.226  0.00  0.00    +0.000 N 
ATOM      7  C   UNL     1      -4.935  12.557  20.882  0.00  0.00    +0.000 A 
ATOM      8  C   UNL     1      -6.173  11.978  20.723  0.00  0.00    +0.000 A 
ATOM      9  N   UNL     1      -6.775  11.877  21.952  0.00  0.00    +0.000 NA
ATOM     10  N   UNL     1      -5.942  12.364  22.864  0.00  0.00    +0.000 NA
BRANCH   8  11
ATOM     11  C   UNL     1      -6.831  11.490  19.481  0.00  0.00    +0.000 C 
BRANCH  11  12
ATOM     12  N   UNL     1      -5.850  11.356  18.411  0.00  0.00    +0.000 N 
ATOM     13  C   UNL     1      -4.950  10.316  18.435  0.00  0.00    +0.000 A 
ATOM     14  C   UNL     1      -4.070  10.150  17.450  0.00  0.00    +0.000 A 
ATOM     15  C   UNL     1      -4.144  11.132  16.351  0.00  0.00    +0.000 A 
ATOM     16  N   UNL     1      -3.296  11.018  15.284  0.00  0.00    +0.000 N 
ATOM     17  N   UNL     1      -4.989  12.114  16.325  0.00  0.00    +0.000 NA
ATOM     18  C   UNL     1      -5.882  12.276  17.359  0.00  0.00    +0.000 A 
ATOM     19  O   UNL     1      -6.687  13.206  17.350  0.00  0.00    +0.000 OA
ATOM     20  H   UNL     1      -3.025  10.081  15.013  0.00  0.00    +0.000 HD
ATOM     21  H   UNL     1      -3.602  11.586  14.499  0.00  0.00    +0.000 HD
ENDBRANCH  11  12
ENDBRANCH   8  11
ENDBRANCH   3   6
BRANCH   1  22
ATOM     22  C   UNL     1      -1.654  13.259  20.102  0.00  0.00    +0.000 C 
BRANCH  22  23
ATOM     23  O   UNL     1      -0.285  13.384  19.701  0.00  0.00    +0.000 OA
BRANCH  23  28
ATOM     24  C   UNL     1       1.896   8.652  17.450  0.00  0.00    +0.000 C 
ATOM     25  C   UNL     1       1.358   9.887  18.115  0.00  0.00    +0.000 A 
ATOM     26  C   UNL     1      -0.006  10.007  18.398  0.00  0.00    +0.000 A 
ATOM     27  C   UNL     1      -0.507  11.187  18.954  0.00  0.00    +0.000 A 
ATOM     28  C   UNL     1       0.341  12.257  19.249  0.00  0.00    +0.000 A 
ATOM     29  C   UNL     1       1.706  12.136  18.991  0.00  0.00    +0.000 A 
ATOM     30  C   UNL     1       2.209  10.955  18.425  0.00  0.00    +0.000 A 
ENDBRANCH  23  28
ENDBRANCH  22  23
ENDBRANCH   1  22
BRANCH   5  31
ATOM     31  O   UNL     1      -0.504  11.613  22.824  0.00  0.00    +0.000 OA
BRANCH  31  32
ATOM     32  C   UNL     1       0.033  10.461  22.327  0.00  0.00    +0.000 A 
ATOM     33  C   UNL     1      -0.873   9.437  22.046  0.00  0.00    +0.000 A 
ATOM     34  C   UNL     1      -0.425   8.208  21.549  0.00  0.00    +0.000 A 
ATOM     35  C   UNL     1       0.938   7.998  21.321  0.00  0.00    +0.000 A 
ATOM     36  C   UNL     1       1.455   6.680  20.827  0.00  0.00    +0.000 C 
ATOM     37  C   UNL     1       1.833   9.048  21.547  0.00  0.00    +0.000 A 
ATOM     38  C   UNL     1       1.381  10.278  22.032  0.00  0.00    +0.000 A 
ENDBRANCH  31  32
ENDBRANCH   5  31
TORSDOF 8
ENDMDL
