MODEL 1
REMARK VINA RESULT:      -7.8      0.000      0.000
REMARK  Name = 
REMARK  6 active torsions:
REMARK  status: ('A' for Active; 'I' for Inactive)
REMARK    1  A    between atoms: C_6  and  O_7
REMARK    2  A    between atoms: C_8  and  O_9
REMARK    3  A    between atoms: C_10  and  N_11
REMARK    4  A    between atoms: C_15  and  C_16
REMARK    5  A    between atoms: C_16  and  N_17
REMARK    6  A    between atoms: N_20  and  C_21
REMARK                            x       y       z     vdW  Elec       q    Type
REMARK                         _______ _______ _______ _____ _____    ______ ____
ROOT
ATOM      1  O   UNL     1       5.135   5.508  19.727  0.00  0.00    +0.000 OA
ATOM      2  C   UNL     1       4.526   5.137  18.744  0.00  0.00    +0.000 C 
ATOM      3  C   UNL     1       5.135   4.905  17.441  0.00  0.00    +0.000 A 
ATOM      4  C   UNL     1       4.273   4.070  16.731  0.00  0.00    +0.000 A 
ATOM      5  C   UNL     1       4.633   3.595  15.478  0.00  0.00    +0.000 A 
ATOM      6  C   UNL     1       5.844   4.032  14.940  0.00  0.00    +0.000 A 
ATOM      7  C   UNL     1       6.666   4.952  15.616  0.00  0.00    +0.000 A 
ATOM      8  C   UNL     1       6.308   5.384  16.888  0.00  0.00    +0.000 A 
ATOM      9  C   UNL     1       3.024   3.769  17.511  0.00  0.00    +0.000 C 
ATOM     10  C   UNL     1       3.047   4.804  18.659  0.00  0.00    +0.000 C 
ENDROOT
BRANCH   8  11
ATOM     11  N   UNL     1       7.042   6.430  17.550  0.00  0.00    +0.000 N 
ATOM     12  O   UNL     1       6.835   7.586  17.154  0.00  0.00    +0.000 OA
ATOM     13  O   UNL     1       7.833   6.098  18.443  0.00  0.00    +0.000 OA
ENDBRANCH   8  11
BRANCH   6  14
ATOM     14  O   UNL     1       6.276   3.599  13.714  0.00  0.00    +0.000 OA
ATOM     15  H   UNL     1       6.601   2.685  13.804  0.00  0.00    +0.000 HD
ENDBRANCH   6  14
BRANCH   7  16
ATOM     16  O   UNL     1       7.784   5.410  14.976  0.00  0.00    +0.000 OA
ATOM     17  H   UNL     1       7.465   6.035  14.291  0.00  0.00    +0.000 HD
ENDBRANCH   7  16
BRANCH  10  18
ATOM     18  C   UNL     1       2.309   6.126  18.362  0.00  0.00    +0.000 C 
BRANCH  18  19
ATOM     19  N   UNL     1       2.959   7.360  18.849  0.00  0.00    +0.000 NA
ATOM     20  C   UNL     1       2.941   8.476  17.871  0.00  0.00    +0.000 C 
ATOM     21  C   UNL     1       1.541   9.068  17.556  0.00  0.00    +0.000 C 
ATOM     22  N   UNL     1       0.823   9.455  18.783  0.00  0.00    +0.000 N 
ATOM     23  C   UNL     1       0.835   8.423  19.848  0.00  0.00    +0.000 C 
ATOM     24  C   UNL     1       2.264   7.856  20.068  0.00  0.00    +0.000 C 
BRANCH  22  25
ATOM     25  C   UNL     1      -0.378  10.193  18.712  0.00  0.00    +0.000 A 
ATOM     26  C   UNL     1      -1.235   9.898  17.625  0.00  0.00    +0.000 A 
ATOM     27  C   UNL     1      -2.463  10.535  17.420  0.00  0.00    +0.000 A 
ATOM     28  C   UNL     1      -2.895  11.500  18.316  0.00  0.00    +0.000 A 
ATOM     29  C   UNL     1      -2.093  11.819  19.409  0.00  0.00    +0.000 A 
ATOM     30  C   UNL     1      -0.853  11.181  19.609  0.00  0.00    +0.000 A 
ATOM     31 CL   UNL     1       0.017  11.772  20.987  0.00  0.00    +0.000 Cl
ENDBRANCH  22  25
ENDBRANCH  18  19
ENDBRANCH  10  18
TORSDOF 6
ENDMDL
MODEL 2
REMARK VINA RESULT:      -7.5      5.500      9.804
REMARK  Name = 
REMARK  6 active torsions:
REMARK  status: ('A' for Active; 'I' for Inactive)
REMARK    1  A    between atoms: C_6  and  O_7
REMARK    2  A    between atoms: C_8  and  O_9
REMARK    3  A    between atoms: C_10  and  N_11
REMARK    4  A    between atoms: C_15  and  C_16
REMARK    5  A    between atoms: C_16  and  N_17
REMARK    6  A    between atoms: N_20  and  C_21
REMARK                            x       y       z     vdW  Elec       q    Type
REMARK                         _______ _______ _______ _____ _____    ______ ____
ROOT
ATOM      1  O   UNL     1      -1.143  13.100  19.161  0.00  0.00    +0.000 OA
ATOM      2  C   UNL     1      -1.682  12.089  18.759  0.00  0.00    +0.000 C 
ATOM      3  C   UNL     1      -3.110  11.822  18.873  0.00  0.00    +0.000 A 
ATOM      4  C   UNL     1      -3.419  10.846  17.925  0.00  0.00    +0.000 A 
ATOM      5  C   UNL     1      -4.734  10.450  17.731  0.00  0.00    +0.000 A 
ATOM      6  C   UNL     1      -5.711  11.012  18.555  0.00  0.00    +0.000 A 
ATOM      7  C   UNL     1      -5.384  11.921  19.577  0.00  0.00    +0.000 A 
ATOM      8  C   UNL     1      -4.066  12.337  19.728  0.00  0.00    +0.000 A 
ATOM      9  C   UNL     1      -2.193  10.380  17.189  0.00  0.00    +0.000 C 
ATOM     10  C   UNL     1      -1.023  10.928  18.038  0.00  0.00    +0.000 C 
ENDROOT
BRANCH   8  11
ATOM     11  N   UNL     1      -3.669  13.150  20.846  0.00  0.00    +0.000 N 
ATOM     12  O   UNL     1      -3.861  14.370  20.739  0.00  0.00    +0.000 OA
ATOM     13  O   UNL     1      -3.148  12.579  21.814  0.00  0.00    +0.000 OA
ENDBRANCH   8  11
BRANCH   6  14
ATOM     14  O   UNL     1      -7.033  10.683  18.417  0.00  0.00    +0.000 OA
ATOM     15  H   UNL     1      -7.275  10.753  17.476  0.00  0.00    +0.000 HD
ENDBRANCH   6  14
BRANCH   7  16
ATOM     16  O   UNL     1      -6.384  12.346  20.406  0.00  0.00    +0.000 OA
ATOM     17  H   UNL     1      -6.905  12.996  19.890  0.00  0.00    +0.000 HD
ENDBRANCH   7  16
BRANCH  10  18
ATOM     18  C   UNL     1      -0.498   9.967  19.125  0.00  0.00    +0.000 C 
BRANCH  18  19
ATOM     19  N   UNL     1       0.904  10.164  19.547  0.00  0.00    +0.000 NA
ATOM     20  C   UNL     1       1.378   9.173  20.544  0.00  0.00    +0.000 C 
ATOM     21  C   UNL     1       1.500   7.713  20.032  0.00  0.00    +0.000 C 
ATOM     22  N   UNL     1       2.314   7.631  18.806  0.00  0.00    +0.000 N 
ATOM     23  C   UNL     1       1.955   8.626  17.768  0.00  0.00    +0.000 C 
ATOM     24  C   UNL     1       1.812  10.048  18.374  0.00  0.00    +0.000 C 
BRANCH  22  25
ATOM     25  C   UNL     1       2.714   6.379  18.290  0.00  0.00    +0.000 A 
ATOM     26  C   UNL     1       1.804   5.309  18.460  0.00  0.00    +0.000 A 
ATOM     27  C   UNL     1       2.049   4.012  17.996  0.00  0.00    +0.000 A 
ATOM     28  C   UNL     1       3.228   3.733  17.325  0.00  0.00    +0.000 A 
ATOM     29  C   UNL     1       4.152   4.755  17.122  0.00  0.00    +0.000 A 
ATOM     30  C   UNL     1       3.906   6.060  17.596  0.00  0.00    +0.000 A 
ATOM     31 CL   UNL     1       5.211   7.162  17.301  0.00  0.00    +0.000 Cl
ENDBRANCH  22  25
ENDBRANCH  18  19
ENDBRANCH  10  18
TORSDOF 6
ENDMDL
MODEL 3
REMARK VINA RESULT:      -7.3      5.607      9.918
REMARK  Name = 
REMARK  6 active torsions:
REMARK  status: ('A' for Active; 'I' for Inactive)
REMARK    1  A    between atoms: C_6  and  O_7
REMARK    2  A    between atoms: C_8  and  O_9
REMARK    3  A    between atoms: C_10  and  N_11
REMARK    4  A    between atoms: C_15  and  C_16
REMARK    5  A    between atoms: C_16  and  N_17
REMARK    6  A    between atoms: N_20  and  C_21
REMARK                            x       y       z     vdW  Elec       q    Type
REMARK                         _______ _______ _______ _____ _____    ______ ____
ROOT
ATOM      1  O   UNL     1      -1.284  13.198  19.148  0.00  0.00    +0.000 OA
ATOM      2  C   UNL     1      -1.818  12.177  18.763  0.00  0.00    +0.000 C 
ATOM      3  C   UNL     1      -3.242  11.897  18.898  0.00  0.00    +0.000 A 
ATOM      4  C   UNL     1      -3.552  10.909  17.964  0.00  0.00    +0.000 A 
ATOM      5  C   UNL     1      -4.866  10.497  17.790  0.00  0.00    +0.000 A 
ATOM      6  C   UNL     1      -5.838  11.058  18.620  0.00  0.00    +0.000 A 
ATOM      7  C   UNL     1      -5.508  11.981  19.628  0.00  0.00    +0.000 A 
ATOM      8  C   UNL     1      -4.192  12.412  19.759  0.00  0.00    +0.000 A 
ATOM      9  C   UNL     1      -2.331  10.446  17.218  0.00  0.00    +0.000 C 
ATOM     10  C   UNL     1      -1.156  11.015  18.046  0.00  0.00    +0.000 C 
ENDROOT
BRANCH   8  11
ATOM     11  N   UNL     1      -3.789  13.241  20.864  0.00  0.00    +0.000 N 
ATOM     12  O   UNL     1      -4.007  14.456  20.751  0.00  0.00    +0.000 OA
ATOM     13  O   UNL     1      -3.239  12.687  21.825  0.00  0.00    +0.000 OA
ENDBRANCH   8  11
BRANCH   6  14
ATOM     14  O   UNL     1      -7.159  10.714  18.502  0.00  0.00    +0.000 OA
ATOM     15  H   UNL     1      -7.297   9.854  18.938  0.00  0.00    +0.000 HD
ENDBRANCH   6  14
BRANCH   7  16
ATOM     16  O   UNL     1      -6.502  12.404  20.466  0.00  0.00    +0.000 OA
ATOM     17  H   UNL     1      -7.053  11.615  20.650  0.00  0.00    +0.000 HD
ENDBRANCH   7  16
BRANCH  10  18
ATOM     18  C   UNL     1      -0.608  10.071  19.136  0.00  0.00    +0.000 C 
BRANCH  18  19
ATOM     19  N   UNL     1       0.765  10.345  19.606  0.00  0.00    +0.000 NA
ATOM     20  C   UNL     1       1.102   9.694  20.896  0.00  0.00    +0.000 C 
ATOM     21  C   UNL     1       1.181   8.145  20.864  0.00  0.00    +0.000 C 
ATOM     22  N   UNL     1       2.083   7.665  19.801  0.00  0.00    +0.000 N 
ATOM     23  C   UNL     1       1.863   8.304  18.481  0.00  0.00    +0.000 C 
ATOM     24  C   UNL     1       1.754   9.847  18.611  0.00  0.00    +0.000 C 
BRANCH  22  25
ATOM     25  C   UNL     1       2.449   6.304  19.728  0.00  0.00    +0.000 A 
ATOM     26  C   UNL     1       1.764   5.421  20.595  0.00  0.00    +0.000 A 
ATOM     27  C   UNL     1       2.006   4.043  20.636  0.00  0.00    +0.000 A 
ATOM     28  C   UNL     1       2.950   3.485  19.789  0.00  0.00    +0.000 A 
ATOM     29  C   UNL     1       3.643   4.312  18.907  0.00  0.00    +0.000 A 
ATOM     30  C   UNL     1       3.403   5.700  18.873  0.00  0.00    +0.000 A 
ATOM     31 CL   UNL     1       4.419   6.552  17.757  0.00  0.00    +0.000 Cl
ENDBRANCH  22  25
ENDBRANCH  18  19
ENDBRANCH  10  18
TORSDOF 6
ENDMDL
MODEL 4
REMARK VINA RESULT:      -7.2      5.524      9.901
REMARK  Name = 
REMARK  6 active torsions:
REMARK  status: ('A' for Active; 'I' for Inactive)
REMARK    1  A    between atoms: C_6  and  O_7
REMARK    2  A    between atoms: C_8  and  O_9
REMARK    3  A    between atoms: C_10  and  N_11
REMARK    4  A    between atoms: C_15  and  C_16
REMARK    5  A    between atoms: C_16  and  N_17
REMARK    6  A    between atoms: N_20  and  C_21
REMARK                            x       y       z     vdW  Elec       q    Type
REMARK                         _______ _______ _______ _____ _____    ______ ____
ROOT
ATOM      1  O   UNL     1      -1.229  13.092  18.987  0.00  0.00    +0.000 OA
ATOM      2  C   UNL     1      -1.816  12.077  18.669  0.00  0.00    +0.000 C 
ATOM      3  C   UNL     1      -3.243  11.860  18.870  0.00  0.00    +0.000 A 
ATOM      4  C   UNL     1      -3.627  10.844  17.994  0.00  0.00    +0.000 A 
ATOM      5  C   UNL     1      -4.962  10.478  17.888  0.00  0.00    +0.000 A 
ATOM      6  C   UNL     1      -5.878  11.113  18.728  0.00  0.00    +0.000 A 
ATOM      7  C   UNL     1      -5.474  12.066  19.680  0.00  0.00    +0.000 A 
ATOM      8  C   UNL     1      -4.139  12.450  19.741  0.00  0.00    +0.000 A 
ATOM      9  C   UNL     1      -2.455  10.301  17.225  0.00  0.00    +0.000 C 
ATOM     10  C   UNL     1      -1.227  10.859  17.981  0.00  0.00    +0.000 C 
ENDROOT
BRANCH   8  11
ATOM     11  N   UNL     1      -3.662  13.310  20.791  0.00  0.00    +0.000 N 
ATOM     12  O   UNL     1      -3.097  12.756  21.745  0.00  0.00    +0.000 OA
ATOM     13  O   UNL     1      -3.868  14.526  20.674  0.00  0.00    +0.000 OA
ENDBRANCH   8  11
BRANCH   6  14
ATOM     14  O   UNL     1      -7.215  10.817  18.675  0.00  0.00    +0.000 OA
ATOM     15  H   UNL     1      -7.618  11.327  17.950  0.00  0.00    +0.000 HD
ENDBRANCH   6  14
BRANCH   7  16
ATOM     16  O   UNL     1      -6.418  12.565  20.534  0.00  0.00    +0.000 OA
ATOM     17  H   UNL     1      -6.031  12.497  21.432  0.00  0.00    +0.000 HD
ENDBRANCH   7  16
BRANCH  10  18
ATOM     18  C   UNL     1      -0.673   9.943  19.093  0.00  0.00    +0.000 C 
BRANCH  18  19
ATOM     19  N   UNL     1       0.680  10.266  19.589  0.00  0.00    +0.000 NA
ATOM     20  C   UNL     1       1.146   9.382  20.686  0.00  0.00    +0.000 C 
ATOM     21  C   UNL     1       1.397   7.903  20.293  0.00  0.00    +0.000 C 
ATOM     22  N   UNL     1       2.299   7.791  19.133  0.00  0.00    +0.000 N 
ATOM     23  C   UNL     1       1.950   8.684  18.002  0.00  0.00    +0.000 C 
ATOM     24  C   UNL     1       1.673  10.132  18.489  0.00  0.00    +0.000 C 
BRANCH  22  25
ATOM     25  C   UNL     1       2.814   6.538  18.739  0.00  0.00    +0.000 A 
ATOM     26  C   UNL     1       3.736   6.545  17.665  0.00  0.00    +0.000 A 
ATOM     27  C   UNL     1       4.342   5.388  17.165  0.00  0.00    +0.000 A 
ATOM     28  C   UNL     1       4.052   4.159  17.735  0.00  0.00    +0.000 A 
ATOM     29  C   UNL     1       3.159   4.099  18.802  0.00  0.00    +0.000 A 
ATOM     30  C   UNL     1       2.545   5.266  19.300  0.00  0.00    +0.000 A 
ATOM     31 CL   UNL     1       1.417   4.963  20.581  0.00  0.00    +0.000 Cl
ENDBRANCH  22  25
ENDBRANCH  18  19
ENDBRANCH  10  18
TORSDOF 6
ENDMDL
MODEL 5
REMARK VINA RESULT:      -7.2      1.125      1.171
REMARK  Name = 
REMARK  6 active torsions:
REMARK  status: ('A' for Active; 'I' for Inactive)
REMARK    1  A    between atoms: C_6  and  O_7
REMARK    2  A    between atoms: C_8  and  O_9
REMARK    3  A    between atoms: C_10  and  N_11
REMARK    4  A    between atoms: C_15  and  C_16
REMARK    5  A    between atoms: C_16  and  N_17
REMARK    6  A    between atoms: N_20  and  C_21
REMARK                            x       y       z     vdW  Elec       q    Type
REMARK                         _______ _______ _______ _____ _____    ______ ____
ROOT
ATOM      1  O   UNL     1       4.193   4.703  20.297  0.00  0.00    +0.000 OA
ATOM      2  C   UNL     1       3.786   4.568  19.160  0.00  0.00    +0.000 C 
ATOM      3  C   UNL     1       4.647   4.396  17.997  0.00  0.00    +0.000 A 
ATOM      4  C   UNL     1       3.867   3.820  16.995  0.00  0.00    +0.000 A 
ATOM      5  C   UNL     1       4.441   3.447  15.788  0.00  0.00    +0.000 A 
ATOM      6  C   UNL     1       5.794   3.729  15.598  0.00  0.00    +0.000 A 
ATOM      7  C   UNL     1       6.555   4.400  16.572  0.00  0.00    +0.000 A 
ATOM      8  C   UNL     1       5.973   4.727  17.791  0.00  0.00    +0.000 A 
ATOM      9  C   UNL     1       2.439   3.647  17.433  0.00  0.00    +0.000 C 
ATOM     10  C   UNL     1       2.338   4.513  18.710  0.00  0.00    +0.000 C 
ENDROOT
BRANCH   8  11
ATOM     11  N   UNL     1       6.670   5.538  18.753  0.00  0.00    +0.000 N 
ATOM     12  O   UNL     1       6.883   6.716  18.431  0.00  0.00    +0.000 OA
ATOM     13  O   UNL     1       7.022   4.998  19.810  0.00  0.00    +0.000 OA
ENDBRANCH   8  11
BRANCH   6  14
ATOM     14  O   UNL     1       6.438   3.381  14.439  0.00  0.00    +0.000 OA
ATOM     15  H   UNL     1       6.750   2.462  14.520  0.00  0.00    +0.000 HD
ENDBRANCH   6  14
BRANCH   7  16
ATOM     16  O   UNL     1       7.847   4.730  16.267  0.00  0.00    +0.000 OA
ATOM     17  H   UNL     1       8.137   4.083  15.590  0.00  0.00    +0.000 HD
ENDBRANCH   7  16
BRANCH  10  18
ATOM     18  C   UNL     1       1.886   5.970  18.478  0.00  0.00    +0.000 C 
BRANCH  18  19
ATOM     19  N   UNL     1       2.793   7.022  18.981  0.00  0.00    +0.000 NA
ATOM     20  C   UNL     1       3.074   8.096  17.997  0.00  0.00    +0.000 C 
ATOM     21  C   UNL     1       1.867   8.998  17.627  0.00  0.00    +0.000 C 
ATOM     22  N   UNL     1       1.219   9.562  18.825  0.00  0.00    +0.000 N 
ATOM     23  C   UNL     1       0.950   8.572  19.896  0.00  0.00    +0.000 C 
ATOM     24  C   UNL     1       2.195   7.685  20.171  0.00  0.00    +0.000 C 
BRANCH  22  25
ATOM     25  C   UNL     1       0.231  10.562  18.706  0.00  0.00    +0.000 A 
ATOM     26  C   UNL     1      -1.098  10.115  18.517  0.00  0.00    +0.000 A 
ATOM     27  C   UNL     1      -2.190  10.981  18.392  0.00  0.00    +0.000 A 
ATOM     28  C   UNL     1      -1.993  12.351  18.461  0.00  0.00    +0.000 A 
ATOM     29  C   UNL     1      -0.704  12.842  18.657  0.00  0.00    +0.000 A 
ATOM     30  C   UNL     1       0.395  11.967  18.777  0.00  0.00    +0.000 A 
ATOM     31 CL   UNL     1       1.915  12.784  18.945  0.00  0.00    +0.000 Cl
ENDBRANCH  22  25
ENDBRANCH  18  19
ENDBRANCH  10  18
TORSDOF 6
ENDMDL
MODEL 6
REMARK VINA RESULT:      -7.1      1.186      1.621
REMARK  Name = 
REMARK  6 active torsions:
REMARK  status: ('A' for Active; 'I' for Inactive)
REMARK    1  A    between atoms: C_6  and  O_7
REMARK    2  A    between atoms: C_8  and  O_9
REMARK    3  A    between atoms: C_10  and  N_11
REMARK    4  A    between atoms: C_15  and  C_16
REMARK    5  A    between atoms: C_16  and  N_17
REMARK    6  A    between atoms: N_20  and  C_21
REMARK                            x       y       z     vdW  Elec       q    Type
REMARK                         _______ _______ _______ _____ _____    ______ ____
ROOT
ATOM      1  O   UNL     1       4.311   5.127  20.094  0.00  0.00    +0.000 OA
ATOM      2  C   UNL     1       3.863   4.904  18.987  0.00  0.00    +0.000 C 
ATOM      3  C   UNL     1       4.680   4.625  17.813  0.00  0.00    +0.000 A 
ATOM      4  C   UNL     1       3.860   3.977  16.890  0.00  0.00    +0.000 A 
ATOM      5  C   UNL     1       4.387   3.498  15.700  0.00  0.00    +0.000 A 
ATOM      6  C   UNL     1       5.735   3.746  15.440  0.00  0.00    +0.000 A 
ATOM      7  C   UNL     1       6.537   4.486  16.327  0.00  0.00    +0.000 A 
ATOM      8  C   UNL     1       6.001   4.921  17.534  0.00  0.00    +0.000 A 
ATOM      9  C   UNL     1       2.446   3.860  17.390  0.00  0.00    +0.000 C 
ATOM     10  C   UNL     1       2.399   4.830  18.593  0.00  0.00    +0.000 C 
ENDROOT
BRANCH   8  11
ATOM     11  N   UNL     1       6.741   5.800  18.401  0.00  0.00    +0.000 N 
ATOM     12  O   UNL     1       7.230   5.289  19.419  0.00  0.00    +0.000 OA
ATOM     13  O   UNL     1       6.813   6.994  18.079  0.00  0.00    +0.000 OA
ENDBRANCH   8  11
BRANCH   6  14
ATOM     14  O   UNL     1       6.334   3.295  14.293  0.00  0.00    +0.000 OA
ATOM     15  H   UNL     1       5.880   2.483  14.004  0.00  0.00    +0.000 HD
ENDBRANCH   6  14
BRANCH   7  16
ATOM     16  O   UNL     1       7.820   4.773  15.952  0.00  0.00    +0.000 OA
ATOM     17  H   UNL     1       8.207   3.926  15.648  0.00  0.00    +0.000 HD
ENDBRANCH   7  16
BRANCH  10  18
ATOM     18  C   UNL     1       1.954   6.268  18.256  0.00  0.00    +0.000 C 
BRANCH  18  19
ATOM     19  N   UNL     1       2.738   7.356  18.876  0.00  0.00    +0.000 NA
ATOM     20  C   UNL     1       2.783   8.601  18.071  0.00  0.00    +0.000 C 
ATOM     21  C   UNL     1       1.433   9.352  17.924  0.00  0.00    +0.000 C 
ATOM     22  N   UNL     1       0.809   9.615  19.233  0.00  0.00    +0.000 N 
ATOM     23  C   UNL     1       0.771   8.441  20.137  0.00  0.00    +0.000 C 
ATOM     24  C   UNL     1       2.148   7.725  20.191  0.00  0.00    +0.000 C 
BRANCH  22  25
ATOM     25  C   UNL     1      -0.319  10.458  19.336  0.00  0.00    +0.000 A 
ATOM     26  C   UNL     1      -0.384  11.284  20.482  0.00  0.00    +0.000 A 
ATOM     27  C   UNL     1      -1.431  12.180  20.725  0.00  0.00    +0.000 A 
ATOM     28  C   UNL     1      -2.465  12.293  19.811  0.00  0.00    +0.000 A 
ATOM     29  C   UNL     1      -2.442  11.509  18.660  0.00  0.00    +0.000 A 
ATOM     30  C   UNL     1      -1.390  10.603  18.420  0.00  0.00    +0.000 A 
ATOM     31 CL   UNL     1      -1.589   9.676  16.968  0.00  0.00    +0.000 Cl
ENDBRANCH  22  25
ENDBRANCH  18  19
ENDBRANCH  10  18
TORSDOF 6
ENDMDL
MODEL 7
REMARK VINA RESULT:      -7.0      2.455      3.540
REMARK  Name = 
REMARK  6 active torsions:
REMARK  status: ('A' for Active; 'I' for Inactive)
REMARK    1  A    between atoms: C_6  and  O_7
REMARK    2  A    between atoms: C_8  and  O_9
REMARK    3  A    between atoms: C_10  and  N_11
REMARK    4  A    between atoms: C_15  and  C_16
REMARK    5  A    between atoms: C_16  and  N_17
REMARK    6  A    between atoms: N_20  and  C_21
REMARK                            x       y       z     vdW  Elec       q    Type
REMARK                         _______ _______ _______ _____ _____    ______ ____
ROOT
ATOM      1  O   UNL     1       1.008   5.055  17.749  0.00  0.00    +0.000 OA
ATOM      2  C   UNL     1       2.003   5.724  17.945  0.00  0.00    +0.000 C 
ATOM      3  C   UNL     1       3.308   5.171  18.284  0.00  0.00    +0.000 A 
ATOM      4  C   UNL     1       4.257   6.144  17.973  0.00  0.00    +0.000 A 
ATOM      5  C   UNL     1       5.611   5.869  18.101  0.00  0.00    +0.000 A 
ATOM      6  C   UNL     1       5.975   4.621  18.608  0.00  0.00    +0.000 A 
ATOM      7  C   UNL     1       5.015   3.678  19.014  0.00  0.00    +0.000 A 
ATOM      8  C   UNL     1       3.664   3.956  18.839  0.00  0.00    +0.000 A 
ATOM      9  C   UNL     1       3.612   7.409  17.476  0.00  0.00    +0.000 C 
ATOM     10  C   UNL     1       2.122   7.234  17.849  0.00  0.00    +0.000 C 
ENDROOT
BRANCH   8  11
ATOM     11  N   UNL     1       2.651   3.083  19.371  0.00  0.00    +0.000 N 
ATOM     12  O   UNL     1       2.148   3.417  20.454  0.00  0.00    +0.000 OA
ATOM     13  O   UNL     1       2.377   2.063  18.726  0.00  0.00    +0.000 OA
ENDBRANCH   8  11
BRANCH   6  14
ATOM     14  O   UNL     1       7.291   4.268  18.752  0.00  0.00    +0.000 OA
ATOM     15  H   UNL     1       7.600   3.872  17.918  0.00  0.00    +0.000 HD
ENDBRANCH   6  14
BRANCH   7  16
ATOM     16  O   UNL     1       5.453   2.521  19.596  0.00  0.00    +0.000 OA
ATOM     17  H   UNL     1       6.280   2.753  20.068  0.00  0.00    +0.000 HD
ENDBRANCH   7  16
BRANCH  10  18
ATOM     18  C   UNL     1       1.722   7.802  19.227  0.00  0.00    +0.000 C 
BRANCH  18  19
ATOM     19  N   UNL     1       1.962   9.245  19.432  0.00  0.00    +0.000 NA
ATOM     20  C   UNL     1       1.681  10.078  18.237  0.00  0.00    +0.000 C 
ATOM     21  C   UNL     1       0.192  10.156  17.809  0.00  0.00    +0.000 C 
ATOM     22  N   UNL     1      -0.678  10.563  18.927  0.00  0.00    +0.000 N 
ATOM     23  C   UNL     1      -0.431   9.825  20.190  0.00  0.00    +0.000 C 
ATOM     24  C   UNL     1       1.084   9.758  20.519  0.00  0.00    +0.000 C 
BRANCH  22  25
ATOM     25  C   UNL     1      -2.033  10.886  18.705  0.00  0.00    +0.000 A 
ATOM     26  C   UNL     1      -2.728  10.078  17.774  0.00  0.00    +0.000 A 
ATOM     27  C   UNL     1      -4.077  10.264  17.452  0.00  0.00    +0.000 A 
ATOM     28  C   UNL     1      -4.798  11.275  18.067  0.00  0.00    +0.000 A 
ATOM     29  C   UNL     1      -4.162  12.092  19.000  0.00  0.00    +0.000 A 
ATOM     30  C   UNL     1      -2.801  11.906  19.317  0.00  0.00    +0.000 A 
ATOM     31 CL   UNL     1      -2.188  13.070  20.447  0.00  0.00    +0.000 Cl
ENDBRANCH  22  25
ENDBRANCH  18  19
ENDBRANCH  10  18
TORSDOF 6
ENDMDL
MODEL 8
REMARK VINA RESULT:      -6.9      6.231     10.405
REMARK  Name = 
REMARK  6 active torsions:
REMARK  status: ('A' for Active; 'I' for Inactive)
REMARK    1  A    between atoms: C_6  and  O_7
REMARK    2  A    between atoms: C_8  and  O_9
REMARK    3  A    between atoms: C_10  and  N_11
REMARK    4  A    between atoms: C_15  and  C_16
REMARK    5  A    between atoms: C_16  and  N_17
REMARK    6  A    between atoms: N_20  and  C_21
REMARK                            x       y       z     vdW  Elec       q    Type
REMARK                         _______ _______ _______ _____ _____    ______ ____
ROOT
ATOM      1  O   UNL     1      -2.710  14.066  20.566  0.00  0.00    +0.000 OA
ATOM      2  C   UNL     1      -2.854  13.035  19.940  0.00  0.00    +0.000 C 
ATOM      3  C   UNL     1      -4.123  12.330  19.804  0.00  0.00    +0.000 A 
ATOM      4  C   UNL     1      -4.013  11.507  18.684  0.00  0.00    +0.000 A 
ATOM      5  C   UNL     1      -5.107  10.776  18.243  0.00  0.00    +0.000 A 
ATOM      6  C   UNL     1      -6.281  10.846  18.993  0.00  0.00    +0.000 A 
ATOM      7  C   UNL     1      -6.359  11.599  20.178  0.00  0.00    +0.000 A 
ATOM      8  C   UNL     1      -5.266  12.359  20.580  0.00  0.00    +0.000 A 
ATOM      9  C   UNL     1      -2.642  11.584  18.071  0.00  0.00    +0.000 C 
ATOM     10  C   UNL     1      -1.793  12.289  19.153  0.00  0.00    +0.000 C 
ENDROOT
BRANCH   8  11
ATOM     11  N   UNL     1      -5.255  13.025  21.856  0.00  0.00    +0.000 N 
ATOM     12  O   UNL     1      -5.614  14.211  21.862  0.00  0.00    +0.000 OA
ATOM     13  O   UNL     1      -4.869  12.376  22.837  0.00  0.00    +0.000 OA
ENDBRANCH   8  11
BRANCH   6  14
ATOM     14  O   UNL     1      -7.408  10.164  18.616  0.00  0.00    +0.000 OA
ATOM     15  H   UNL     1      -7.804   9.755  19.406  0.00  0.00    +0.000 HD
ENDBRANCH   6  14
BRANCH   7  16
ATOM     16  O   UNL     1      -7.512  11.534  20.909  0.00  0.00    +0.000 OA
ATOM     17  H   UNL     1      -7.458  10.701  21.424  0.00  0.00    +0.000 HD
ENDBRANCH   7  16
BRANCH  10  18
ATOM     18  C   UNL     1      -1.083  11.343  20.145  0.00  0.00    +0.000 C 
BRANCH  18  19
ATOM     19  N   UNL     1       0.370  11.545  20.312  0.00  0.00    +0.000 NA
ATOM     20  C   UNL     1       0.956  10.794  21.450  0.00  0.00    +0.000 C 
ATOM     21  C   UNL     1       0.958   9.250  21.304  0.00  0.00    +0.000 C 
ATOM     22  N   UNL     1       1.580   8.821  20.039  0.00  0.00    +0.000 N 
ATOM     23  C   UNL     1       1.101   9.557  18.844  0.00  0.00    +0.000 C 
ATOM     24  C   UNL     1       1.091  11.090  19.091  0.00  0.00    +0.000 C 
BRANCH  22  25
ATOM     25  C   UNL     1       1.862   7.459  19.800  0.00  0.00    +0.000 A 
ATOM     26  C   UNL     1       1.305   6.532  20.713  0.00  0.00    +0.000 A 
ATOM     27  C   UNL     1       1.484   5.148  20.608  0.00  0.00    +0.000 A 
ATOM     28  C   UNL     1       2.230   4.629  19.562  0.00  0.00    +0.000 A 
ATOM     29  C   UNL     1       2.790   5.499  18.630  0.00  0.00    +0.000 A 
ATOM     30  C   UNL     1       2.614   6.893  18.742  0.00  0.00    +0.000 A 
ATOM     31 CL   UNL     1       3.450   7.798  17.522  0.00  0.00    +0.000 Cl
ENDBRANCH  22  25
ENDBRANCH  18  19
ENDBRANCH  10  18
TORSDOF 6
ENDMDL
MODEL 9
REMARK VINA RESULT:      -6.9      2.826      4.659
REMARK  Name = 
REMARK  6 active torsions:
REMARK  status: ('A' for Active; 'I' for Inactive)
REMARK    1  A    between atoms: C_6  and  O_7
REMARK    2  A    between atoms: C_8  and  O_9
REMARK    3  A    between atoms: C_10  and  N_11
REMARK    4  A    between atoms: C_15  and  C_16
REMARK    5  A    between atoms: C_16  and  N_17
REMARK    6  A    between atoms: N_20  and  C_21
REMARK                            x       y       z     vdW  Elec       q    Type
REMARK                         _______ _______ _______ _____ _____    ______ ____
ROOT
ATOM      1  O   UNL     1       3.918   6.560  17.365  0.00  0.00    +0.000 OA
ATOM      2  C   UNL     1       3.116   6.574  18.277  0.00  0.00    +0.000 C 
ATOM      3  C   UNL     1       2.701   5.391  19.020  0.00  0.00    +0.000 A 
ATOM      4  C   UNL     1       2.175   5.836  20.233  0.00  0.00    +0.000 A 
ATOM      5  C   UNL     1       1.779   4.924  21.201  0.00  0.00    +0.000 A 
ATOM      6  C   UNL     1       1.867   3.567  20.890  0.00  0.00    +0.000 A 
ATOM      7  C   UNL     1       2.305   3.122  19.629  0.00  0.00    +0.000 A 
ATOM      8  C   UNL     1       2.737   4.050  18.688  0.00  0.00    +0.000 A 
ATOM      9  C   UNL     1       2.159   7.337  20.313  0.00  0.00    +0.000 C 
ATOM     10  C   UNL     1       2.413   7.788  18.857  0.00  0.00    +0.000 C 
ENDROOT
BRANCH   8  11
ATOM     11  N   UNL     1       3.054   3.650  17.343  0.00  0.00    +0.000 N 
ATOM     12  O   UNL     1       2.093   3.423  16.593  0.00  0.00    +0.000 OA
ATOM     13  O   UNL     1       4.251   3.540  17.045  0.00  0.00    +0.000 OA
ENDBRANCH   8  11
BRANCH   6  14
ATOM     14  O   UNL     1       1.508   2.604  21.797  0.00  0.00    +0.000 OA
ATOM     15  H   UNL     1       0.619   2.278  21.569  0.00  0.00    +0.000 HD
ENDBRANCH   6  14
BRANCH   7  16
ATOM     16  O   UNL     1       2.264   1.781  19.368  0.00  0.00    +0.000 OA
ATOM     17  H   UNL     1       3.065   1.401  19.785  0.00  0.00    +0.000 HD
ENDBRANCH   7  16
BRANCH  10  18
ATOM     18  C   UNL     1       1.142   8.014  18.011  0.00  0.00    +0.000 C 
BRANCH  18  19
ATOM     19  N   UNL     1       0.962   9.371  17.456  0.00  0.00    +0.000 NA
ATOM     20  C   UNL     1      -0.448   9.832  17.439  0.00  0.00    +0.000 C 
ATOM     21  C   UNL     1      -1.091  10.072  18.831  0.00  0.00    +0.000 C 
ATOM     22  N   UNL     1      -0.272  10.970  19.664  0.00  0.00    +0.000 N 
ATOM     23  C   UNL     1       1.170  10.625  19.696  0.00  0.00    +0.000 C 
ATOM     24  C   UNL     1       1.720  10.360  18.269  0.00  0.00    +0.000 C 
BRANCH  22  25
ATOM     25  C   UNL     1      -0.770  11.474  20.884  0.00  0.00    +0.000 A 
ATOM     26  C   UNL     1      -1.199  12.822  20.880  0.00  0.00    +0.000 A 
ATOM     27  C   UNL     1      -1.725  13.464  22.006  0.00  0.00    +0.000 A 
ATOM     28  C   UNL     1      -1.857  12.768  23.197  0.00  0.00    +0.000 A 
ATOM     29  C   UNL     1      -1.460  11.434  23.250  0.00  0.00    +0.000 A 
ATOM     30  C   UNL     1      -0.923  10.791  22.116  0.00  0.00    +0.000 A 
ATOM     31 CL   UNL     1      -0.429   9.156  22.414  0.00  0.00    +0.000 Cl
ENDBRANCH  22  25
ENDBRANCH  18  19
ENDBRANCH  10  18
TORSDOF 6
ENDMDL
