MODEL 1
REMARK VINA RESULT:      -7.6      0.000      0.000
REMARK  Name = 
REMARK  5 active torsions:
REMARK  status: ('A' for Active; 'I' for Inactive)
REMARK    1  A    between atoms: C_4  and  C_5
REMARK    2  A    between atoms: C_8  and  O_9
REMARK    3  A    between atoms: C_10  and  O_11
REMARK    4  A    between atoms: C_16  and  O_17
REMARK    5  A    between atoms: C_19  and  O_20
REMARK                            x       y       z     vdW  Elec       q    Type
REMARK                         _______ _______ _______ _____ _____    ______ ____
ROOT
ATOM      1  O   UNL     1       6.498   5.210  19.826  0.00  0.00    +0.000 OA
ATOM      2  C   UNL     1       5.800   5.617  18.906  0.00  0.00    +0.000 C 
ATOM      3  C   UNL     1       4.642   6.534  19.181  0.00  0.00    +0.000 C 
ATOM      4  C   UNL     1       3.526   6.242  18.187  0.00  0.00    +0.000 C 
ATOM      5  O   UNL     1       4.000   6.478  16.847  0.00  0.00    +0.000 OA
ATOM      6  C   UNL     1       5.156   5.808  16.530  0.00  0.00    +0.000 A 
ATOM      7  C   UNL     1       5.401   5.654  15.164  0.00  0.00    +0.000 A 
ATOM      8  C   UNL     1       6.515   4.936  14.748  0.00  0.00    +0.000 A 
ATOM      9  C   UNL     1       7.382   4.365  15.674  0.00  0.00    +0.000 A 
ATOM     10  C   UNL     1       7.153   4.547  17.038  0.00  0.00    +0.000 A 
ATOM     11  C   UNL     1       6.054   5.297  17.476  0.00  0.00    +0.000 A 
ENDROOT
BRANCH   4  12
ATOM     12  C   UNL     1       2.804   4.899  18.302  0.00  0.00    +0.000 A 
ATOM     13  C   UNL     1       2.951   3.865  17.355  0.00  0.00    +0.000 A 
ATOM     14  C   UNL     1       2.286   2.643  17.501  0.00  0.00    +0.000 A 
ATOM     15  C   UNL     1       1.474   2.439  18.605  0.00  0.00    +0.000 A 
ATOM     16  C   UNL     1       1.326   3.444  19.556  0.00  0.00    +0.000 A 
ATOM     17  C   UNL     1       1.976   4.666  19.416  0.00  0.00    +0.000 A 
BRANCH  15  18
ATOM     18  O   UNL     1       0.810   1.261  18.804  0.00  0.00    +0.000 OA
ATOM     19  H   UNL     1       0.885   1.030  19.746  0.00  0.00    +0.000 HD
ENDBRANCH  15  18
BRANCH  16  20
ATOM     20  O   UNL     1       0.534   3.233  20.649  0.00  0.00    +0.000 OA
ATOM     21  H   UNL     1      -0.358   3.510  20.357  0.00  0.00    +0.000 HD
ENDBRANCH  16  20
ENDBRANCH   4  12
BRANCH   8  22
ATOM     22  O   UNL     1       6.793   4.754  13.426  0.00  0.00    +0.000 OA
ATOM     23  H   UNL     1       6.001   4.969  12.904  0.00  0.00    +0.000 HD
ENDBRANCH   8  22
BRANCH  10  24
ATOM     24  O   UNL     1       8.017   3.981  17.930  0.00  0.00    +0.000 OA
ATOM     25  H   UNL     1       8.045   4.505  18.747  0.00  0.00    +0.000 HD
ENDBRANCH  10  24
TORSDOF 5
ENDMDL
MODEL 2
REMARK VINA RESULT:      -7.6      1.768      6.053
REMARK  Name = 
REMARK  5 active torsions:
REMARK  status: ('A' for Active; 'I' for Inactive)
REMARK    1  A    between atoms: C_4  and  C_5
REMARK    2  A    between atoms: C_8  and  O_9
REMARK    3  A    between atoms: C_10  and  O_11
REMARK    4  A    between atoms: C_16  and  O_17
REMARK    5  A    between atoms: C_19  and  O_20
REMARK                            x       y       z     vdW  Elec       q    Type
REMARK                         _______ _______ _______ _____ _____    ______ ____
ROOT
ATOM      1  O   UNL     1       1.072   4.401  16.733  0.00  0.00    +0.000 OA
ATOM      2  C   UNL     1       1.535   4.868  17.766  0.00  0.00    +0.000 C 
ATOM      3  C   UNL     1       1.986   6.301  17.815  0.00  0.00    +0.000 C 
ATOM      4  C   UNL     1       3.181   6.415  18.751  0.00  0.00    +0.000 C 
ATOM      5  O   UNL     1       2.798   6.002  20.076  0.00  0.00    +0.000 OA
ATOM      6  C   UNL     1       2.220   4.757  20.136  0.00  0.00    +0.000 A 
ATOM      7  C   UNL     1       2.239   4.150  21.393  0.00  0.00    +0.000 A 
ATOM      8  C   UNL     1       1.732   2.864  21.535  0.00  0.00    +0.000 A 
ATOM      9  C   UNL     1       1.214   2.176  20.443  0.00  0.00    +0.000 A 
ATOM     10  C   UNL     1       1.166   2.798  19.194  0.00  0.00    +0.000 A 
ATOM     11  C   UNL     1       1.641   4.106  19.038  0.00  0.00    +0.000 A 
ENDROOT
BRANCH   4  12
ATOM     12  C   UNL     1       4.494   5.763  18.315  0.00  0.00    +0.000 A 
ATOM     13  C   UNL     1       4.684   5.200  17.036  0.00  0.00    +0.000 A 
ATOM     14  C   UNL     1       5.904   4.626  16.665  0.00  0.00    +0.000 A 
ATOM     15  C   UNL     1       6.953   4.619  17.571  0.00  0.00    +0.000 A 
ATOM     16  C   UNL     1       6.788   5.180  18.833  0.00  0.00    +0.000 A 
ATOM     17  C   UNL     1       5.576   5.746  19.214  0.00  0.00    +0.000 A 
BRANCH  15  18
ATOM     18  O   UNL     1       8.171   4.081  17.258  0.00  0.00    +0.000 OA
ATOM     19  H   UNL     1       8.055   3.508  16.482  0.00  0.00    +0.000 HD
ENDBRANCH  15  18
BRANCH  16  20
ATOM     20  O   UNL     1       7.830   5.180  19.717  0.00  0.00    +0.000 OA
ATOM     21  H   UNL     1       7.796   6.066  20.129  0.00  0.00    +0.000 HD
ENDBRANCH  16  20
ENDBRANCH   4  12
BRANCH   8  22
ATOM     22  O   UNL     1       1.733   2.227  22.741  0.00  0.00    +0.000 OA
ATOM     23  H   UNL     1       1.333   1.347  22.634  0.00  0.00    +0.000 HD
ENDBRANCH   8  22
BRANCH  10  24
ATOM     24  O   UNL     1       0.652   2.106  18.136  0.00  0.00    +0.000 OA
ATOM     25  H   UNL     1       0.571   2.689  17.364  0.00  0.00    +0.000 HD
ENDBRANCH  10  24
TORSDOF 5
ENDMDL
MODEL 3
REMARK VINA RESULT:      -7.5      2.519      4.415
REMARK  Name = 
REMARK  5 active torsions:
REMARK  status: ('A' for Active; 'I' for Inactive)
REMARK    1  A    between atoms: C_4  and  C_5
REMARK    2  A    between atoms: C_8  and  O_9
REMARK    3  A    between atoms: C_10  and  O_11
REMARK    4  A    between atoms: C_16  and  O_17
REMARK    5  A    between atoms: C_19  and  O_20
REMARK                            x       y       z     vdW  Elec       q    Type
REMARK                         _______ _______ _______ _____ _____    ______ ____
ROOT
ATOM      1  O   UNL     1       5.551   6.656  15.309  0.00  0.00    +0.000 OA
ATOM      2  C   UNL     1       5.237   5.991  16.289  0.00  0.00    +0.000 C 
ATOM      3  C   UNL     1       3.988   5.155  16.269  0.00  0.00    +0.000 C 
ATOM      4  C   UNL     1       3.382   5.131  17.665  0.00  0.00    +0.000 C 
ATOM      5  O   UNL     1       4.320   4.546  18.589  0.00  0.00    +0.000 OA
ATOM      6  C   UNL     1       5.561   5.133  18.581  0.00  0.00    +0.000 A 
ATOM      7  C   UNL     1       6.334   4.909  19.722  0.00  0.00    +0.000 A 
ATOM      8  C   UNL     1       7.580   5.515  19.830  0.00  0.00    +0.000 A 
ATOM      9  C   UNL     1       8.061   6.342  18.822  0.00  0.00    +0.000 A 
ATOM     10  C   UNL     1       7.301   6.539  17.668  0.00  0.00    +0.000 A 
ATOM     11  C   UNL     1       6.058   5.910  17.526  0.00  0.00    +0.000 A 
ENDROOT
BRANCH   4  12
ATOM     12  C   UNL     1       2.792   6.432  18.208  0.00  0.00    +0.000 A 
ATOM     13  C   UNL     1       2.510   7.547  17.392  0.00  0.00    +0.000 A 
ATOM     14  C   UNL     1       1.954   8.717  17.922  0.00  0.00    +0.000 A 
ATOM     15  C   UNL     1       1.664   8.777  19.275  0.00  0.00    +0.000 A 
ATOM     16  C   UNL     1       1.925   7.683  20.094  0.00  0.00    +0.000 A 
ATOM     17  C   UNL     1       2.485   6.519  19.579  0.00  0.00    +0.000 A 
BRANCH  15  18
ATOM     18  O   UNL     1       1.111   9.891  19.844  0.00  0.00    +0.000 OA
ATOM     19  H   UNL     1       1.801  10.574  19.896  0.00  0.00    +0.000 HD
ENDBRANCH  15  18
BRANCH  16  20
ATOM     20  O   UNL     1       1.627   7.746  21.426  0.00  0.00    +0.000 OA
ATOM     21  H   UNL     1       2.361   8.261  21.814  0.00  0.00    +0.000 HD
ENDBRANCH  16  20
ENDBRANCH   4  12
BRANCH   8  22
ATOM     22  O   UNL     1       8.369   5.331  20.928  0.00  0.00    +0.000 OA
ATOM     23  H   UNL     1       8.583   6.198  21.311  0.00  0.00    +0.000 HD
ENDBRANCH   8  22
BRANCH  10  24
ATOM     24  O   UNL     1       7.793   7.353  16.689  0.00  0.00    +0.000 OA
ATOM     25  H   UNL     1       8.281   6.829  16.033  0.00  0.00    +0.000 HD
ENDBRANCH  10  24
TORSDOF 5
ENDMDL
MODEL 4
REMARK VINA RESULT:      -7.5      2.505      4.664
REMARK  Name = 
REMARK  5 active torsions:
REMARK  status: ('A' for Active; 'I' for Inactive)
REMARK    1  A    between atoms: C_4  and  C_5
REMARK    2  A    between atoms: C_8  and  O_9
REMARK    3  A    between atoms: C_10  and  O_11
REMARK    4  A    between atoms: C_16  and  O_17
REMARK    5  A    between atoms: C_19  and  O_20
REMARK                            x       y       z     vdW  Elec       q    Type
REMARK                         _______ _______ _______ _____ _____    ______ ____
ROOT
ATOM      1  O   UNL     1       5.389   6.838  15.440  0.00  0.00    +0.000 OA
ATOM      2  C   UNL     1       5.120   6.110  16.387  0.00  0.00    +0.000 C 
ATOM      3  C   UNL     1       3.892   5.243  16.351  0.00  0.00    +0.000 C 
ATOM      4  C   UNL     1       3.326   5.122  17.759  0.00  0.00    +0.000 C 
ATOM      5  O   UNL     1       4.304   4.510  18.622  0.00  0.00    +0.000 OA
ATOM      6  C   UNL     1       5.530   5.129  18.615  0.00  0.00    +0.000 A 
ATOM      7  C   UNL     1       6.340   4.860  19.720  0.00  0.00    +0.000 A 
ATOM      8  C   UNL     1       7.573   5.491  19.830  0.00  0.00    +0.000 A 
ATOM      9  C   UNL     1       8.004   6.388  18.860  0.00  0.00    +0.000 A 
ATOM     10  C   UNL     1       7.207   6.631  17.740  0.00  0.00    +0.000 A 
ATOM     11  C   UNL     1       5.977   5.979  17.594  0.00  0.00    +0.000 A 
ENDROOT
BRANCH   4  12
ATOM     12  C   UNL     1       2.719   6.374  18.393  0.00  0.00    +0.000 A 
ATOM     13  C   UNL     1       2.384   6.456  19.760  0.00  0.00    +0.000 A 
ATOM     14  C   UNL     1       1.845   7.624  20.310  0.00  0.00    +0.000 A 
ATOM     15  C   UNL     1       1.648   8.729  19.496  0.00  0.00    +0.000 A 
ATOM     16  C   UNL     1       1.984   8.670  18.147  0.00  0.00    +0.000 A 
ATOM     17  C   UNL     1       2.512   7.510  17.590  0.00  0.00    +0.000 A 
BRANCH  15  18
ATOM     18  O   UNL     1       1.135   9.899  19.982  0.00  0.00    +0.000 OA
ATOM     19  H   UNL     1       0.478   9.678  20.664  0.00  0.00    +0.000 HD
ENDBRANCH  15  18
BRANCH  16  20
ATOM     20  O   UNL     1       1.797   9.766  17.353  0.00  0.00    +0.000 OA
ATOM     21  H   UNL     1       0.907   9.638  16.971  0.00  0.00    +0.000 HD
ENDBRANCH  16  20
ENDBRANCH   4  12
BRANCH   8  22
ATOM     22  O   UNL     1       8.397   5.265  20.894  0.00  0.00    +0.000 OA
ATOM     23  H   UNL     1       8.416   6.060  21.453  0.00  0.00    +0.000 HD
ENDBRANCH   8  22
BRANCH  10  24
ATOM     24  O   UNL     1       7.651   7.513  16.797  0.00  0.00    +0.000 OA
ATOM     25  H   UNL     1       7.409   7.203  15.910  0.00  0.00    +0.000 HD
ENDBRANCH  10  24
TORSDOF 5
ENDMDL
MODEL 5
REMARK VINA RESULT:      -7.3      1.708      6.097
REMARK  Name = 
REMARK  5 active torsions:
REMARK  status: ('A' for Active; 'I' for Inactive)
REMARK    1  A    between atoms: C_4  and  C_5
REMARK    2  A    between atoms: C_8  and  O_9
REMARK    3  A    between atoms: C_10  and  O_11
REMARK    4  A    between atoms: C_16  and  O_17
REMARK    5  A    between atoms: C_19  and  O_20
REMARK                            x       y       z     vdW  Elec       q    Type
REMARK                         _______ _______ _______ _____ _____    ______ ____
ROOT
ATOM      1  O   UNL     1       0.996   4.449  16.761  0.00  0.00    +0.000 OA
ATOM      2  C   UNL     1       1.499   4.931  17.769  0.00  0.00    +0.000 C 
ATOM      3  C   UNL     1       1.867   6.388  17.810  0.00  0.00    +0.000 C 
ATOM      4  C   UNL     1       3.113   6.563  18.667  0.00  0.00    +0.000 C 
ATOM      5  O   UNL     1       2.844   6.112  20.008  0.00  0.00    +0.000 OA
ATOM      6  C   UNL     1       2.346   4.835  20.086  0.00  0.00    +0.000 A 
ATOM      7  C   UNL     1       2.484   4.215  21.330  0.00  0.00    +0.000 A 
ATOM      8  C   UNL     1       2.065   2.900  21.485  0.00  0.00    +0.000 A 
ATOM      9  C   UNL     1       1.517   2.194  20.419  0.00  0.00    +0.000 A 
ATOM     10  C   UNL     1       1.350   2.826  19.186  0.00  0.00    +0.000 A 
ATOM     11  C   UNL     1       1.735   4.162  19.020  0.00  0.00    +0.000 A 
ENDROOT
BRANCH   4  12
ATOM     12  C   UNL     1       4.429   5.996  18.135  0.00  0.00    +0.000 A 
ATOM     13  C   UNL     1       5.360   5.321  18.951  0.00  0.00    +0.000 A 
ATOM     14  C   UNL     1       6.548   4.800  18.427  0.00  0.00    +0.000 A 
ATOM     15  C   UNL     1       6.811   4.941  17.074  0.00  0.00    +0.000 A 
ATOM     16  C   UNL     1       5.899   5.594  16.251  0.00  0.00    +0.000 A 
ATOM     17  C   UNL     1       4.719   6.122  16.764  0.00  0.00    +0.000 A 
BRANCH  15  18
ATOM     18  O   UNL     1       7.950   4.442  16.505  0.00  0.00    +0.000 OA
ATOM     19  H   UNL     1       7.693   3.728  15.898  0.00  0.00    +0.000 HD
ENDBRANCH  15  18
BRANCH  16  20
ATOM     20  O   UNL     1       6.159   5.719  14.915  0.00  0.00    +0.000 OA
ATOM     21  H   UNL     1       5.548   5.085  14.490  0.00  0.00    +0.000 HD
ENDBRANCH  16  20
ENDBRANCH   4  12
BRANCH   8  22
ATOM     22  O   UNL     1       2.185   2.250  22.679  0.00  0.00    +0.000 OA
ATOM     23  H   UNL     1       2.787   1.495  22.568  0.00  0.00    +0.000 HD
ENDBRANCH   8  22
BRANCH  10  24
ATOM     24  O   UNL     1       0.808   2.117  18.154  0.00  0.00    +0.000 OA
ATOM     25  H   UNL     1       0.231   1.415  18.497  0.00  0.00    +0.000 HD
ENDBRANCH  10  24
TORSDOF 5
ENDMDL
MODEL 6
REMARK VINA RESULT:      -7.1      1.444      5.877
REMARK  Name = 
REMARK  5 active torsions:
REMARK  status: ('A' for Active; 'I' for Inactive)
REMARK    1  A    between atoms: C_4  and  C_5
REMARK    2  A    between atoms: C_8  and  O_9
REMARK    3  A    between atoms: C_10  and  O_11
REMARK    4  A    between atoms: C_16  and  O_17
REMARK    5  A    between atoms: C_19  and  O_20
REMARK                            x       y       z     vdW  Elec       q    Type
REMARK                         _______ _______ _______ _____ _____    ______ ____
ROOT
ATOM      1  O   UNL     1       3.950   7.262  17.774  0.00  0.00    +0.000 OA
ATOM      2  C   UNL     1       4.441   6.173  18.048  0.00  0.00    +0.000 C 
ATOM      3  C   UNL     1       5.908   6.058  18.354  0.00  0.00    +0.000 C 
ATOM      4  C   UNL     1       6.419   4.716  17.851  0.00  0.00    +0.000 C 
ATOM      5  O   UNL     1       5.718   3.651  18.521  0.00  0.00    +0.000 OA
ATOM      6  C   UNL     1       4.349   3.738  18.444  0.00  0.00    +0.000 A 
ATOM      7  C   UNL     1       3.661   2.547  18.681  0.00  0.00    +0.000 A 
ATOM      8  C   UNL     1       2.277   2.525  18.564  0.00  0.00    +0.000 A 
ATOM      9  C   UNL     1       1.573   3.671  18.209  0.00  0.00    +0.000 A 
ATOM     10  C   UNL     1       2.260   4.868  18.006  0.00  0.00    +0.000 A 
ATOM     11  C   UNL     1       3.652   4.918  18.153  0.00  0.00    +0.000 A 
ENDROOT
BRANCH   4  12
ATOM     12  C   UNL     1       6.469   4.494  16.339  0.00  0.00    +0.000 A 
ATOM     13  C   UNL     1       5.607   3.606  15.664  0.00  0.00    +0.000 A 
ATOM     14  C   UNL     1       5.671   3.440  14.277  0.00  0.00    +0.000 A 
ATOM     15  C   UNL     1       6.594   4.173  13.548  0.00  0.00    +0.000 A 
ATOM     16  C   UNL     1       7.445   5.062  14.195  0.00  0.00    +0.000 A 
ATOM     17  C   UNL     1       7.395   5.228  15.575  0.00  0.00    +0.000 A 
BRANCH  15  18
ATOM     18  O   UNL     1       6.693   4.059  12.189  0.00  0.00    +0.000 OA
ATOM     19  H   UNL     1       7.617   3.849  11.973  0.00  0.00    +0.000 HD
ENDBRANCH  15  18
BRANCH  16  20
ATOM     20  O   UNL     1       8.345   5.790  13.469  0.00  0.00    +0.000 OA
ATOM     21  H   UNL     1       8.753   6.391  14.123  0.00  0.00    +0.000 HD
ENDBRANCH  16  20
ENDBRANCH   4  12
BRANCH   8  22
ATOM     22  O   UNL     1       1.561   1.384  18.779  0.00  0.00    +0.000 OA
ATOM     23  H   UNL     1       0.792   1.377  18.184  0.00  0.00    +0.000 HD
ENDBRANCH   8  22
BRANCH  10  24
ATOM     24  O   UNL     1       1.550   5.982  17.661  0.00  0.00    +0.000 OA
ATOM     25  H   UNL     1       1.490   6.055  16.695  0.00  0.00    +0.000 HD
ENDBRANCH  10  24
TORSDOF 5
ENDMDL
MODEL 7
REMARK VINA RESULT:      -6.9      2.584      6.053
REMARK  Name = 
REMARK  5 active torsions:
REMARK  status: ('A' for Active; 'I' for Inactive)
REMARK    1  A    between atoms: C_4  and  C_5
REMARK    2  A    between atoms: C_8  and  O_9
REMARK    3  A    between atoms: C_10  and  O_11
REMARK    4  A    between atoms: C_16  and  O_17
REMARK    5  A    between atoms: C_19  and  O_20
REMARK                            x       y       z     vdW  Elec       q    Type
REMARK                         _______ _______ _______ _____ _____    ______ ____
ROOT
ATOM      1  O   UNL     1       2.623   5.065  21.008  0.00  0.00    +0.000 OA
ATOM      2  C   UNL     1       2.641   5.447  19.845  0.00  0.00    +0.000 C 
ATOM      3  C   UNL     1       3.009   4.495  18.741  0.00  0.00    +0.000 C 
ATOM      4  C   UNL     1       3.746   5.258  17.650  0.00  0.00    +0.000 C 
ATOM      5  O   UNL     1       2.889   6.285  17.115  0.00  0.00    +0.000 OA
ATOM      6  C   UNL     1       2.359   7.129  18.060  0.00  0.00    +0.000 A 
ATOM      7  C   UNL     1       1.903   8.357  17.575  0.00  0.00    +0.000 A 
ATOM      8  C   UNL     1       1.408   9.299  18.468  0.00  0.00    +0.000 A 
ATOM      9  C   UNL     1       1.367   9.037  19.833  0.00  0.00    +0.000 A 
ATOM     10  C   UNL     1       1.793   7.797  20.311  0.00  0.00    +0.000 A 
ATOM     11  C   UNL     1       2.263   6.821  19.424  0.00  0.00    +0.000 A 
ENDROOT
BRANCH   4  12
ATOM     12  C   UNL     1       5.139   5.800  17.976  0.00  0.00    +0.000 A 
ATOM     13  C   UNL     1       5.761   6.820  17.227  0.00  0.00    +0.000 A 
ATOM     14  C   UNL     1       7.029   7.303  17.564  0.00  0.00    +0.000 A 
ATOM     15  C   UNL     1       7.685   6.775  18.666  0.00  0.00    +0.000 A 
ATOM     16  C   UNL     1       7.082   5.776  19.424  0.00  0.00    +0.000 A 
ATOM     17  C   UNL     1       5.824   5.284  19.091  0.00  0.00    +0.000 A 
BRANCH  15  18
ATOM     18  O   UNL     1       8.921   7.217  19.048  0.00  0.00    +0.000 OA
ATOM     19  H   UNL     1       9.580   6.807  18.462  0.00  0.00    +0.000 HD
ENDBRANCH  15  18
BRANCH  16  20
ATOM     20  O   UNL     1       7.729   5.269  20.515  0.00  0.00    +0.000 OA
ATOM     21  H   UNL     1       8.210   6.034  20.887  0.00  0.00    +0.000 HD
ENDBRANCH  16  20
ENDBRANCH   4  12
BRANCH   8  22
ATOM     22  O   UNL     1       0.957  10.514  18.043  0.00  0.00    +0.000 OA
ATOM     23  H   UNL     1       1.106  11.170  18.746  0.00  0.00    +0.000 HD
ENDBRANCH   8  22
BRANCH  10  24
ATOM     24  O   UNL     1       1.741   7.559  21.654  0.00  0.00    +0.000 OA
ATOM     25  H   UNL     1       2.590   7.788  22.067  0.00  0.00    +0.000 HD
ENDBRANCH  10  24
TORSDOF 5
ENDMDL
MODEL 8
REMARK VINA RESULT:      -6.8      1.980      5.686
REMARK  Name = 
REMARK  5 active torsions:
REMARK  status: ('A' for Active; 'I' for Inactive)
REMARK    1  A    between atoms: C_4  and  C_5
REMARK    2  A    between atoms: C_8  and  O_9
REMARK    3  A    between atoms: C_10  and  O_11
REMARK    4  A    between atoms: C_16  and  O_17
REMARK    5  A    between atoms: C_19  and  O_20
REMARK                            x       y       z     vdW  Elec       q    Type
REMARK                         _______ _______ _______ _____ _____    ______ ____
ROOT
ATOM      1  O   UNL     1       1.284   4.205  17.129  0.00  0.00    +0.000 OA
ATOM      2  C   UNL     1       2.142   4.581  17.918  0.00  0.00    +0.000 C 
ATOM      3  C   UNL     1       2.386   6.048  18.129  0.00  0.00    +0.000 C 
ATOM      4  C   UNL     1       3.866   6.273  18.408  0.00  0.00    +0.000 C 
ATOM      5  O   UNL     1       4.246   5.560  19.601  0.00  0.00    +0.000 OA
ATOM      6  C   UNL     1       3.924   4.225  19.589  0.00  0.00    +0.000 A 
ATOM      7  C   UNL     1       4.638   3.431  20.489  0.00  0.00    +0.000 A 
ATOM      8  C   UNL     1       4.424   2.058  20.503  0.00  0.00    +0.000 A 
ATOM      9  C   UNL     1       3.516   1.468  19.632  0.00  0.00    +0.000 A 
ATOM     10  C   UNL     1       2.780   2.267  18.756  0.00  0.00    +0.000 A 
ATOM     11  C   UNL     1       2.956   3.656  18.750  0.00  0.00    +0.000 A 
ENDROOT
BRANCH   4  12
ATOM     12  C   UNL     1       4.852   6.025  17.266  0.00  0.00    +0.000 A 
ATOM     13  C   UNL     1       4.681   6.562  15.974  0.00  0.00    +0.000 A 
ATOM     14  C   UNL     1       5.613   6.329  14.957  0.00  0.00    +0.000 A 
ATOM     15  C   UNL     1       6.735   5.562  15.229  0.00  0.00    +0.000 A 
ATOM     16  C   UNL     1       6.926   5.033  16.501  0.00  0.00    +0.000 A 
ATOM     17  C   UNL     1       6.001   5.253  17.517  0.00  0.00    +0.000 A 
BRANCH  15  18
ATOM     18  O   UNL     1       7.683   5.310  14.276  0.00  0.00    +0.000 OA
ATOM     19  H   UNL     1       8.047   4.424  14.444  0.00  0.00    +0.000 HD
ENDBRANCH  15  18
BRANCH  16  20
ATOM     20  O   UNL     1       8.040   4.287  16.765  0.00  0.00    +0.000 OA
ATOM     21  H   UNL     1       8.749   4.723  16.252  0.00  0.00    +0.000 HD
ENDBRANCH  16  20
ENDBRANCH   4  12
BRANCH   8  22
ATOM     22  O   UNL     1       5.101   1.241  21.360  0.00  0.00    +0.000 OA
ATOM     23  H   UNL     1       5.937   1.670  21.612  0.00  0.00    +0.000 HD
ENDBRANCH   8  22
BRANCH  10  24
ATOM     24  O   UNL     1       1.891   1.668  17.910  0.00  0.00    +0.000 OA
ATOM     25  H   UNL     1       0.985   1.792  18.236  0.00  0.00    +0.000 HD
ENDBRANCH  10  24
TORSDOF 5
ENDMDL
MODEL 9
REMARK VINA RESULT:      -6.8      2.723      6.201
REMARK  Name = 
REMARK  5 active torsions:
REMARK  status: ('A' for Active; 'I' for Inactive)
REMARK    1  A    between atoms: C_4  and  C_5
REMARK    2  A    between atoms: C_8  and  O_9
REMARK    3  A    between atoms: C_10  and  O_11
REMARK    4  A    between atoms: C_16  and  O_17
REMARK    5  A    between atoms: C_19  and  O_20
REMARK                            x       y       z     vdW  Elec       q    Type
REMARK                         _______ _______ _______ _____ _____    ______ ____
ROOT
ATOM      1  O   UNL     1       2.170   5.214  21.145  0.00  0.00    +0.000 OA
ATOM      2  C   UNL     1       2.263   5.584  19.981  0.00  0.00    +0.000 C 
ATOM      3  C   UNL     1       2.558   4.591  18.892  0.00  0.00    +0.000 C 
ATOM      4  C   UNL     1       3.406   5.263  17.821  0.00  0.00    +0.000 C 
ATOM      5  O   UNL     1       2.681   6.372  17.257  0.00  0.00    +0.000 OA
ATOM      6  C   UNL     1       2.217   7.275  18.183  0.00  0.00    +0.000 A 
ATOM      7  C   UNL     1       1.911   8.541  17.680  0.00  0.00    +0.000 A 
ATOM      8  C   UNL     1       1.494   9.538  18.554  0.00  0.00    +0.000 A 
ATOM      9  C   UNL     1       1.385   9.291  19.918  0.00  0.00    +0.000 A 
ATOM     10  C   UNL     1       1.660   8.015  20.414  0.00  0.00    +0.000 A 
ATOM     11  C   UNL     1       2.049   6.989  19.544  0.00  0.00    +0.000 A 
ENDROOT
BRANCH   4  12
ATOM     12  C   UNL     1       4.838   5.654  18.187  0.00  0.00    +0.000 A 
ATOM     13  C   UNL     1       5.542   5.073  19.261  0.00  0.00    +0.000 A 
ATOM     14  C   UNL     1       6.858   5.444  19.557  0.00  0.00    +0.000 A 
ATOM     15  C   UNL     1       7.488   6.394  18.769  0.00  0.00    +0.000 A 
ATOM     16  C   UNL     1       6.813   6.970  17.698  0.00  0.00    +0.000 A 
ATOM     17  C   UNL     1       5.502   6.614  17.401  0.00  0.00    +0.000 A 
BRANCH  15  18
ATOM     18  O   UNL     1       8.777   6.786  19.005  0.00  0.00    +0.000 OA
ATOM     19  H   UNL     1       8.749   7.608  19.524  0.00  0.00    +0.000 HD
ENDBRANCH  15  18
BRANCH  16  20
ATOM     20  O   UNL     1       7.444   7.898  16.918  0.00  0.00    +0.000 OA
ATOM     21  H   UNL     1       8.391   7.660  16.978  0.00  0.00    +0.000 HD
ENDBRANCH  16  20
ENDBRANCH   4  12
BRANCH   8  22
ATOM     22  O   UNL     1       1.189  10.791  18.112  0.00  0.00    +0.000 OA
ATOM     23  H   UNL     1       1.320  10.827  17.149  0.00  0.00    +0.000 HD
ENDBRANCH   8  22
BRANCH  10  24
ATOM     24  O   UNL     1       1.544   7.793  21.756  0.00  0.00    +0.000 OA
ATOM     25  H   UNL     1       1.184   6.906  21.917  0.00  0.00    +0.000 HD
ENDBRANCH  10  24
TORSDOF 5
ENDMDL
