MODEL 1
REMARK VINA RESULT:      -8.8      0.000      0.000
REMARK  Name = 
REMARK  5 active torsions:
REMARK  status: ('A' for Active; 'I' for Inactive)
REMARK    1  A    between atoms: C_2  and  C_19
REMARK    2  A    between atoms: N_3  and  C_4
REMARK    3  A    between atoms: C_7  and  C_8
REMARK    4  A    between atoms: N_22  and  C_23
REMARK    5  A    between atoms: C_29  and  C_30
REMARK                            x       y       z     vdW  Elec       q    Type
REMARK                         _______ _______ _______ _____ _____    ______ ____
ROOT
ATOM      1  O   UNL     1       9.262  10.185  20.257  0.00  0.00    +0.000 OA
ATOM      2  C   UNL     1       9.384  10.525  19.086  0.00  0.00    +0.000 C 
ATOM      3  N   UNL     1       8.899   9.833  17.995  0.00  0.00    +0.000 N 
ATOM      4  H   UNL     1       9.113  10.217  17.085  0.00  0.00    +0.000 HD
ENDROOT
BRANCH   3   5
ATOM      5  C   UNL     1       8.162   8.629  18.020  0.00  0.00    +0.000 A 
ATOM      6  C   UNL     1       8.527   7.501  18.764  0.00  0.00    +0.000 A 
ATOM      7  C   UNL     1       7.738   6.339  18.754  0.00  0.00    +0.000 A 
ATOM      8  C   UNL     1       6.564   6.292  18.005  0.00  0.00    +0.000 A 
ATOM      9  C   UNL     1       6.207   7.419  17.253  0.00  0.00    +0.000 A 
ATOM     10  C   UNL     1       6.995   8.575  17.257  0.00  0.00    +0.000 A 
BRANCH   8  11
ATOM     11  C   UNL     1       5.640   5.156  18.049  0.00  0.00    +0.000 A 
ATOM     12  N   UNL     1       4.590   5.025  17.259  0.00  0.00    +0.000 NA
ATOM     13  C   UNL     1       3.919   3.918  17.697  0.00  0.00    +0.000 A 
ATOM     14  C   UNL     1       2.706   3.385  17.248  0.00  0.00    +0.000 A 
ATOM     15  C   UNL     1       2.200   2.248  17.884  0.00  0.00    +0.000 A 
ATOM     16  C   UNL     1       2.899   1.650  18.936  0.00  0.00    +0.000 A 
ATOM     17  C   UNL     1       4.121   2.165  19.391  0.00  0.00    +0.000 A 
ATOM     18  C   UNL     1       4.598   3.309  18.746  0.00  0.00    +0.000 A 
ATOM     19  N   UNL     1       5.713   4.094  18.925  0.00  0.00    +0.000 N 
ATOM     20  H   UNL     1       6.445   3.933  19.596  0.00  0.00    +0.000 HD
ENDBRANCH   8  11
ENDBRANCH   3   5
BRANCH   2  21
ATOM     21  C   UNL     1      10.175  11.707  18.773  0.00  0.00    +0.000 A 
ATOM     22  C   UNL     1      11.572  11.652  18.584  0.00  0.00    +0.000 A 
ATOM     23  N   UNL     1      12.119  12.831  18.333  0.00  0.00    +0.000 NA
ATOM     24  N   UNL     1      11.082  13.710  18.360  0.00  0.00    +0.000 N 
ATOM     25  C   UNL     1       9.867  13.052  18.612  0.00  0.00    +0.000 A 
BRANCH  24  26
ATOM     26  C   UNL     1      11.368  15.106  18.266  0.00  0.00    +0.000 A 
ATOM     27  C   UNL     1      11.234  15.823  17.074  0.00  0.00    +0.000 A 
ATOM     28  C   UNL     1      11.420  17.207  17.054  0.00  0.00    +0.000 A 
ATOM     29  C   UNL     1      11.763  17.885  18.220  0.00  0.00    +0.000 A 
ATOM     30  C   UNL     1      11.949  17.178  19.404  0.00  0.00    +0.000 A 
ATOM     31  C   UNL     1      11.766  15.792  19.426  0.00  0.00    +0.000 A 
ENDBRANCH  24  26
BRANCH  25  32
ATOM     32  C   UNL     1       8.528  13.737  18.854  0.00  0.00    +0.000 C 
ATOM     33  C   UNL     1       8.103  15.061  18.299  0.00  0.00    +0.000 C 
ATOM     34  C   UNL     1       7.567  13.793  17.693  0.00  0.00    +0.000 C 
ENDBRANCH  25  32
ENDBRANCH   2  21
TORSDOF 5
ENDMDL
MODEL 2
REMARK VINA RESULT:      -8.4      8.785     10.998
REMARK  Name = 
REMARK  5 active torsions:
REMARK  status: ('A' for Active; 'I' for Inactive)
REMARK    1  A    between atoms: C_2  and  C_19
REMARK    2  A    between atoms: N_3  and  C_4
REMARK    3  A    between atoms: C_7  and  C_8
REMARK    4  A    between atoms: N_22  and  C_23
REMARK    5  A    between atoms: C_29  and  C_30
REMARK                            x       y       z     vdW  Elec       q    Type
REMARK                         _______ _______ _______ _____ _____    ______ ____
ROOT
ATOM      1  O   UNL     1       0.990  11.603  21.501  0.00  0.00    +0.000 OA
ATOM      2  C   UNL     1      -0.083  11.024  21.377  0.00  0.00    +0.000 C 
ATOM      3  N   UNL     1      -0.277   9.830  20.712  0.00  0.00    +0.000 N 
ATOM      4  H   UNL     1      -1.229   9.493  20.657  0.00  0.00    +0.000 HD
ENDROOT
BRANCH   3   5
ATOM      5  C   UNL     1       0.711   9.048  20.076  0.00  0.00    +0.000 A 
ATOM      6  C   UNL     1       1.337   7.944  20.666  0.00  0.00    +0.000 A 
ATOM      7  C   UNL     1       2.304   7.200  19.969  0.00  0.00    +0.000 A 
ATOM      8  C   UNL     1       2.653   7.547  18.665  0.00  0.00    +0.000 A 
ATOM      9  C   UNL     1       2.033   8.660  18.082  0.00  0.00    +0.000 A 
ATOM     10  C   UNL     1       1.074   9.404  18.776  0.00  0.00    +0.000 A 
BRANCH   8  11
ATOM     11  C   UNL     1       3.563   6.742  17.847  0.00  0.00    +0.000 A 
ATOM     12  N   UNL     1       3.355   5.476  17.536  0.00  0.00    +0.000 NA
ATOM     13  C   UNL     1       4.480   5.052  16.886  0.00  0.00    +0.000 A 
ATOM     14  C   UNL     1       4.798   3.775  16.410  0.00  0.00    +0.000 A 
ATOM     15  C   UNL     1       6.039   3.580  15.801  0.00  0.00    +0.000 A 
ATOM     16  C   UNL     1       6.938   4.640  15.657  0.00  0.00    +0.000 A 
ATOM     17  C   UNL     1       6.630   5.928  16.119  0.00  0.00    +0.000 A 
ATOM     18  C   UNL     1       5.388   6.093  16.735  0.00  0.00    +0.000 A 
ATOM     19  N   UNL     1       4.764   7.171  17.320  0.00  0.00    +0.000 N 
ATOM     20  H   UNL     1       5.130   8.106  17.374  0.00  0.00    +0.000 HD
ENDBRANCH   8  11
ENDBRANCH   3   5
BRANCH   2  21
ATOM     21  C   UNL     1      -1.291  11.659  21.883  0.00  0.00    +0.000 A 
ATOM     22  C   UNL     1      -1.729  11.495  23.215  0.00  0.00    +0.000 A 
ATOM     23  N   UNL     1      -2.860  12.128  23.481  0.00  0.00    +0.000 NA
ATOM     24  N   UNL     1      -3.208  12.729  22.312  0.00  0.00    +0.000 N 
ATOM     25  C   UNL     1      -2.258  12.476  21.310  0.00  0.00    +0.000 A 
BRANCH  24  26
ATOM     26  C   UNL     1      -4.476  13.382  22.232  0.00  0.00    +0.000 A 
ATOM     27  C   UNL     1      -4.648  14.733  22.547  0.00  0.00    +0.000 A 
ATOM     28  C   UNL     1      -5.883  15.355  22.350  0.00  0.00    +0.000 A 
ATOM     29  C   UNL     1      -6.963  14.630  21.857  0.00  0.00    +0.000 A 
ATOM     30  C   UNL     1      -6.821  13.272  21.588  0.00  0.00    +0.000 A 
ATOM     31  C   UNL     1      -5.586  12.646  21.786  0.00  0.00    +0.000 A 
ENDBRANCH  24  26
BRANCH  25  32
ATOM     32  C   UNL     1      -2.398  12.868  19.844  0.00  0.00    +0.000 C 
ATOM     33  C   UNL     1      -1.722  12.199  18.687  0.00  0.00    +0.000 C 
ATOM     34  C   UNL     1      -3.178  11.931  18.956  0.00  0.00    +0.000 C 
ENDBRANCH  25  32
ENDBRANCH   2  21
TORSDOF 5
ENDMDL
MODEL 3
REMARK VINA RESULT:      -8.3      8.901     11.072
REMARK  Name = 
REMARK  5 active torsions:
REMARK  status: ('A' for Active; 'I' for Inactive)
REMARK    1  A    between atoms: C_2  and  C_19
REMARK    2  A    between atoms: N_3  and  C_4
REMARK    3  A    between atoms: C_7  and  C_8
REMARK    4  A    between atoms: N_22  and  C_23
REMARK    5  A    between atoms: C_29  and  C_30
REMARK                            x       y       z     vdW  Elec       q    Type
REMARK                         _______ _______ _______ _____ _____    ______ ____
ROOT
ATOM      1  O   UNL     1       0.901  11.664  21.506  0.00  0.00    +0.000 OA
ATOM      2  C   UNL     1      -0.173  11.087  21.382  0.00  0.00    +0.000 C 
ATOM      3  N   UNL     1      -0.366   9.882  20.738  0.00  0.00    +0.000 N 
ATOM      4  H   UNL     1      -1.319   9.548  20.680  0.00  0.00    +0.000 HD
ENDROOT
BRANCH   3   5
ATOM      5  C   UNL     1       0.625   9.085  20.125  0.00  0.00    +0.000 A 
ATOM      6  C   UNL     1       1.244   7.992  20.743  0.00  0.00    +0.000 A 
ATOM      7  C   UNL     1       2.214   7.232  20.068  0.00  0.00    +0.000 A 
ATOM      8  C   UNL     1       2.572   7.549  18.759  0.00  0.00    +0.000 A 
ATOM      9  C   UNL     1       1.958   8.651  18.149  0.00  0.00    +0.000 A 
ATOM     10  C   UNL     1       0.996   9.412  18.821  0.00  0.00    +0.000 A 
BRANCH   8  11
ATOM     11  C   UNL     1       3.486   6.725  17.965  0.00  0.00    +0.000 A 
ATOM     12  N   UNL     1       4.262   7.194  17.005  0.00  0.00    +0.000 NA
ATOM     13  C   UNL     1       4.851   6.106  16.426  0.00  0.00    +0.000 A 
ATOM     14  C   UNL     1       5.707   6.049  15.319  0.00  0.00    +0.000 A 
ATOM     15  C   UNL     1       6.160   4.799  14.890  0.00  0.00    +0.000 A 
ATOM     16  C   UNL     1       5.779   3.634  15.560  0.00  0.00    +0.000 A 
ATOM     17  C   UNL     1       4.931   3.674  16.676  0.00  0.00    +0.000 A 
ATOM     18  C   UNL     1       4.482   4.935  17.077  0.00  0.00    +0.000 A 
ATOM     19  N   UNL     1       3.643   5.359  18.081  0.00  0.00    +0.000 N 
ATOM     20  H   UNL     1       3.202   4.771  18.768  0.00  0.00    +0.000 HD
ENDBRANCH   8  11
ENDBRANCH   3   5
BRANCH   2  21
ATOM     21  C   UNL     1      -1.383  11.737  21.867  0.00  0.00    +0.000 A 
ATOM     22  C   UNL     1      -1.794  11.658  23.214  0.00  0.00    +0.000 A 
ATOM     23  N   UNL     1      -2.931  12.290  23.457  0.00  0.00    +0.000 NA
ATOM     24  N   UNL     1      -3.310  12.803  22.257  0.00  0.00    +0.000 N 
ATOM     25  C   UNL     1      -2.374  12.496  21.257  0.00  0.00    +0.000 A 
BRANCH  24  26
ATOM     26  C   UNL     1      -4.591  13.428  22.155  0.00  0.00    +0.000 A 
ATOM     27  C   UNL     1      -5.783  12.699  22.132  0.00  0.00    +0.000 A 
ATOM     28  C   UNL     1      -7.016  13.357  22.142  0.00  0.00    +0.000 A 
ATOM     29  C   UNL     1      -7.069  14.747  22.152  0.00  0.00    +0.000 A 
ATOM     30  C   UNL     1      -5.890  15.486  22.123  0.00  0.00    +0.000 A 
ATOM     31  C   UNL     1      -4.655  14.831  22.112  0.00  0.00    +0.000 A 
ENDBRANCH  24  26
BRANCH  25  32
ATOM     32  C   UNL     1      -2.545  12.783  19.770  0.00  0.00    +0.000 C 
ATOM     33  C   UNL     1      -2.219  11.845  18.650  0.00  0.00    +0.000 C 
ATOM     34  C   UNL     1      -3.653  12.051  19.055  0.00  0.00    +0.000 C 
ENDBRANCH  25  32
ENDBRANCH   2  21
TORSDOF 5
ENDMDL
MODEL 4
REMARK VINA RESULT:      -8.3      8.613     10.803
REMARK  Name = 
REMARK  5 active torsions:
REMARK  status: ('A' for Active; 'I' for Inactive)
REMARK    1  A    between atoms: C_2  and  C_19
REMARK    2  A    between atoms: N_3  and  C_4
REMARK    3  A    between atoms: C_7  and  C_8
REMARK    4  A    between atoms: N_22  and  C_23
REMARK    5  A    between atoms: C_29  and  C_30
REMARK                            x       y       z     vdW  Elec       q    Type
REMARK                         _______ _______ _______ _____ _____    ______ ____
ROOT
ATOM      1  O   UNL     1       1.262  11.374  21.419  0.00  0.00    +0.000 OA
ATOM      2  C   UNL     1       0.157  10.862  21.279  0.00  0.00    +0.000 C 
ATOM      3  N   UNL     1      -0.120   9.754  20.504  0.00  0.00    +0.000 N 
ATOM      4  H   UNL     1      -1.089   9.470  20.452  0.00  0.00    +0.000 HD
ENDROOT
BRANCH   3   5
ATOM      5  C   UNL     1       0.805   8.996  19.754  0.00  0.00    +0.000 A 
ATOM      6  C   UNL     1       1.220   9.324  18.458  0.00  0.00    +0.000 A 
ATOM      7  C   UNL     1       2.157   8.532  17.774  0.00  0.00    +0.000 A 
ATOM      8  C   UNL     1       2.700   7.401  18.382  0.00  0.00    +0.000 A 
ATOM      9  C   UNL     1       2.273   7.069  19.675  0.00  0.00    +0.000 A 
ATOM     10  C   UNL     1       1.337   7.854  20.355  0.00  0.00    +0.000 A 
BRANCH   8  11
ATOM     11  C   UNL     1       3.765   6.605  17.768  0.00  0.00    +0.000 A 
ATOM     12  N   UNL     1       4.973   7.068  17.499  0.00  0.00    +0.000 NA
ATOM     13  C   UNL     1       5.618   6.074  16.818  0.00  0.00    +0.000 A 
ATOM     14  C   UNL     1       6.895   6.082  16.244  0.00  0.00    +0.000 A 
ATOM     15  C   UNL     1       7.326   4.941  15.562  0.00  0.00    +0.000 A 
ATOM     16  C   UNL     1       6.507   3.813  15.468  0.00  0.00    +0.000 A 
ATOM     17  C   UNL     1       5.229   3.786  16.047  0.00  0.00    +0.000 A 
ATOM     18  C   UNL     1       4.818   4.944  16.712  0.00  0.00    +0.000 A 
ATOM     19  N   UNL     1       3.656   5.292  17.361  0.00  0.00    +0.000 N 
ATOM     20  H   UNL     1       2.855   4.698  17.496  0.00  0.00    +0.000 HD
ENDBRANCH   8  11
ENDBRANCH   3   5
BRANCH   2  21
ATOM     21  C   UNL     1      -0.999  11.498  21.894  0.00  0.00    +0.000 A 
ATOM     22  C   UNL     1      -1.402  11.214  23.216  0.00  0.00    +0.000 A 
ATOM     23  N   UNL     1      -2.489  11.870  23.589  0.00  0.00    +0.000 NA
ATOM     24  N   UNL     1      -2.841  12.609  22.504  0.00  0.00    +0.000 N 
ATOM     25  C   UNL     1      -1.939  12.419  21.446  0.00  0.00    +0.000 A 
BRANCH  24  26
ATOM     26  C   UNL     1      -4.075  13.329  22.540  0.00  0.00    +0.000 A 
ATOM     27  C   UNL     1      -5.241  12.853  21.933  0.00  0.00    +0.000 A 
ATOM     28  C   UNL     1      -6.449  13.537  22.086  0.00  0.00    +0.000 A 
ATOM     29  C   UNL     1      -6.501  14.713  22.828  0.00  0.00    +0.000 A 
ATOM     30  C   UNL     1      -5.338  15.225  23.395  0.00  0.00    +0.000 A 
ATOM     31  C   UNL     1      -4.127  14.545  23.243  0.00  0.00    +0.000 A 
ENDBRANCH  24  26
BRANCH  25  32
ATOM     32  C   UNL     1      -2.103  12.972  20.036  0.00  0.00    +0.000 C 
ATOM     33  C   UNL     1      -1.224  12.665  18.863  0.00  0.00    +0.000 C 
ATOM     34  C   UNL     1      -2.575  12.010  18.974  0.00  0.00    +0.000 C 
ENDBRANCH  25  32
ENDBRANCH   2  21
TORSDOF 5
ENDMDL
MODEL 5
REMARK VINA RESULT:      -8.1      8.766     10.631
REMARK  Name = 
REMARK  5 active torsions:
REMARK  status: ('A' for Active; 'I' for Inactive)
REMARK    1  A    between atoms: C_2  and  C_19
REMARK    2  A    between atoms: N_3  and  C_4
REMARK    3  A    between atoms: C_7  and  C_8
REMARK    4  A    between atoms: N_22  and  C_23
REMARK    5  A    between atoms: C_29  and  C_30
REMARK                            x       y       z     vdW  Elec       q    Type
REMARK                         _______ _______ _______ _____ _____    ______ ____
ROOT
ATOM      1  O   UNL     1       1.125  12.038  21.575  0.00  0.00    +0.000 OA
ATOM      2  C   UNL     1       0.025  11.501  21.655  0.00  0.00    +0.000 C 
ATOM      3  N   UNL     1      -0.335  10.318  21.042  0.00  0.00    +0.000 N 
ATOM      4  H   UNL     1      -1.293  10.019  21.166  0.00  0.00    +0.000 HD
ENDROOT
BRANCH   3   5
ATOM      5  C   UNL     1       0.486   9.501  20.236  0.00  0.00    +0.000 A 
ATOM      6  C   UNL     1       0.737   9.736  18.879  0.00  0.00    +0.000 A 
ATOM      7  C   UNL     1       1.578   8.889  18.140  0.00  0.00    +0.000 A 
ATOM      8  C   UNL     1       2.190   7.795  18.751  0.00  0.00    +0.000 A 
ATOM      9  C   UNL     1       1.927   7.557  20.106  0.00  0.00    +0.000 A 
ATOM     10  C   UNL     1       1.086   8.396  20.843  0.00  0.00    +0.000 A 
BRANCH   8  11
ATOM     11  C   UNL     1       3.168   6.948  18.065  0.00  0.00    +0.000 A 
ATOM     12  N   UNL     1       4.117   7.408  17.270  0.00  0.00    +0.000 NA
ATOM     13  C   UNL     1       4.725   6.311  16.728  0.00  0.00    +0.000 A 
ATOM     14  C   UNL     1       5.743   6.248  15.770  0.00  0.00    +0.000 A 
ATOM     15  C   UNL     1       6.183   4.992  15.345  0.00  0.00    +0.000 A 
ATOM     16  C   UNL     1       5.627   3.825  15.875  0.00  0.00    +0.000 A 
ATOM     17  C   UNL     1       4.613   3.871  16.843  0.00  0.00    +0.000 A 
ATOM     18  C   UNL     1       4.184   5.139  17.241  0.00  0.00    +0.000 A 
ATOM     19  N   UNL     1       3.220   5.571  18.123  0.00  0.00    +0.000 N 
ATOM     20  H   UNL     1       2.638   4.983  18.695  0.00  0.00    +0.000 HD
ENDBRANCH   8  11
ENDBRANCH   3   5
BRANCH   2  21
ATOM     21  C   UNL     1      -1.042  12.181  22.375  0.00  0.00    +0.000 A 
ATOM     22  C   UNL     1      -1.959  11.490  23.194  0.00  0.00    +0.000 A 
ATOM     23  N   UNL     1      -2.872  12.275  23.745  0.00  0.00    +0.000 NA
ATOM     24  N   UNL     1      -2.581  13.522  23.289  0.00  0.00    +0.000 N 
ATOM     25  C   UNL     1      -1.451  13.507  22.456  0.00  0.00    +0.000 A 
BRANCH  24  26
ATOM     26  C   UNL     1      -3.484  14.588  23.593  0.00  0.00    +0.000 A 
ATOM     27  C   UNL     1      -4.723  14.725  22.962  0.00  0.00    +0.000 A 
ATOM     28  C   UNL     1      -5.618  15.718  23.368  0.00  0.00    +0.000 A 
ATOM     29  C   UNL     1      -5.276  16.596  24.392  0.00  0.00    +0.000 A 
ATOM     30  C   UNL     1      -4.024  16.503  24.993  0.00  0.00    +0.000 A 
ATOM     31  C   UNL     1      -3.125  15.511  24.589  0.00  0.00    +0.000 A 
ENDBRANCH  24  26
BRANCH  25  32
ATOM     32  C   UNL     1      -0.929  14.694  21.656  0.00  0.00    +0.000 C 
ATOM     33  C   UNL     1      -0.554  14.681  20.206  0.00  0.00    +0.000 C 
ATOM     34  C   UNL     1      -1.861  15.293  20.632  0.00  0.00    +0.000 C 
ENDBRANCH  25  32
ENDBRANCH   2  21
TORSDOF 5
ENDMDL
MODEL 6
REMARK VINA RESULT:      -8.0      8.775     10.740
REMARK  Name = 
REMARK  5 active torsions:
REMARK  status: ('A' for Active; 'I' for Inactive)
REMARK    1  A    between atoms: C_2  and  C_19
REMARK    2  A    between atoms: N_3  and  C_4
REMARK    3  A    between atoms: C_7  and  C_8
REMARK    4  A    between atoms: N_22  and  C_23
REMARK    5  A    between atoms: C_29  and  C_30
REMARK                            x       y       z     vdW  Elec       q    Type
REMARK                         _______ _______ _______ _____ _____    ______ ____
ROOT
ATOM      1  O   UNL     1       1.058  11.904  21.514  0.00  0.00    +0.000 OA
ATOM      2  C   UNL     1      -0.022  11.323  21.544  0.00  0.00    +0.000 C 
ATOM      3  N   UNL     1      -0.283  10.088  20.988  0.00  0.00    +0.000 N 
ATOM      4  H   UNL     1      -1.235   9.753  21.057  0.00  0.00    +0.000 HD
ENDROOT
BRANCH   3   5
ATOM      5  C   UNL     1       0.634   9.259  20.306  0.00  0.00    +0.000 A 
ATOM      6  C   UNL     1       1.231   8.123  20.866  0.00  0.00    +0.000 A 
ATOM      7  C   UNL     1       2.125   7.334  20.124  0.00  0.00    +0.000 A 
ATOM      8  C   UNL     1       2.429   7.665  18.805  0.00  0.00    +0.000 A 
ATOM      9  C   UNL     1       1.838   8.808  18.251  0.00  0.00    +0.000 A 
ATOM     10  C   UNL     1       0.951   9.598  18.990  0.00  0.00    +0.000 A 
BRANCH   8  11
ATOM     11  C   UNL     1       3.257   6.816  17.945  0.00  0.00    +0.000 A 
ATOM     12  N   UNL     1       3.165   5.500  17.894  0.00  0.00    +0.000 NA
ATOM     13  C   UNL     1       4.184   5.077  17.088  0.00  0.00    +0.000 A 
ATOM     14  C   UNL     1       4.571   3.772  16.764  0.00  0.00    +0.000 A 
ATOM     15  C   UNL     1       5.680   3.591  15.933  0.00  0.00    +0.000 A 
ATOM     16  C   UNL     1       6.378   4.691  15.426  0.00  0.00    +0.000 A 
ATOM     17  C   UNL     1       5.996   6.005  15.732  0.00  0.00    +0.000 A 
ATOM     18  C   UNL     1       4.892   6.157  16.575  0.00  0.00    +0.000 A 
ATOM     19  N   UNL     1       4.257   7.257  17.103  0.00  0.00    +0.000 N 
ATOM     20  H   UNL     1       4.496   8.218  16.924  0.00  0.00    +0.000 HD
ENDBRANCH   8  11
ENDBRANCH   3   5
BRANCH   2  21
ATOM     21  C   UNL     1      -1.170  11.999  22.132  0.00  0.00    +0.000 A 
ATOM     22  C   UNL     1      -1.882  11.463  23.226  0.00  0.00    +0.000 A 
ATOM     23  N   UNL     1      -2.910  12.208  23.602  0.00  0.00    +0.000 NA
ATOM     24  N   UNL     1      -2.907  13.265  22.748  0.00  0.00    +0.000 N 
ATOM     25  C   UNL     1      -1.841  13.179  21.838  0.00  0.00    +0.000 A 
BRANCH  24  26
ATOM     26  C   UNL     1      -3.996  14.189  22.803  0.00  0.00    +0.000 A 
ATOM     27  C   UNL     1      -5.104  14.096  21.957  0.00  0.00    +0.000 A 
ATOM     28  C   UNL     1      -6.194  14.955  22.119  0.00  0.00    +0.000 A 
ATOM     29  C   UNL     1      -6.177  15.929  23.112  0.00  0.00    +0.000 A 
ATOM     30  C   UNL     1      -5.058  16.067  23.928  0.00  0.00    +0.000 A 
ATOM     31  C   UNL     1      -3.966  15.210  23.768  0.00  0.00    +0.000 A 
ENDBRANCH  24  26
BRANCH  25  32
ATOM     32  C   UNL     1      -1.618  14.109  20.652  0.00  0.00    +0.000 C 
ATOM     33  C   UNL     1      -1.866  15.585  20.632  0.00  0.00    +0.000 C 
ATOM     34  C   UNL     1      -0.457  15.068  20.743  0.00  0.00    +0.000 C 
ENDBRANCH  25  32
ENDBRANCH   2  21
TORSDOF 5
ENDMDL
MODEL 7
REMARK VINA RESULT:      -8.0      8.937     10.896
REMARK  Name = 
REMARK  5 active torsions:
REMARK  status: ('A' for Active; 'I' for Inactive)
REMARK    1  A    between atoms: C_2  and  C_19
REMARK    2  A    between atoms: N_3  and  C_4
REMARK    3  A    between atoms: C_7  and  C_8
REMARK    4  A    between atoms: N_22  and  C_23
REMARK    5  A    between atoms: C_29  and  C_30
REMARK                            x       y       z     vdW  Elec       q    Type
REMARK                         _______ _______ _______ _____ _____    ______ ____
ROOT
ATOM      1  O   UNL     1       0.851  11.923  21.642  0.00  0.00    +0.000 OA
ATOM      2  C   UNL     1      -0.213  11.313  21.654  0.00  0.00    +0.000 C 
ATOM      3  N   UNL     1      -0.424  10.062  21.112  0.00  0.00    +0.000 N 
ATOM      4  H   UNL     1      -1.368   9.701  21.162  0.00  0.00    +0.000 HD
ENDROOT
BRANCH   3   5
ATOM      5  C   UNL     1       0.533   9.248  20.469  0.00  0.00    +0.000 A 
ATOM      6  C   UNL     1       1.114   8.113  21.048  0.00  0.00    +0.000 A 
ATOM      7  C   UNL     1       2.052   7.340  20.344  0.00  0.00    +0.000 A 
ATOM      8  C   UNL     1       2.416   7.686  19.044  0.00  0.00    +0.000 A 
ATOM      9  C   UNL     1       1.840   8.828  18.472  0.00  0.00    +0.000 A 
ATOM     10  C   UNL     1       0.911   9.602  19.173  0.00  0.00    +0.000 A 
BRANCH   8  11
ATOM     11  C   UNL     1       3.294   6.853  18.219  0.00  0.00    +0.000 A 
ATOM     12  N   UNL     1       4.041   7.316  17.233  0.00  0.00    +0.000 NA
ATOM     13  C   UNL     1       4.601   6.223  16.633  0.00  0.00    +0.000 A 
ATOM     14  C   UNL     1       5.417   6.159  15.498  0.00  0.00    +0.000 A 
ATOM     15  C   UNL     1       5.844   4.906  15.053  0.00  0.00    +0.000 A 
ATOM     16  C   UNL     1       5.475   3.743  15.735  0.00  0.00    +0.000 A 
ATOM     17  C   UNL     1       4.667   3.791  16.880  0.00  0.00    +0.000 A 
ATOM     18  C   UNL     1       4.244   5.055  17.296  0.00  0.00    +0.000 A 
ATOM     19  N   UNL     1       3.443   5.486  18.328  0.00  0.00    +0.000 N 
ATOM     20  H   UNL     1       3.020   4.902  19.029  0.00  0.00    +0.000 HD
ENDBRANCH   8  11
ENDBRANCH   3   5
BRANCH   2  21
ATOM     21  C   UNL     1      -1.395  11.965  22.199  0.00  0.00    +0.000 A 
ATOM     22  C   UNL     1      -2.146  11.405  23.254  0.00  0.00    +0.000 A 
ATOM     23  N   UNL     1      -3.200  12.131  23.596  0.00  0.00    +0.000 NA
ATOM     24  N   UNL     1      -3.175  13.200  22.756  0.00  0.00    +0.000 N 
ATOM     25  C   UNL     1      -2.069  13.140  21.893  0.00  0.00    +0.000 A 
BRANCH  24  26
ATOM     26  C   UNL     1      -4.277  14.108  22.775  0.00  0.00    +0.000 A 
ATOM     27  C   UNL     1      -5.341  14.018  21.873  0.00  0.00    +0.000 A 
ATOM     28  C   UNL     1      -6.449  14.860  21.998  0.00  0.00    +0.000 A 
ATOM     29  C   UNL     1      -6.496  15.813  23.011  0.00  0.00    +0.000 A 
ATOM     30  C   UNL     1      -5.421  15.948  23.884  0.00  0.00    +0.000 A 
ATOM     31  C   UNL     1      -4.310  15.108  23.761  0.00  0.00    +0.000 A 
ENDBRANCH  24  26
BRANCH  25  32
ATOM     32  C   UNL     1      -1.807  14.089  20.729  0.00  0.00    +0.000 C 
ATOM     33  C   UNL     1      -2.047  15.567  20.728  0.00  0.00    +0.000 C 
ATOM     34  C   UNL     1      -0.644  15.039  20.869  0.00  0.00    +0.000 C 
ENDBRANCH  25  32
ENDBRANCH   2  21
TORSDOF 5
ENDMDL
MODEL 8
REMARK VINA RESULT:      -8.0      8.829     11.340
REMARK  Name = 
REMARK  5 active torsions:
REMARK  status: ('A' for Active; 'I' for Inactive)
REMARK    1  A    between atoms: C_2  and  C_19
REMARK    2  A    between atoms: N_3  and  C_4
REMARK    3  A    between atoms: C_7  and  C_8
REMARK    4  A    between atoms: N_22  and  C_23
REMARK    5  A    between atoms: C_29  and  C_30
REMARK                            x       y       z     vdW  Elec       q    Type
REMARK                         _______ _______ _______ _____ _____    ______ ____
ROOT
ATOM      1  O   UNL     1       0.338  12.190  19.244  0.00  0.00    +0.000 OA
ATOM      2  C   UNL     1      -0.504  11.484  19.787  0.00  0.00    +0.000 C 
ATOM      3  N   UNL     1      -0.433  10.112  19.921  0.00  0.00    +0.000 N 
ATOM      4  H   UNL     1      -1.225   9.660  20.358  0.00  0.00    +0.000 HD
ENDROOT
BRANCH   3   5
ATOM      5  C   UNL     1       0.616   9.275  19.483  0.00  0.00    +0.000 A 
ATOM      6  C   UNL     1       1.241   8.314  20.288  0.00  0.00    +0.000 A 
ATOM      7  C   UNL     1       2.270   7.503  19.782  0.00  0.00    +0.000 A 
ATOM      8  C   UNL     1       2.685   7.636  18.458  0.00  0.00    +0.000 A 
ATOM      9  C   UNL     1       2.065   8.606  17.659  0.00  0.00    +0.000 A 
ATOM     10  C   UNL     1       1.043   9.417  18.162  0.00  0.00    +0.000 A 
BRANCH   8  11
ATOM     11  C   UNL     1       3.666   6.741  17.842  0.00  0.00    +0.000 A 
ATOM     12  N   UNL     1       4.858   7.126  17.422  0.00  0.00    +0.000 NA
ATOM     13  C   UNL     1       5.410   6.043  16.796  0.00  0.00    +0.000 A 
ATOM     14  C   UNL     1       6.629   5.942  16.117  0.00  0.00    +0.000 A 
ATOM     15  C   UNL     1       6.964   4.722  15.525  0.00  0.00    +0.000 A 
ATOM     16  C   UNL     1       6.106   3.623  15.622  0.00  0.00    +0.000 A 
ATOM     17  C   UNL     1       4.886   3.705  16.308  0.00  0.00    +0.000 A 
ATOM     18  C   UNL     1       4.570   4.940  16.880  0.00  0.00    +0.000 A 
ATOM     19  N   UNL     1       3.482   5.398  17.586  0.00  0.00    +0.000 N 
ATOM     20  H   UNL     1       2.679   4.853  17.851  0.00  0.00    +0.000 HD
ENDBRANCH   8  11
ENDBRANCH   3   5
BRANCH   2  21
ATOM     21  C   UNL     1      -1.735  12.095  20.267  0.00  0.00    +0.000 A 
ATOM     22  C   UNL     1      -1.889  12.536  21.599  0.00  0.00    +0.000 A 
ATOM     23  N   UNL     1      -3.086  13.040  21.853  0.00  0.00    +0.000 NA
ATOM     24  N   UNL     1      -3.766  12.935  20.680  0.00  0.00    +0.000 N 
ATOM     25  C   UNL     1      -2.961  12.373  19.677  0.00  0.00    +0.000 A 
BRANCH  24  26
ATOM     26  C   UNL     1      -5.156  13.266  20.665  0.00  0.00    +0.000 A 
ATOM     27  C   UNL     1      -5.637  14.466  20.133  0.00  0.00    +0.000 A 
ATOM     28  C   UNL     1      -7.011  14.699  20.041  0.00  0.00    +0.000 A 
ATOM     29  C   UNL     1      -7.917  13.748  20.500  0.00  0.00    +0.000 A 
ATOM     30  C   UNL     1      -7.451  12.571  21.079  0.00  0.00    +0.000 A 
ATOM     31  C   UNL     1      -6.076  12.335  21.174  0.00  0.00    +0.000 A 
ENDBRANCH  24  26
BRANCH  25  32
ATOM     32  C   UNL     1      -3.437  11.974  18.285  0.00  0.00    +0.000 C 
ATOM     33  C   UNL     1      -3.064  10.723  17.553  0.00  0.00    +0.000 C 
ATOM     34  C   UNL     1      -4.419  10.832  18.198  0.00  0.00    +0.000 C 
ENDBRANCH  25  32
ENDBRANCH   2  21
TORSDOF 5
ENDMDL
MODEL 9
REMARK VINA RESULT:      -7.9      9.201     11.246
REMARK  Name = 
REMARK  5 active torsions:
REMARK  status: ('A' for Active; 'I' for Inactive)
REMARK    1  A    between atoms: C_2  and  C_19
REMARK    2  A    between atoms: N_3  and  C_4
REMARK    3  A    between atoms: C_7  and  C_8
REMARK    4  A    between atoms: N_22  and  C_23
REMARK    5  A    between atoms: C_29  and  C_30
REMARK                            x       y       z     vdW  Elec       q    Type
REMARK                         _______ _______ _______ _____ _____    ______ ____
ROOT
ATOM      1  O   UNL     1       0.242  12.435  19.999  0.00  0.00    +0.000 OA
ATOM      2  C   UNL     1      -0.407  11.730  20.764  0.00  0.00    +0.000 C 
ATOM      3  N   UNL     1      -0.337  10.354  20.839  0.00  0.00    +0.000 N 
ATOM      4  H   UNL     1      -0.965   9.905  21.493  0.00  0.00    +0.000 HD
ENDROOT
BRANCH   3   5
ATOM      5  C   UNL     1       0.497   9.509  20.076  0.00  0.00    +0.000 A 
ATOM      6  C   UNL     1       0.740   9.674  18.707  0.00  0.00    +0.000 A 
ATOM      7  C   UNL     1       1.594   8.802  18.012  0.00  0.00    +0.000 A 
ATOM      8  C   UNL     1       2.227   7.755  18.681  0.00  0.00    +0.000 A 
ATOM      9  C   UNL     1       1.972   7.586  20.048  0.00  0.00    +0.000 A 
ATOM     10  C   UNL     1       1.118   8.450  20.740  0.00  0.00    +0.000 A 
BRANCH   8  11
ATOM     11  C   UNL     1       3.218   6.889  18.039  0.00  0.00    +0.000 A 
ATOM     12  N   UNL     1       4.295   7.332  17.414  0.00  0.00    +0.000 NA
ATOM     13  C   UNL     1       4.882   6.238  16.845  0.00  0.00    +0.000 A 
ATOM     14  C   UNL     1       6.009   6.170  16.017  0.00  0.00    +0.000 A 
ATOM     15  C   UNL     1       6.403   4.923  15.526  0.00  0.00    +0.000 A 
ATOM     16  C   UNL     1       5.696   3.767  15.867  0.00  0.00    +0.000 A 
ATOM     17  C   UNL     1       4.571   3.816  16.704  0.00  0.00    +0.000 A 
ATOM     18  C   UNL     1       4.192   5.077  17.170  0.00  0.00    +0.000 A 
ATOM     19  N   UNL     1       3.158   5.513  17.966  0.00  0.00    +0.000 N 
ATOM     20  H   UNL     1       2.463   4.930  18.402  0.00  0.00    +0.000 HD
ENDBRANCH   8  11
ENDBRANCH   3   5
BRANCH   2  21
ATOM     21  C   UNL     1      -1.408  12.353  21.619  0.00  0.00    +0.000 A 
ATOM     22  C   UNL     1      -1.266  12.418  23.022  0.00  0.00    +0.000 A 
ATOM     23  N   UNL     1      -2.289  12.998  23.629  0.00  0.00    +0.000 NA
ATOM     24  N   UNL     1      -3.150  13.326  22.629  0.00  0.00    +0.000 N 
ATOM     25  C   UNL     1      -2.634  12.959  21.376  0.00  0.00    +0.000 A 
BRANCH  24  26
ATOM     26  C   UNL     1      -4.435  13.844  22.977  0.00  0.00    +0.000 A 
ATOM     27  C   UNL     1      -5.505  13.021  23.335  0.00  0.00    +0.000 A 
ATOM     28  C   UNL     1      -6.711  13.576  23.773  0.00  0.00    +0.000 A 
ATOM     29  C   UNL     1      -6.865  14.957  23.836  0.00  0.00    +0.000 A 
ATOM     30  C   UNL     1      -5.825  15.789  23.434  0.00  0.00    +0.000 A 
ATOM     31  C   UNL     1      -4.618  15.237  22.994  0.00  0.00    +0.000 A 
ENDBRANCH  24  26
BRANCH  25  32
ATOM     32  C   UNL     1      -3.387  13.041  20.054  0.00  0.00    +0.000 C 
ATOM     33  C   UNL     1      -3.403  11.994  18.984  0.00  0.00    +0.000 C 
ATOM     34  C   UNL     1      -4.591  12.147  19.895  0.00  0.00    +0.000 C 
ENDBRANCH  25  32
ENDBRANCH   2  21
TORSDOF 5
ENDMDL
