MODEL 1
REMARK VINA RESULT:      -6.9      0.000      0.000
REMARK  Name = 
REMARK  9 active torsions:
REMARK  status: ('A' for Active; 'I' for Inactive)
REMARK    1  A    between atoms: C_1  and  C_2
REMARK    2  A    between atoms: N_4  and  C_5
REMARK    3  A    between atoms: C_5  and  C_6
REMARK    4  A    between atoms: C_5  and  C_7
REMARK    5  A    between atoms: C_5  and  C_8
REMARK    6  A    between atoms: C_11  and  N_12
REMARK    7  A    between atoms: C_16  and  C_17
REMARK    8  A    between atoms: C_19  and  N_20
REMARK    9  A    between atoms: N_20  and  C_21
REMARK                            x       y       z     vdW  Elec       q    Type
REMARK                         _______ _______ _______ _____ _____    ______ ____
ROOT
ATOM      1  N   UNL     1       1.734   9.414  17.861  0.00  0.00    +0.000 N 
ATOM      2  C   UNL     1       2.453   8.240  18.125  0.00  0.00    +0.000 A 
ATOM      3  N   UNL     1       3.419   7.881  17.280  0.00  0.00    +0.000 NA
ATOM      4  C   UNL     1       4.077   6.742  17.590  0.00  0.00    +0.000 A 
ATOM      5  C   UNL     1       3.823   5.957  18.702  0.00  0.00    +0.000 A 
ATOM      6  C   UNL     1       2.813   6.397  19.520  0.00  0.00    +0.000 A 
ATOM      7  N   UNL     1       2.159   7.528  19.224  0.00  0.00    +0.000 NA
ATOM      8  H   UNL     1       2.177   9.918  17.105  0.00  0.00    +0.000 HD
ENDROOT
BRANCH   1  14
ATOM      9  C   UNL     1      -1.346   9.659  17.059  0.00  0.00    +0.000 C 
ATOM     10  C   UNL     1      -0.644  10.071  18.300  0.00  0.00    +0.000 A 
ATOM     11  N   UNL     1      -1.309  10.698  19.291  0.00  0.00    +0.000 NA
ATOM     12  N   UNL     1      -0.354  10.965  20.213  0.00  0.00    +0.000 N 
ATOM     13  C   UNL     1       0.856  10.441  19.867  0.00  0.00    +0.000 A 
ATOM     14  C   UNL     1       0.731   9.927  18.604  0.00  0.00    +0.000 A 
BRANCH  12  15
ATOM     15  C   UNL     1      -0.613  11.686  21.469  0.00  0.00    +0.000 C 
ATOM     16  C   UNL     1       0.284  12.923  21.649  0.00  0.00    +0.000 C 
ATOM     17  C   UNL     1      -2.089  12.141  21.486  0.00  0.00    +0.000 C 
BRANCH  15  18
ATOM     18  C   UNL     1      -0.387  10.772  22.620  0.00  0.00    +0.000 C 
ATOM     19  N   UNL     1      -0.183  10.040  23.501  0.00  0.00    +0.000 NA
ENDBRANCH  15  18
ENDBRANCH  12  15
ENDBRANCH   1  14
BRANCH   5  20
ATOM     20  C   UNL     1       4.588   4.777  18.899  0.00  0.00    +0.000 C 
ATOM     21  N   UNL     1       5.235   3.816  18.983  0.00  0.00    +0.000 NA
ENDBRANCH   5  20
BRANCH   6  22
ATOM     22  N   UNL     1       2.267   5.774  20.640  0.00  0.00    +0.000 N 
ATOM     23  H   UNL     1       3.039   5.605  21.288  0.00  0.00    +0.000 HD
BRANCH  22  24
ATOM     24  C   UNL     1       1.182   4.810  20.660  0.00  0.00    +0.000 C 
ATOM     25  C   UNL     1       1.251   3.651  19.692  0.00  0.00    +0.000 C 
ATOM     26  C   UNL     1       1.362   3.410  21.164  0.00  0.00    +0.000 C 
ENDBRANCH  22  24
ENDBRANCH   6  22
TORSDOF 6
ENDMDL
MODEL 2
REMARK VINA RESULT:      -6.8      1.689      6.987
REMARK  Name = 
REMARK  9 active torsions:
REMARK  status: ('A' for Active; 'I' for Inactive)
REMARK    1  A    between atoms: C_1  and  C_2
REMARK    2  A    between atoms: N_4  and  C_5
REMARK    3  A    between atoms: C_5  and  C_6
REMARK    4  A    between atoms: C_5  and  C_7
REMARK    5  A    between atoms: C_5  and  C_8
REMARK    6  A    between atoms: C_11  and  N_12
REMARK    7  A    between atoms: C_16  and  C_17
REMARK    8  A    between atoms: C_19  and  N_20
REMARK    9  A    between atoms: N_20  and  C_21
REMARK                            x       y       z     vdW  Elec       q    Type
REMARK                         _______ _______ _______ _____ _____    ______ ____
ROOT
ATOM      1  N   UNL     1       3.286   7.134  17.743  0.00  0.00    +0.000 N 
ATOM      2  C   UNL     1       2.546   8.248  18.161  0.00  0.00    +0.000 A 
ATOM      3  N   UNL     1       2.570   9.347  17.408  0.00  0.00    +0.000 NA
ATOM      4  C   UNL     1       1.836  10.387  17.863  0.00  0.00    +0.000 A 
ATOM      5  C   UNL     1       1.077  10.374  19.021  0.00  0.00    +0.000 A 
ATOM      6  C   UNL     1       1.107   9.205  19.738  0.00  0.00    +0.000 A 
ATOM      7  N   UNL     1       1.828   8.167  19.292  0.00  0.00    +0.000 NA
ATOM      8  H   UNL     1       3.631   7.289  16.805  0.00  0.00    +0.000 HD
ENDROOT
BRANCH   1  14
ATOM      9  C   UNL     1       5.895   5.802  19.013  0.00  0.00    +0.000 C 
ATOM     10  C   UNL     1       4.500   5.300  18.947  0.00  0.00    +0.000 A 
ATOM     11  N   UNL     1       4.182   4.082  19.428  0.00  0.00    +0.000 NA
ATOM     12  N   UNL     1       2.865   3.948  19.148  0.00  0.00    +0.000 N 
ATOM     13  C   UNL     1       2.338   5.077  18.595  0.00  0.00    +0.000 A 
ATOM     14  C   UNL     1       3.376   5.943  18.375  0.00  0.00    +0.000 A 
BRANCH  12  15
ATOM     15  C   UNL     1       2.084   2.740  19.460  0.00  0.00    +0.000 C 
ATOM     16  C   UNL     1       0.704   2.722  18.780  0.00  0.00    +0.000 C 
ATOM     17  C   UNL     1       2.879   1.500  18.995  0.00  0.00    +0.000 C 
BRANCH  15  18
ATOM     18  C   UNL     1       1.883   2.648  20.930  0.00  0.00    +0.000 C 
ATOM     19  N   UNL     1       1.760   2.563  22.085  0.00  0.00    +0.000 NA
ENDBRANCH  15  18
ENDBRANCH  12  15
ENDBRANCH   1  14
BRANCH   5  20
ATOM     20  C   UNL     1       0.360  11.546  19.384  0.00  0.00    +0.000 C 
ATOM     21  N   UNL     1      -0.293  12.463  19.668  0.00  0.00    +0.000 NA
ENDBRANCH   5  20
BRANCH   6  22
ATOM     22  N   UNL     1       0.537   8.930  20.978  0.00  0.00    +0.000 N 
ATOM     23  H   UNL     1      -0.382   8.523  20.796  0.00  0.00    +0.000 HD
BRANCH  22  24
ATOM     24  C   UNL     1       0.668   9.716  22.191  0.00  0.00    +0.000 C 
ATOM     25  C   UNL     1      -0.560  10.435  22.702  0.00  0.00    +0.000 C 
ATOM     26  C   UNL     1       0.029   9.306  23.485  0.00  0.00    +0.000 C 
ENDBRANCH  22  24
ENDBRANCH   6  22
TORSDOF 6
ENDMDL
MODEL 3
REMARK VINA RESULT:      -6.8      0.754      1.249
REMARK  Name = 
REMARK  9 active torsions:
REMARK  status: ('A' for Active; 'I' for Inactive)
REMARK    1  A    between atoms: C_1  and  C_2
REMARK    2  A    between atoms: N_4  and  C_5
REMARK    3  A    between atoms: C_5  and  C_6
REMARK    4  A    between atoms: C_5  and  C_7
REMARK    5  A    between atoms: C_5  and  C_8
REMARK    6  A    between atoms: C_11  and  N_12
REMARK    7  A    between atoms: C_16  and  C_17
REMARK    8  A    between atoms: C_19  and  N_20
REMARK    9  A    between atoms: N_20  and  C_21
REMARK                            x       y       z     vdW  Elec       q    Type
REMARK                         _______ _______ _______ _____ _____    ______ ____
ROOT
ATOM      1  N   UNL     1       1.553   9.643  17.797  0.00  0.00    +0.000 N 
ATOM      2  C   UNL     1       2.308   8.485  18.027  0.00  0.00    +0.000 A 
ATOM      3  N   UNL     1       3.265   8.166  17.156  0.00  0.00    +0.000 NA
ATOM      4  C   UNL     1       3.959   7.040  17.432  0.00  0.00    +0.000 A 
ATOM      5  C   UNL     1       3.749   6.230  18.536  0.00  0.00    +0.000 A 
ATOM      6  C   UNL     1       2.746   6.629  19.382  0.00  0.00    +0.000 A 
ATOM      7  N   UNL     1       2.056   7.746  19.119  0.00  0.00    +0.000 NA
ATOM      8  H   UNL     1       1.966  10.172  17.041  0.00  0.00    +0.000 HD
ENDROOT
BRANCH   1  14
ATOM      9  C   UNL     1      -1.552   9.801  17.071  0.00  0.00    +0.000 C 
ATOM     10  C   UNL     1      -0.834  10.221  18.300  0.00  0.00    +0.000 A 
ATOM     11  N   UNL     1      -1.493  10.816  19.313  0.00  0.00    +0.000 NA
ATOM     12  N   UNL     1      -0.526  11.103  20.216  0.00  0.00    +0.000 N 
ATOM     13  C   UNL     1       0.692  10.621  19.836  0.00  0.00    +0.000 A 
ATOM     14  C   UNL     1       0.552  10.117  18.570  0.00  0.00    +0.000 A 
BRANCH  12  15
ATOM     15  C   UNL     1      -0.777  11.802  21.486  0.00  0.00    +0.000 C 
ATOM     16  C   UNL     1      -2.197  12.386  21.580  0.00  0.00    +0.000 C 
ATOM     17  C   UNL     1      -0.575  10.807  22.650  0.00  0.00    +0.000 C 
BRANCH  15  18
ATOM     18  C   UNL     1       0.198  12.914  21.640  0.00  0.00    +0.000 C 
ATOM     19  N   UNL     1       0.985  13.761  21.776  0.00  0.00    +0.000 NA
ENDBRANCH  15  18
ENDBRANCH  12  15
ENDBRANCH   1  14
BRANCH   5  20
ATOM     20  C   UNL     1       4.550   5.068  18.697  0.00  0.00    +0.000 C 
ATOM     21  N   UNL     1       5.139   4.078  18.849  0.00  0.00    +0.000 NA
ENDBRANCH   5  20
BRANCH   6  22
ATOM     22  N   UNL     1       2.240   5.973  20.502  0.00  0.00    +0.000 N 
ATOM     23  H   UNL     1       3.026   5.830  21.138  0.00  0.00    +0.000 HD
BRANCH  22  24
ATOM     24  C   UNL     1       1.196   4.966  20.525  0.00  0.00    +0.000 C 
ATOM     25  C   UNL     1       1.349   3.770  19.612  0.00  0.00    +0.000 C 
ATOM     26  C   UNL     1       1.415   3.596  21.096  0.00  0.00    +0.000 C 
ENDBRANCH  22  24
ENDBRANCH   6  22
TORSDOF 6
ENDMDL
MODEL 4
REMARK VINA RESULT:      -6.7      1.622      7.339
REMARK  Name = 
REMARK  9 active torsions:
REMARK  status: ('A' for Active; 'I' for Inactive)
REMARK    1  A    between atoms: C_1  and  C_2
REMARK    2  A    between atoms: N_4  and  C_5
REMARK    3  A    between atoms: C_5  and  C_6
REMARK    4  A    between atoms: C_5  and  C_7
REMARK    5  A    between atoms: C_5  and  C_8
REMARK    6  A    between atoms: C_11  and  N_12
REMARK    7  A    between atoms: C_16  and  C_17
REMARK    8  A    between atoms: C_19  and  N_20
REMARK    9  A    between atoms: N_20  and  C_21
REMARK                            x       y       z     vdW  Elec       q    Type
REMARK                         _______ _______ _______ _____ _____    ______ ____
ROOT
ATOM      1  N   UNL     1       1.949   8.347  20.973  0.00  0.00    +0.000 N 
ATOM      2  C   UNL     1       0.978   9.350  20.856  0.00  0.00    +0.000 A 
ATOM      3  N   UNL     1       0.970  10.336  21.754  0.00  0.00    +0.000 NA
ATOM      4  C   UNL     1       0.011  11.273  21.588  0.00  0.00    +0.000 A 
ATOM      5  C   UNL     1      -0.926  11.277  20.568  0.00  0.00    +0.000 A 
ATOM      6  C   UNL     1      -0.849  10.228  19.688  0.00  0.00    +0.000 A 
ATOM      7  N   UNL     1       0.101   9.296  19.841  0.00  0.00    +0.000 NA
ATOM      8  H   UNL     1       2.628   8.613  21.674  0.00  0.00    +0.000 HD
ENDROOT
BRANCH   1  14
ATOM      9  C   UNL     1       2.737   8.368  17.879  0.00  0.00    +0.000 C 
ATOM     10  C   UNL     1       2.443   7.229  18.784  0.00  0.00    +0.000 A 
ATOM     11  N   UNL     1       2.437   5.964  18.320  0.00  0.00    +0.000 NA
ATOM     12  N   UNL     1       2.080   5.219  19.392  0.00  0.00    +0.000 N 
ATOM     13  C   UNL     1       1.960   5.970  20.523  0.00  0.00    +0.000 A 
ATOM     14  C   UNL     1       2.107   7.281  20.158  0.00  0.00    +0.000 A 
BRANCH  12  15
ATOM     15  C   UNL     1       1.904   3.758  19.347  0.00  0.00    +0.000 C 
ATOM     16  C   UNL     1       0.819   3.253  20.314  0.00  0.00    +0.000 C 
ATOM     17  C   UNL     1       1.512   3.349  17.910  0.00  0.00    +0.000 C 
BRANCH  15  18
ATOM     18  C   UNL     1       3.188   3.094  19.695  0.00  0.00    +0.000 C 
ATOM     19  N   UNL     1       4.201   2.571  19.930  0.00  0.00    +0.000 NA
ENDBRANCH  15  18
ENDBRANCH  12  15
ENDBRANCH   1  14
BRANCH   5  20
ATOM     20  C   UNL     1      -1.885  12.324  20.520  0.00  0.00    +0.000 C 
ATOM     21  N   UNL     1      -2.608  13.232  20.483  0.00  0.00    +0.000 NA
ENDBRANCH   5  20
BRANCH   6  22
ATOM     22  N   UNL     1      -1.706   9.909  18.637  0.00  0.00    +0.000 N 
ATOM     23  H   UNL     1      -1.823   8.895  18.651  0.00  0.00    +0.000 HD
BRANCH  22  24
ATOM     24  C   UNL     1      -1.769  10.551  17.338  0.00  0.00    +0.000 C 
ATOM     25  C   UNL     1      -2.626   9.906  16.273  0.00  0.00    +0.000 C 
ATOM     26  C   UNL     1      -3.006  11.237  16.840  0.00  0.00    +0.000 C 
ENDBRANCH  22  24
ENDBRANCH   6  22
TORSDOF 6
ENDMDL
MODEL 5
REMARK VINA RESULT:      -6.7      1.646      7.369
REMARK  Name = 
REMARK  9 active torsions:
REMARK  status: ('A' for Active; 'I' for Inactive)
REMARK    1  A    between atoms: C_1  and  C_2
REMARK    2  A    between atoms: N_4  and  C_5
REMARK    3  A    between atoms: C_5  and  C_6
REMARK    4  A    between atoms: C_5  and  C_7
REMARK    5  A    between atoms: C_5  and  C_8
REMARK    6  A    between atoms: C_11  and  N_12
REMARK    7  A    between atoms: C_16  and  C_17
REMARK    8  A    between atoms: C_19  and  N_20
REMARK    9  A    between atoms: N_20  and  C_21
REMARK                            x       y       z     vdW  Elec       q    Type
REMARK                         _______ _______ _______ _____ _____    ______ ____
ROOT
ATOM      1  N   UNL     1       2.058   6.961  21.017  0.00  0.00    +0.000 N 
ATOM      2  C   UNL     1       1.375   8.180  20.914  0.00  0.00    +0.000 A 
ATOM      3  N   UNL     1       1.057   8.828  22.034  0.00  0.00    +0.000 NA
ATOM      4  C   UNL     1       0.401   9.998  21.868  0.00  0.00    +0.000 A 
ATOM      5  C   UNL     1       0.060  10.550  20.645  0.00  0.00    +0.000 A 
ATOM      6  C   UNL     1       0.423   9.819  19.543  0.00  0.00    +0.000 A 
ATOM      7  N   UNL     1       1.078   8.661  19.696  0.00  0.00    +0.000 NA
ATOM      8  H   UNL     1       2.352   6.818  21.974  0.00  0.00    +0.000 HD
ENDROOT
BRANCH   1  14
ATOM      9  C   UNL     1       0.846   4.137  20.151  0.00  0.00    +0.000 C 
ATOM     10  C   UNL     1       1.969   4.914  19.572  0.00  0.00    +0.000 A 
ATOM     11  N   UNL     1       2.689   4.423  18.544  0.00  0.00    +0.000 NA
ATOM     12  N   UNL     1       3.642   5.361  18.328  0.00  0.00    +0.000 N 
ATOM     13  C   UNL     1       3.477   6.455  19.124  0.00  0.00    +0.000 A 
ATOM     14  C   UNL     1       2.459   6.173  19.996  0.00  0.00    +0.000 A 
BRANCH  12  15
ATOM     15  C   UNL     1       4.696   5.232  17.309  0.00  0.00    +0.000 C 
ATOM     16  C   UNL     1       4.403   4.129  16.277  0.00  0.00    +0.000 C 
ATOM     17  C   UNL     1       4.836   6.578  16.566  0.00  0.00    +0.000 C 
BRANCH  15  18
ATOM     18  C   UNL     1       5.990   4.921  17.973  0.00  0.00    +0.000 C 
ATOM     19  N   UNL     1       6.988   4.689  18.525  0.00  0.00    +0.000 NA
ENDBRANCH  15  18
ENDBRANCH  12  15
ENDBRANCH   1  14
BRANCH   5  20
ATOM     20  C   UNL     1      -0.640  11.787  20.620  0.00  0.00    +0.000 C 
ATOM     21  N   UNL     1      -1.235  12.782  20.674  0.00  0.00    +0.000 NA
ENDBRANCH   5  20
BRANCH   6  22
ATOM     22  N   UNL     1       0.130  10.062  18.203  0.00  0.00    +0.000 N 
ATOM     23  H   UNL     1       0.989  10.409  17.772  0.00  0.00    +0.000 HD
BRANCH  22  24
ATOM     24  C   UNL     1      -1.116  10.569  17.661  0.00  0.00    +0.000 C 
ATOM     25  C   UNL     1      -1.856   9.704  16.666  0.00  0.00    +0.000 C 
ATOM     26  C   UNL     1      -2.446   9.972  18.014  0.00  0.00    +0.000 C 
ENDBRANCH  22  24
ENDBRANCH   6  22
TORSDOF 6
ENDMDL
MODEL 6
REMARK VINA RESULT:      -6.7      1.621      7.064
REMARK  Name = 
REMARK  9 active torsions:
REMARK  status: ('A' for Active; 'I' for Inactive)
REMARK    1  A    between atoms: C_1  and  C_2
REMARK    2  A    between atoms: N_4  and  C_5
REMARK    3  A    between atoms: C_5  and  C_6
REMARK    4  A    between atoms: C_5  and  C_7
REMARK    5  A    between atoms: C_5  and  C_8
REMARK    6  A    between atoms: C_11  and  N_12
REMARK    7  A    between atoms: C_16  and  C_17
REMARK    8  A    between atoms: C_19  and  N_20
REMARK    9  A    between atoms: N_20  and  C_21
REMARK                            x       y       z     vdW  Elec       q    Type
REMARK                         _______ _______ _______ _____ _____    ______ ____
ROOT
ATOM      1  N   UNL     1       2.945   7.117  17.656  0.00  0.00    +0.000 N 
ATOM      2  C   UNL     1       2.240   8.218  18.160  0.00  0.00    +0.000 A 
ATOM      3  N   UNL     1       1.854   9.169  17.310  0.00  0.00    +0.000 NA
ATOM      4  C   UNL     1       1.177  10.204  17.856  0.00  0.00    +0.000 A 
ATOM      5  C   UNL     1       0.861  10.325  19.199  0.00  0.00    +0.000 A 
ATOM      6  C   UNL     1       1.295   9.303  20.005  0.00  0.00    +0.000 A 
ATOM      7  N   UNL     1       1.963   8.271  19.472  0.00  0.00    +0.000 NA
ATOM      8  H   UNL     1       2.928   7.138  16.645  0.00  0.00    +0.000 HD
ENDROOT
BRANCH   1  14
ATOM      9  C   UNL     1       5.988   6.241  18.064  0.00  0.00    +0.000 C 
ATOM     10  C   UNL     1       4.738   5.623  18.572  0.00  0.00    +0.000 A 
ATOM     11  N   UNL     1       4.776   4.486  19.293  0.00  0.00    +0.000 NA
ATOM     12  N   UNL     1       3.473   4.198  19.527  0.00  0.00    +0.000 N 
ATOM     13  C   UNL     1       2.640   5.169  19.058  0.00  0.00    +0.000 A 
ATOM     14  C   UNL     1       3.409   6.065  18.365  0.00  0.00    +0.000 A 
BRANCH  12  15
ATOM     15  C   UNL     1       3.021   3.003  20.258  0.00  0.00    +0.000 C 
ATOM     16  C   UNL     1       2.196   3.340  21.511  0.00  0.00    +0.000 C 
ATOM     17  C   UNL     1       2.155   2.141  19.313  0.00  0.00    +0.000 C 
BRANCH  15  18
ATOM     18  C   UNL     1       4.203   2.203  20.676  0.00  0.00    +0.000 C 
ATOM     19  N   UNL     1       5.117   1.581  21.039  0.00  0.00    +0.000 NA
ENDBRANCH  15  18
ENDBRANCH  12  15
ENDBRANCH   1  14
BRANCH   5  20
ATOM     20  C   UNL     1       0.150  11.475  19.636  0.00  0.00    +0.000 C 
ATOM     21  N   UNL     1      -0.479  12.366  20.033  0.00  0.00    +0.000 NA
ENDBRANCH   5  20
BRANCH   6  22
ATOM     22  N   UNL     1       1.220   9.197  21.391  0.00  0.00    +0.000 N 
ATOM     23  H   UNL     1       2.048   8.680  21.692  0.00  0.00    +0.000 HD
BRANCH  22  24
ATOM     24  C   UNL     1       0.020   9.020  22.188  0.00  0.00    +0.000 C 
ATOM     25  C   UNL     1       0.115   9.286  23.673  0.00  0.00    +0.000 C 
ATOM     26  C   UNL     1      -0.713  10.176  22.802  0.00  0.00    +0.000 C 
ENDBRANCH  22  24
ENDBRANCH   6  22
TORSDOF 6
ENDMDL
MODEL 7
REMARK VINA RESULT:      -6.6      0.765      1.307
REMARK  Name = 
REMARK  9 active torsions:
REMARK  status: ('A' for Active; 'I' for Inactive)
REMARK    1  A    between atoms: C_1  and  C_2
REMARK    2  A    between atoms: N_4  and  C_5
REMARK    3  A    between atoms: C_5  and  C_6
REMARK    4  A    between atoms: C_5  and  C_7
REMARK    5  A    between atoms: C_5  and  C_8
REMARK    6  A    between atoms: C_11  and  N_12
REMARK    7  A    between atoms: C_16  and  C_17
REMARK    8  A    between atoms: C_19  and  N_20
REMARK    9  A    between atoms: N_20  and  C_21
REMARK                            x       y       z     vdW  Elec       q    Type
REMARK                         _______ _______ _______ _____ _____    ______ ____
ROOT
ATOM      1  N   UNL     1       1.553   9.591  17.797  0.00  0.00    +0.000 N 
ATOM      2  C   UNL     1       2.322   8.445  18.038  0.00  0.00    +0.000 A 
ATOM      3  N   UNL     1       3.279   8.126  17.166  0.00  0.00    +0.000 NA
ATOM      4  C   UNL     1       3.987   7.011  17.454  0.00  0.00    +0.000 A 
ATOM      5  C   UNL     1       3.792   6.213  18.569  0.00  0.00    +0.000 A 
ATOM      6  C   UNL     1       2.788   6.612  19.415  0.00  0.00    +0.000 A 
ATOM      7  N   UNL     1       2.084   7.718  19.141  0.00  0.00    +0.000 NA
ATOM      8  H   UNL     1       1.957  10.114  17.032  0.00  0.00    +0.000 HD
ENDROOT
BRANCH   1  14
ATOM      9  C   UNL     1      -1.549   9.761  17.060  0.00  0.00    +0.000 C 
ATOM     10  C   UNL     1      -0.834  10.173  18.294  0.00  0.00    +0.000 A 
ATOM     11  N   UNL     1      -1.496  10.764  19.308  0.00  0.00    +0.000 NA
ATOM     12  N   UNL     1      -0.530  11.044  20.215  0.00  0.00    +0.000 N 
ATOM     13  C   UNL     1       0.687  10.561  19.837  0.00  0.00    +0.000 A 
ATOM     14  C   UNL     1       0.550  10.064  18.569  0.00  0.00    +0.000 A 
BRANCH  12  15
ATOM     15  C   UNL     1      -0.785  11.738  21.488  0.00  0.00    +0.000 C 
ATOM     16  C   UNL     1      -0.638  10.820  22.714  0.00  0.00    +0.000 C 
ATOM     17  C   UNL     1       0.214  12.908  21.625  0.00  0.00    +0.000 C 
BRANCH  15  18
ATOM     18  C   UNL     1      -2.165  12.292  21.481  0.00  0.00    +0.000 C 
ATOM     19  N   UNL     1      -3.231  12.759  21.486  0.00  0.00    +0.000 NA
ENDBRANCH  15  18
ENDBRANCH  12  15
ENDBRANCH   1  14
BRANCH   5  20
ATOM     20  C   UNL     1       4.607   5.062  18.741  0.00  0.00    +0.000 C 
ATOM     21  N   UNL     1       5.236   4.109  18.950  0.00  0.00    +0.000 NA
ENDBRANCH   5  20
BRANCH   6  22
ATOM     22  N   UNL     1       2.296   5.965  20.546  0.00  0.00    +0.000 N 
ATOM     23  H   UNL     1       3.093   5.807  21.165  0.00  0.00    +0.000 HD
BRANCH  22  24
ATOM     24  C   UNL     1       1.234   4.978  20.593  0.00  0.00    +0.000 C 
ATOM     25  C   UNL     1       1.310   3.814  19.631  0.00  0.00    +0.000 C 
ATOM     26  C   UNL     1       1.455   3.585  21.102  0.00  0.00    +0.000 C 
ENDBRANCH  22  24
ENDBRANCH   6  22
TORSDOF 6
ENDMDL
MODEL 8
REMARK VINA RESULT:      -6.4      1.861      7.376
REMARK  Name = 
REMARK  9 active torsions:
REMARK  status: ('A' for Active; 'I' for Inactive)
REMARK    1  A    between atoms: C_1  and  C_2
REMARK    2  A    between atoms: N_4  and  C_5
REMARK    3  A    between atoms: C_5  and  C_6
REMARK    4  A    between atoms: C_5  and  C_7
REMARK    5  A    between atoms: C_5  and  C_8
REMARK    6  A    between atoms: C_11  and  N_12
REMARK    7  A    between atoms: C_16  and  C_17
REMARK    8  A    between atoms: C_19  and  N_20
REMARK    9  A    between atoms: N_20  and  C_21
REMARK                            x       y       z     vdW  Elec       q    Type
REMARK                         _______ _______ _______ _____ _____    ______ ____
ROOT
ATOM      1  N   UNL     1       1.874   7.858  20.859  0.00  0.00    +0.000 N 
ATOM      2  C   UNL     1       1.035   8.966  20.681  0.00  0.00    +0.000 A 
ATOM      3  N   UNL     1       0.786   9.750  21.730  0.00  0.00    +0.000 NA
ATOM      4  C   UNL     1      -0.029  10.803  21.495  0.00  0.00    +0.000 A 
ATOM      5  C   UNL     1      -0.593  11.111  20.268  0.00  0.00    +0.000 A 
ATOM      6  C   UNL     1      -0.287  10.253  19.242  0.00  0.00    +0.000 A 
ATOM      7  N   UNL     1       0.524   9.210  19.464  0.00  0.00    +0.000 NA
ATOM      8  H   UNL     1       2.306   7.904  21.772  0.00  0.00    +0.000 HD
ENDROOT
BRANCH   1  14
ATOM      9  C   UNL     1       2.787   8.461  17.860  0.00  0.00    +0.000 C 
ATOM     10  C   UNL     1       2.638   7.168  18.573  0.00  0.00    +0.000 A 
ATOM     11  N   UNL     1       2.852   6.001  17.935  0.00  0.00    +0.000 NA
ATOM     12  N   UNL     1       2.571   5.058  18.864  0.00  0.00    +0.000 N 
ATOM     13  C   UNL     1       2.282   5.604  20.080  0.00  0.00    +0.000 A 
ATOM     14  C   UNL     1       2.235   6.962  19.914  0.00  0.00    +0.000 A 
BRANCH  12  15
ATOM     15  C   UNL     1       2.630   3.611  18.601  0.00  0.00    +0.000 C 
ATOM     16  C   UNL     1       3.093   3.278  17.173  0.00  0.00    +0.000 C 
ATOM     17  C   UNL     1       3.613   2.964  19.602  0.00  0.00    +0.000 C 
BRANCH  15  18
ATOM     18  C   UNL     1       1.283   3.016  18.808  0.00  0.00    +0.000 C 
ATOM     19  N   UNL     1       0.224   2.573  18.999  0.00  0.00    +0.000 NA
ENDBRANCH  15  18
ENDBRANCH  12  15
ENDBRANCH   1  14
BRANCH   5  20
ATOM     20  C   UNL     1      -1.441  12.246  20.168  0.00  0.00    +0.000 C 
ATOM     21  N   UNL     1      -2.195  13.126  20.095  0.00  0.00    +0.000 NA
ENDBRANCH   5  20
BRANCH   6  22
ATOM     22  N   UNL     1      -0.780  10.244  17.940  0.00  0.00    +0.000 N 
ATOM     23  H   UNL     1      -0.283  10.978  17.433  0.00  0.00    +0.000 HD
BRANCH  22  24
ATOM     24  C   UNL     1      -2.145   9.979  17.526  0.00  0.00    +0.000 C 
ATOM     25  C   UNL     1      -2.933  11.121  16.924  0.00  0.00    +0.000 C 
ATOM     26  C   UNL     1      -2.553   9.944  16.083  0.00  0.00    +0.000 C 
ENDBRANCH  22  24
ENDBRANCH   6  22
TORSDOF 6
ENDMDL
MODEL 9
REMARK VINA RESULT:      -6.4      2.162      7.611
REMARK  Name = 
REMARK  9 active torsions:
REMARK  status: ('A' for Active; 'I' for Inactive)
REMARK    1  A    between atoms: C_1  and  C_2
REMARK    2  A    between atoms: N_4  and  C_5
REMARK    3  A    between atoms: C_5  and  C_6
REMARK    4  A    between atoms: C_5  and  C_7
REMARK    5  A    between atoms: C_5  and  C_8
REMARK    6  A    between atoms: C_11  and  N_12
REMARK    7  A    between atoms: C_16  and  C_17
REMARK    8  A    between atoms: C_19  and  N_20
REMARK    9  A    between atoms: N_20  and  C_21
REMARK                            x       y       z     vdW  Elec       q    Type
REMARK                         _______ _______ _______ _____ _____    ______ ____
ROOT
ATOM      1  N   UNL     1       2.619   6.228  20.077  0.00  0.00    +0.000 N 
ATOM      2  C   UNL     1       1.891   7.414  20.243  0.00  0.00    +0.000 A 
ATOM      3  N   UNL     1       1.221   7.595  21.381  0.00  0.00    +0.000 NA
ATOM      4  C   UNL     1       0.540   8.759  21.482  0.00  0.00    +0.000 A 
ATOM      5  C   UNL     1       0.507   9.745  20.510  0.00  0.00    +0.000 A 
ATOM      6  C   UNL     1       1.223   9.479  19.370  0.00  0.00    +0.000 A 
ATOM      7  N   UNL     1       1.905   8.331  19.263  0.00  0.00    +0.000 NA
ATOM      8  H   UNL     1       2.647   5.723  20.953  0.00  0.00    +0.000 HD
ENDROOT
BRANCH   1  14
ATOM      9  C   UNL     1       1.690   4.459  17.587  0.00  0.00    +0.000 C 
ATOM     10  C   UNL     1       3.001   5.093  17.875  0.00  0.00    +0.000 A 
ATOM     11  N   UNL     1       4.047   4.921  17.043  0.00  0.00    +0.000 NA
ATOM     12  N   UNL     1       5.063   5.582  17.646  0.00  0.00    +0.000 N 
ATOM     13  C   UNL     1       4.656   6.234  18.772  0.00  0.00    +0.000 A 
ATOM     14  C   UNL     1       3.353   5.879  18.999  0.00  0.00    +0.000 A 
BRANCH  12  15
ATOM     15  C   UNL     1       6.432   5.635  17.109  0.00  0.00    +0.000 C 
ATOM     16  C   UNL     1       7.396   4.673  17.824  0.00  0.00    +0.000 C 
ATOM     17  C   UNL     1       6.393   5.271  15.609  0.00  0.00    +0.000 C 
BRANCH  15  18
ATOM     18  C   UNL     1       6.963   7.018  17.247  0.00  0.00    +0.000 C 
ATOM     19  N   UNL     1       7.413   8.086  17.350  0.00  0.00    +0.000 NA
ENDBRANCH  15  18
ENDBRANCH  12  15
ENDBRANCH   1  14
BRANCH   5  20
ATOM     20  C   UNL     1      -0.260  10.917  20.747  0.00  0.00    +0.000 C 
ATOM     21  N   UNL     1      -0.893  11.852  21.017  0.00  0.00    +0.000 NA
ENDBRANCH   5  20
BRANCH   6  22
ATOM     22  N   UNL     1       1.295  10.223  18.195  0.00  0.00    +0.000 N 
ATOM     23  H   UNL     1       1.230   9.559  17.422  0.00  0.00    +0.000 HD
BRANCH  22  24
ATOM     24  C   UNL     1       2.094  11.412  17.963  0.00  0.00    +0.000 C 
ATOM     25  C   UNL     1       1.384  12.746  17.945  0.00  0.00    +0.000 C 
ATOM     26  C   UNL     1       2.354  12.426  19.037  0.00  0.00    +0.000 C 
ENDBRANCH  22  24
ENDBRANCH   6  22
TORSDOF 6
ENDMDL
