MODEL 1
REMARK VINA RESULT:      -7.6      0.000      0.000
REMARK  Name = 
REMARK  18 active torsions:
REMARK  status: ('A' for Active; 'I' for Inactive)
REMARK    1  A    between atoms: C_1  and  C_2
REMARK    2  A    between atoms: C_2  and  C_3
REMARK    3  A    between atoms: C_3  and  O_4
REMARK    4  A    between atoms: O_4  and  C_5
REMARK    5  A    between atoms: C_8  and  N_9
REMARK    6  A    between atoms: C_10  and  O_12
REMARK    7  A    between atoms: O_12  and  C_13
REMARK    8  A    between atoms: C_13  and  C_14
REMARK    9  A    between atoms: C_13  and  C_26
REMARK   10  A    between atoms: C_14  and  N_15
REMARK   11  A    between atoms: C_17  and  C_18
REMARK   12  A    between atoms: C_18  and  C_19
REMARK   13  A    between atoms: C_18  and  C_20
REMARK   14  A    between atoms: C_22  and  C_23
REMARK   15  A    between atoms: C_23  and  C_24
REMARK   16  A    between atoms: C_23  and  C_25
REMARK   17  A    between atoms: C_26  and  C_27
REMARK   18  A    between atoms: C_26  and  C_28
REMARK                            x       y       z     vdW  Elec       q    Type
REMARK                         _______ _______ _______ _____ _____    ______ ____
ROOT
ATOM      1  C   UNL     1       3.438   4.779  18.210  0.00  0.00    +0.000 C 
ENDROOT
BRANCH   1   2
ATOM      2  C   UNL     1       4.176   3.405  18.293  0.00  0.00    +0.000 C 
ATOM      3  C   UNL     1       4.692   3.119  19.705  0.00  0.00    +0.000 C 
ATOM      4  C   UNL     1       3.324   2.225  17.812  0.00  0.00    +0.000 C 
ENDBRANCH   1   2
BRANCH   1   5
ATOM      5  O   UNL     1       3.541   5.456  19.488  0.00  0.00    +0.000 OA
BRANCH   5   7
ATOM      6  N   UNL     1       2.329   7.294  19.746  0.00  0.00    +0.000 N 
ATOM      7  C   UNL     1       2.394   5.950  20.029  0.00  0.00    +0.000 C 
ATOM      8  O   UNL     1       1.549   5.249  20.572  0.00  0.00    +0.000 OA
ATOM      9  H   UNL     1       2.954   7.572  18.999  0.00  0.00    +0.000 HD
BRANCH   6  13
ATOM     10  C   UNL     1       0.062  10.400  21.512  0.00  0.00    +0.000 A 
ATOM     11  C   UNL     1       0.513   9.322  22.277  0.00  0.00    +0.000 A 
ATOM     12  C   UNL     1       1.208   8.255  21.695  0.00  0.00    +0.000 A 
ATOM     13  C   UNL     1       1.496   8.259  20.333  0.00  0.00    +0.000 A 
ATOM     14  C   UNL     1       1.025   9.322  19.551  0.00  0.00    +0.000 A 
ATOM     15  C   UNL     1       0.304  10.383  20.136  0.00  0.00    +0.000 A 
BRANCH  10  16
ATOM     16  O   UNL     1      -0.599  11.501  22.009  0.00  0.00    +0.000 OA
BRANCH  16  17
ATOM     17  C   UNL     1      -1.406  11.246  23.166  0.00  0.00    +0.000 C 
BRANCH  17  19
ATOM     18  C   UNL     1      -2.421  13.582  23.096  0.00  0.00    +0.000 C 
ATOM     19  C   UNL     1      -2.681  12.089  23.195  0.00  0.00    +0.000 C 
ENDBRANCH  17  19
ENDBRANCH  16  17
ENDBRANCH  10  16
ENDBRANCH   6  13
ENDBRANCH   5   7
ENDBRANCH   1   5
BRANCH   1  20
ATOM     20  C   UNL     1       4.011   5.720  17.125  0.00  0.00    +0.000 C 
BRANCH  20  21
ATOM     21  N   UNL     1       5.167   5.223  16.385  0.00  0.00    +0.000 N 
ATOM     22  N   UNL     1       5.004   4.458  15.291  0.00  0.00    +0.000 NA
ATOM     23  C   UNL     1       6.212   4.398  14.725  0.00  0.00    +0.000 A 
ATOM     24  C   UNL     1       7.186   4.970  15.578  0.00  0.00    +0.000 A 
ATOM     25  C   UNL     1       6.490   5.471  16.665  0.00  0.00    +0.000 A 
BRANCH  23  26
ATOM     26  C   UNL     1       6.393   3.780  13.364  0.00  0.00    +0.000 C 
ATOM     27  C   UNL     1       5.061   3.582  12.637  0.00  0.00    +0.000 C 
ATOM     28  C   UNL     1       7.346   4.592  12.476  0.00  0.00    +0.000 C 
ENDBRANCH  23  26
BRANCH  25  29
ATOM     29  C   UNL     1       6.938   6.217  17.890  0.00  0.00    +0.000 C 
ATOM     30  C   UNL     1       7.839   5.372  18.788  0.00  0.00    +0.000 C 
ATOM     31  C   UNL     1       7.623   7.523  17.491  0.00  0.00    +0.000 C 
ENDBRANCH  25  29
ENDBRANCH  20  21
ENDBRANCH   1  20
TORSDOF 11
ENDMDL
MODEL 2
REMARK VINA RESULT:      -7.4      4.513      8.083
REMARK  Name = 
REMARK  18 active torsions:
REMARK  status: ('A' for Active; 'I' for Inactive)
REMARK    1  A    between atoms: C_1  and  C_2
REMARK    2  A    between atoms: C_2  and  C_3
REMARK    3  A    between atoms: C_3  and  O_4
REMARK    4  A    between atoms: O_4  and  C_5
REMARK    5  A    between atoms: C_8  and  N_9
REMARK    6  A    between atoms: C_10  and  O_12
REMARK    7  A    between atoms: O_12  and  C_13
REMARK    8  A    between atoms: C_13  and  C_14
REMARK    9  A    between atoms: C_13  and  C_26
REMARK   10  A    between atoms: C_14  and  N_15
REMARK   11  A    between atoms: C_17  and  C_18
REMARK   12  A    between atoms: C_18  and  C_19
REMARK   13  A    between atoms: C_18  and  C_20
REMARK   14  A    between atoms: C_22  and  C_23
REMARK   15  A    between atoms: C_23  and  C_24
REMARK   16  A    between atoms: C_23  and  C_25
REMARK   17  A    between atoms: C_26  and  C_27
REMARK   18  A    between atoms: C_26  and  C_28
REMARK                            x       y       z     vdW  Elec       q    Type
REMARK                         _______ _______ _______ _____ _____    ______ ____
ROOT
ATOM      1  C   UNL     1       6.177   6.688  17.247  0.00  0.00    +0.000 C 
ENDROOT
BRANCH   1   2
ATOM      2  C   UNL     1       6.908   5.656  16.330  0.00  0.00    +0.000 C 
ATOM      3  C   UNL     1       7.383   4.431  17.115  0.00  0.00    +0.000 C 
ATOM      4  C   UNL     1       6.065   5.200  15.134  0.00  0.00    +0.000 C 
ENDBRANCH   1   2
BRANCH   1   5
ATOM      5  O   UNL     1       6.808   7.986  17.109  0.00  0.00    +0.000 OA
BRANCH   5   7
ATOM      6  N   UNL     1       8.041   9.631  17.934  0.00  0.00    +0.000 N 
ATOM      7  C   UNL     1       7.843   8.271  17.945  0.00  0.00    +0.000 C 
ATOM      8  O   UNL     1       8.395   7.431  18.645  0.00  0.00    +0.000 OA
ATOM      9  H   UNL     1       7.252  10.143  17.559  0.00  0.00    +0.000 HD
BRANCH   6  13
ATOM     10  C   UNL     1      11.213  12.020  19.399  0.00  0.00    +0.000 A 
ATOM     11  C   UNL     1      11.081  11.769  18.031  0.00  0.00    +0.000 A 
ATOM     12  C   UNL     1      10.076  10.929  17.537  0.00  0.00    +0.000 A 
ATOM     13  C   UNL     1       9.156  10.343  18.403  0.00  0.00    +0.000 A 
ATOM     14  C   UNL     1       9.296  10.566  19.780  0.00  0.00    +0.000 A 
ATOM     15  C   UNL     1      10.324  11.393  20.275  0.00  0.00    +0.000 A 
BRANCH  10  16
ATOM     16  O   UNL     1      12.151  12.856  19.963  0.00  0.00    +0.000 OA
BRANCH  16  17
ATOM     17  C   UNL     1      12.081  14.219  19.525  0.00  0.00    +0.000 C 
BRANCH  17  19
ATOM     18  C   UNL     1      10.607  16.283  19.284  0.00  0.00    +0.000 C 
ATOM     19  C   UNL     1      10.714  14.853  19.785  0.00  0.00    +0.000 C 
ENDBRANCH  17  19
ENDBRANCH  16  17
ENDBRANCH  10  16
ENDBRANCH   6  13
ENDBRANCH   5   7
ENDBRANCH   1   5
BRANCH   1  20
ATOM     20  C   UNL     1       4.676   6.850  16.914  0.00  0.00    +0.000 C 
BRANCH  20  21
ATOM     21  N   UNL     1       3.749   6.033  17.692  0.00  0.00    +0.000 N 
ATOM     22  N   UNL     1       3.771   4.692  17.598  0.00  0.00    +0.000 NA
ATOM     23  C   UNL     1       3.004   4.260  18.601  0.00  0.00    +0.000 A 
ATOM     24  C   UNL     1       2.334   5.345  19.214  0.00  0.00    +0.000 A 
ATOM     25  C   UNL     1       2.808   6.486  18.587  0.00  0.00    +0.000 A 
BRANCH  23  26
ATOM     26  C   UNL     1       2.935   2.794  18.940  0.00  0.00    +0.000 C 
ATOM     27  C   UNL     1       3.539   1.918  17.839  0.00  0.00    +0.000 C 
ATOM     28  C   UNL     1       3.613   2.473  20.280  0.00  0.00    +0.000 C 
ENDBRANCH  23  26
BRANCH  25  29
ATOM     29  C   UNL     1       2.519   7.944  18.799  0.00  0.00    +0.000 C 
ATOM     30  C   UNL     1       1.738   8.557  17.638  0.00  0.00    +0.000 C 
ATOM     31  C   UNL     1       1.791   8.151  20.125  0.00  0.00    +0.000 C 
ENDBRANCH  25  29
ENDBRANCH  20  21
ENDBRANCH   1  20
TORSDOF 11
ENDMDL
MODEL 3
REMARK VINA RESULT:      -7.2      1.167      1.737
REMARK  Name = 
REMARK  18 active torsions:
REMARK  status: ('A' for Active; 'I' for Inactive)
REMARK    1  A    between atoms: C_1  and  C_2
REMARK    2  A    between atoms: C_2  and  C_3
REMARK    3  A    between atoms: C_3  and  O_4
REMARK    4  A    between atoms: O_4  and  C_5
REMARK    5  A    between atoms: C_8  and  N_9
REMARK    6  A    between atoms: C_10  and  O_12
REMARK    7  A    between atoms: O_12  and  C_13
REMARK    8  A    between atoms: C_13  and  C_14
REMARK    9  A    between atoms: C_13  and  C_26
REMARK   10  A    between atoms: C_14  and  N_15
REMARK   11  A    between atoms: C_17  and  C_18
REMARK   12  A    between atoms: C_18  and  C_19
REMARK   13  A    between atoms: C_18  and  C_20
REMARK   14  A    between atoms: C_22  and  C_23
REMARK   15  A    between atoms: C_23  and  C_24
REMARK   16  A    between atoms: C_23  and  C_25
REMARK   17  A    between atoms: C_26  and  C_27
REMARK   18  A    between atoms: C_26  and  C_28
REMARK                            x       y       z     vdW  Elec       q    Type
REMARK                         _______ _______ _______ _____ _____    ______ ____
ROOT
ATOM      1  C   UNL     1       3.578   4.649  18.193  0.00  0.00    +0.000 C 
ENDROOT
BRANCH   1   2
ATOM      2  C   UNL     1       2.454   3.566  18.244  0.00  0.00    +0.000 C 
ATOM      3  C   UNL     1       1.178   4.034  17.539  0.00  0.00    +0.000 C 
ATOM      4  C   UNL     1       2.885   2.212  17.671  0.00  0.00    +0.000 C 
ENDBRANCH   1   2
BRANCH   1   5
ATOM      5  O   UNL     1       3.453   5.526  19.341  0.00  0.00    +0.000 OA
BRANCH   5   7
ATOM      6  N   UNL     1       2.403   7.242  20.269  0.00  0.00    +0.000 N 
ATOM      7  C   UNL     1       3.004   6.791  19.118  0.00  0.00    +0.000 C 
ATOM      8  O   UNL     1       3.221   7.410  18.084  0.00  0.00    +0.000 OA
ATOM      9  H   UNL     1       2.651   6.696  21.085  0.00  0.00    +0.000 HD
BRANCH   6  13
ATOM     10  C   UNL     1      -0.393  10.385  20.729  0.00  0.00    +0.000 A 
ATOM     11  C   UNL     1       0.226  10.155  19.498  0.00  0.00    +0.000 A 
ATOM     12  C   UNL     1       1.200   9.161  19.346  0.00  0.00    +0.000 A 
ATOM     13  C   UNL     1       1.556   8.350  20.421  0.00  0.00    +0.000 A 
ATOM     14  C   UNL     1       0.961   8.591  21.667  0.00  0.00    +0.000 A 
ATOM     15  C   UNL     1      -0.002   9.608  21.822  0.00  0.00    +0.000 A 
BRANCH  10  16
ATOM     16  O   UNL     1      -1.381  11.318  20.955  0.00  0.00    +0.000 OA
BRANCH  16  17
ATOM     17  C   UNL     1      -0.967  12.681  20.799  0.00  0.00    +0.000 C 
BRANCH  17  19
ATOM     18  C   UNL     1      -1.139  13.825  23.068  0.00  0.00    +0.000 C 
ATOM     19  C   UNL     1      -0.222  13.217  22.022  0.00  0.00    +0.000 C 
ENDBRANCH  17  19
ENDBRANCH  16  17
ENDBRANCH  10  16
ENDBRANCH   6  13
ENDBRANCH   5   7
ENDBRANCH   1   5
BRANCH   1  20
ATOM     20  C   UNL     1       5.005   4.054  18.200  0.00  0.00    +0.000 C 
BRANCH  20  21
ATOM     21  N   UNL     1       5.838   4.361  17.041  0.00  0.00    +0.000 N 
ATOM     22  N   UNL     1       5.764   3.614  15.926  0.00  0.00    +0.000 NA
ATOM     23  C   UNL     1       6.440   4.300  15.002  0.00  0.00    +0.000 A 
ATOM     24  C   UNL     1       7.113   5.396  15.593  0.00  0.00    +0.000 A 
ATOM     25  C   UNL     1       6.734   5.398  16.925  0.00  0.00    +0.000 A 
BRANCH  23  26
ATOM     26  C   UNL     1       6.421   3.870  13.559  0.00  0.00    +0.000 C 
ATOM     27  C   UNL     1       5.001   3.825  12.987  0.00  0.00    +0.000 C 
ATOM     28  C   UNL     1       7.301   4.763  12.672  0.00  0.00    +0.000 C 
ENDBRANCH  23  26
BRANCH  25  29
ATOM     29  C   UNL     1       7.071   6.316  18.066  0.00  0.00    +0.000 C 
ATOM     30  C   UNL     1       8.065   5.690  19.041  0.00  0.00    +0.000 C 
ATOM     31  C   UNL     1       7.584   7.653  17.534  0.00  0.00    +0.000 C 
ENDBRANCH  25  29
ENDBRANCH  20  21
ENDBRANCH   1  20
TORSDOF 11
ENDMDL
MODEL 4
REMARK VINA RESULT:      -7.2      1.124      1.252
REMARK  Name = 
REMARK  18 active torsions:
REMARK  status: ('A' for Active; 'I' for Inactive)
REMARK    1  A    between atoms: C_1  and  C_2
REMARK    2  A    between atoms: C_2  and  C_3
REMARK    3  A    between atoms: C_3  and  O_4
REMARK    4  A    between atoms: O_4  and  C_5
REMARK    5  A    between atoms: C_8  and  N_9
REMARK    6  A    between atoms: C_10  and  O_12
REMARK    7  A    between atoms: O_12  and  C_13
REMARK    8  A    between atoms: C_13  and  C_14
REMARK    9  A    between atoms: C_13  and  C_26
REMARK   10  A    between atoms: C_14  and  N_15
REMARK   11  A    between atoms: C_17  and  C_18
REMARK   12  A    between atoms: C_18  and  C_19
REMARK   13  A    between atoms: C_18  and  C_20
REMARK   14  A    between atoms: C_22  and  C_23
REMARK   15  A    between atoms: C_23  and  C_24
REMARK   16  A    between atoms: C_23  and  C_25
REMARK   17  A    between atoms: C_26  and  C_27
REMARK   18  A    between atoms: C_26  and  C_28
REMARK                            x       y       z     vdW  Elec       q    Type
REMARK                         _______ _______ _______ _____ _____    ______ ____
ROOT
ATOM      1  C   UNL     1       3.184   5.857  17.739  0.00  0.00    +0.000 C 
ENDROOT
BRANCH   1   2
ATOM      2  C   UNL     1       3.546   4.350  17.932  0.00  0.00    +0.000 C 
ATOM      3  C   UNL     1       4.199   4.091  19.292  0.00  0.00    +0.000 C 
ATOM      4  C   UNL     1       2.352   3.408  17.753  0.00  0.00    +0.000 C 
ENDBRANCH   1   2
BRANCH   1   5
ATOM      5  O   UNL     1       2.968   6.469  19.036  0.00  0.00    +0.000 OA
BRANCH   5   7
ATOM      6  N   UNL     1       2.066   7.972  20.392  0.00  0.00    +0.000 N 
ATOM      7  C   UNL     1       2.220   7.605  19.076  0.00  0.00    +0.000 C 
ATOM      8  O   UNL     1       1.864   8.213  18.074  0.00  0.00    +0.000 OA
ATOM      9  H   UNL     1       2.731   7.522  21.009  0.00  0.00    +0.000 HD
BRANCH   6  13
ATOM     10  C   UNL     1      -0.454  10.913  22.097  0.00  0.00    +0.000 A 
ATOM     11  C   UNL     1      -0.241   9.694  22.745  0.00  0.00    +0.000 A 
ATOM     12  C   UNL     1       0.538   8.686  22.163  0.00  0.00    +0.000 A 
ATOM     13  C   UNL     1       1.149   8.889  20.929  0.00  0.00    +0.000 A 
ATOM     14  C   UNL     1       0.920  10.099  20.258  0.00  0.00    +0.000 A 
ATOM     15  C   UNL     1       0.116  11.101  20.835  0.00  0.00    +0.000 A 
BRANCH  10  16
ATOM     16  O   UNL     1      -1.178  11.966  22.612  0.00  0.00    +0.000 OA
BRANCH  16  17
ATOM     17  C   UNL     1      -2.335  11.586  23.367  0.00  0.00    +0.000 C 
BRANCH  17  19
ATOM     18  C   UNL     1      -4.312  12.592  24.620  0.00  0.00    +0.000 C 
ATOM     19  C   UNL     1      -3.398  12.684  23.410  0.00  0.00    +0.000 C 
ENDBRANCH  17  19
ENDBRANCH  16  17
ENDBRANCH  10  16
ENDBRANCH   6  13
ENDBRANCH   5   7
ENDBRANCH   1   5
BRANCH   1  20
ATOM     20  C   UNL     1       4.281   6.664  17.008  0.00  0.00    +0.000 C 
BRANCH  20  21
ATOM     21  N   UNL     1       5.379   5.890  16.435  0.00  0.00    +0.000 N 
ATOM     22  N   UNL     1       5.188   5.137  15.338  0.00  0.00    +0.000 NA
ATOM     23  C   UNL     1       6.412   4.784  14.941  0.00  0.00    +0.000 A 
ATOM     24  C   UNL     1       7.373   5.156  15.911  0.00  0.00    +0.000 A 
ATOM     25  C   UNL     1       6.676   5.845  16.889  0.00  0.00    +0.000 A 
BRANCH  23  26
ATOM     26  C   UNL     1       6.621   4.084  13.624  0.00  0.00    +0.000 C 
ATOM     27  C   UNL     1       5.297   3.724  12.944  0.00  0.00    +0.000 C 
ATOM     28  C   UNL     1       7.485   4.906  12.657  0.00  0.00    +0.000 C 
ENDBRANCH  23  26
BRANCH  25  29
ATOM     29  C   UNL     1       7.121   6.522  18.154  0.00  0.00    +0.000 C 
ATOM     30  C   UNL     1       7.928   5.591  19.058  0.00  0.00    +0.000 C 
ATOM     31  C   UNL     1       7.906   7.791  17.826  0.00  0.00    +0.000 C 
ENDBRANCH  25  29
ENDBRANCH  20  21
ENDBRANCH   1  20
TORSDOF 11
ENDMDL
MODEL 5
REMARK VINA RESULT:      -7.2      1.408      2.076
REMARK  Name = 
REMARK  18 active torsions:
REMARK  status: ('A' for Active; 'I' for Inactive)
REMARK    1  A    between atoms: C_1  and  C_2
REMARK    2  A    between atoms: C_2  and  C_3
REMARK    3  A    between atoms: C_3  and  O_4
REMARK    4  A    between atoms: O_4  and  C_5
REMARK    5  A    between atoms: C_8  and  N_9
REMARK    6  A    between atoms: C_10  and  O_12
REMARK    7  A    between atoms: O_12  and  C_13
REMARK    8  A    between atoms: C_13  and  C_14
REMARK    9  A    between atoms: C_13  and  C_26
REMARK   10  A    between atoms: C_14  and  N_15
REMARK   11  A    between atoms: C_17  and  C_18
REMARK   12  A    between atoms: C_18  and  C_19
REMARK   13  A    between atoms: C_18  and  C_20
REMARK   14  A    between atoms: C_22  and  C_23
REMARK   15  A    between atoms: C_23  and  C_24
REMARK   16  A    between atoms: C_23  and  C_25
REMARK   17  A    between atoms: C_26  and  C_27
REMARK   18  A    between atoms: C_26  and  C_28
REMARK                            x       y       z     vdW  Elec       q    Type
REMARK                         _______ _______ _______ _____ _____    ______ ____
ROOT
ATOM      1  C   UNL     1       3.348   4.925  18.036  0.00  0.00    +0.000 C 
ENDROOT
BRANCH   1   2
ATOM      2  C   UNL     1       3.941   3.480  18.024  0.00  0.00    +0.000 C 
ATOM      3  C   UNL     1       4.669   3.152  19.330  0.00  0.00    +0.000 C 
ATOM      4  C   UNL     1       2.898   2.395  17.734  0.00  0.00    +0.000 C 
ENDBRANCH   1   2
BRANCH   1   5
ATOM      5  O   UNL     1       3.437   5.469  19.377  0.00  0.00    +0.000 OA
BRANCH   5   7
ATOM      6  N   UNL     1       2.426   7.388  18.923  0.00  0.00    +0.000 N 
ATOM      7  C   UNL     1       2.446   6.312  19.778  0.00  0.00    +0.000 C 
ATOM      8  O   UNL     1       1.668   6.052  20.687  0.00  0.00    +0.000 OA
ATOM      9  H   UNL     1       2.922   7.216  18.057  0.00  0.00    +0.000 HD
BRANCH   6  13
ATOM     10  C   UNL     1       0.225  10.970  19.412  0.00  0.00    +0.000 A 
ATOM     11  C   UNL     1       1.016  10.767  18.278  0.00  0.00    +0.000 A 
ATOM     12  C   UNL     1       1.800   9.616  18.132  0.00  0.00    +0.000 A 
ATOM     13  C   UNL     1       1.785   8.623  19.108  0.00  0.00    +0.000 A 
ATOM     14  C   UNL     1       1.017   8.829  20.262  0.00  0.00    +0.000 A 
ATOM     15  C   UNL     1       0.248   9.999  20.417  0.00  0.00    +0.000 A 
BRANCH  10  16
ATOM     16  O   UNL     1      -0.597  12.055  19.619  0.00  0.00    +0.000 OA
BRANCH  16  17
ATOM     17  C   UNL     1      -1.999  11.768  19.548  0.00  0.00    +0.000 C 
BRANCH  17  19
ATOM     18  C   UNL     1      -2.830  10.156  17.759  0.00  0.00    +0.000 C 
ATOM     19  C   UNL     1      -2.495  11.594  18.112  0.00  0.00    +0.000 C 
ENDBRANCH  17  19
ENDBRANCH  16  17
ENDBRANCH  10  16
ENDBRANCH   6  13
ENDBRANCH   5   7
ENDBRANCH   1   5
BRANCH   1  20
ATOM     20  C   UNL     1       4.076   5.896  17.078  0.00  0.00    +0.000 C 
BRANCH  20  21
ATOM     21  N   UNL     1       5.233   5.358  16.370  0.00  0.00    +0.000 N 
ATOM     22  N   UNL     1       5.073   4.579  15.285  0.00  0.00    +0.000 NA
ATOM     23  C   UNL     1       6.290   4.479  14.746  0.00  0.00    +0.000 A 
ATOM     24  C   UNL     1       7.261   5.040  15.608  0.00  0.00    +0.000 A 
ATOM     25  C   UNL     1       6.557   5.577  16.673  0.00  0.00    +0.000 A 
BRANCH  23  26
ATOM     26  C   UNL     1       6.482   3.833  13.399  0.00  0.00    +0.000 C 
ATOM     27  C   UNL     1       5.153   3.589  12.679  0.00  0.00    +0.000 C 
ATOM     28  C   UNL     1       7.415   4.646  12.490  0.00  0.00    +0.000 C 
ENDBRANCH  23  26
BRANCH  25  29
ATOM     29  C   UNL     1       6.999   6.332  17.894  0.00  0.00    +0.000 C 
ATOM     30  C   UNL     1       7.867   5.483  18.820  0.00  0.00    +0.000 C 
ATOM     31  C   UNL     1       7.717   7.618  17.487  0.00  0.00    +0.000 C 
ENDBRANCH  25  29
ENDBRANCH  20  21
ENDBRANCH   1  20
TORSDOF 11
ENDMDL
MODEL 6
REMARK VINA RESULT:      -7.1      1.819      2.384
REMARK  Name = 
REMARK  18 active torsions:
REMARK  status: ('A' for Active; 'I' for Inactive)
REMARK    1  A    between atoms: C_1  and  C_2
REMARK    2  A    between atoms: C_2  and  C_3
REMARK    3  A    between atoms: C_3  and  O_4
REMARK    4  A    between atoms: O_4  and  C_5
REMARK    5  A    between atoms: C_8  and  N_9
REMARK    6  A    between atoms: C_10  and  O_12
REMARK    7  A    between atoms: O_12  and  C_13
REMARK    8  A    between atoms: C_13  and  C_14
REMARK    9  A    between atoms: C_13  and  C_26
REMARK   10  A    between atoms: C_14  and  N_15
REMARK   11  A    between atoms: C_17  and  C_18
REMARK   12  A    between atoms: C_18  and  C_19
REMARK   13  A    between atoms: C_18  and  C_20
REMARK   14  A    between atoms: C_22  and  C_23
REMARK   15  A    between atoms: C_23  and  C_24
REMARK   16  A    between atoms: C_23  and  C_25
REMARK   17  A    between atoms: C_26  and  C_27
REMARK   18  A    between atoms: C_26  and  C_28
REMARK                            x       y       z     vdW  Elec       q    Type
REMARK                         _______ _______ _______ _____ _____    ______ ____
ROOT
ATOM      1  C   UNL     1       3.748   4.228  18.163  0.00  0.00    +0.000 C 
ENDROOT
BRANCH   1   2
ATOM      2  C   UNL     1       2.693   3.134  17.806  0.00  0.00    +0.000 C 
ATOM      3  C   UNL     1       2.649   2.020  18.855  0.00  0.00    +0.000 C 
ATOM      4  C   UNL     1       1.281   3.693  17.597  0.00  0.00    +0.000 C 
ENDBRANCH   1   2
BRANCH   1   5
ATOM      5  O   UNL     1       3.644   4.554  19.572  0.00  0.00    +0.000 OA
BRANCH   5   7
ATOM      6  N   UNL     1       2.686   6.495  19.098  0.00  0.00    +0.000 N 
ATOM      7  C   UNL     1       2.657   5.413  19.945  0.00  0.00    +0.000 C 
ATOM      8  O   UNL     1       1.843   5.162  20.825  0.00  0.00    +0.000 OA
ATOM      9  H   UNL     1       3.209   6.319  18.248  0.00  0.00    +0.000 HD
BRANCH   6  13
ATOM     10  C   UNL     1       0.538  10.100  19.648  0.00  0.00    +0.000 A 
ATOM     11  C   UNL     1       0.996   9.728  18.382  0.00  0.00    +0.000 A 
ATOM     12  C   UNL     1       1.763   8.572  18.194  0.00  0.00    +0.000 A 
ATOM     13  C   UNL     1       2.064   7.741  19.270  0.00  0.00    +0.000 A 
ATOM     14  C   UNL     1       1.633   8.119  20.550  0.00  0.00    +0.000 A 
ATOM     15  C   UNL     1       0.882   9.296  20.739  0.00  0.00    +0.000 A 
BRANCH  10  16
ATOM     16  O   UNL     1      -0.246  11.200  19.914  0.00  0.00    +0.000 OA
BRANCH  16  17
ATOM     17  C   UNL     1      -0.732  11.886  18.753  0.00  0.00    +0.000 C 
BRANCH  17  19
ATOM     18  C   UNL     1      -2.495  11.214  17.041  0.00  0.00    +0.000 C 
ATOM     19  C   UNL     1      -2.210  11.609  18.479  0.00  0.00    +0.000 C 
ENDBRANCH  17  19
ENDBRANCH  16  17
ENDBRANCH  10  16
ENDBRANCH   6  13
ENDBRANCH   5   7
ENDBRANCH   1   5
BRANCH   1  20
ATOM     20  C   UNL     1       5.205   3.793  17.881  0.00  0.00    +0.000 C 
BRANCH  20  21
ATOM     21  N   UNL     1       5.777   4.236  16.613  0.00  0.00    +0.000 N 
ATOM     22  N   UNL     1       5.910   3.381  15.584  0.00  0.00    +0.000 NA
ATOM     23  C   UNL     1       6.211   4.146  14.532  0.00  0.00    +0.000 A 
ATOM     24  C   UNL     1       6.463   5.476  14.945  0.00  0.00    +0.000 A 
ATOM     25  C   UNL     1       6.207   5.506  16.305  0.00  0.00    +0.000 A 
BRANCH  23  26
ATOM     26  C   UNL     1       6.252   3.563  13.145  0.00  0.00    +0.000 C 
ATOM     27  C   UNL     1       4.870   3.536  12.487  0.00  0.00    +0.000 C 
ATOM     28  C   UNL     1       7.239   4.303  12.230  0.00  0.00    +0.000 C 
ENDBRANCH  23  26
BRANCH  25  29
ATOM     29  C   UNL     1       6.255   6.617  17.315  0.00  0.00    +0.000 C 
ATOM     30  C   UNL     1       7.612   7.316  17.346  0.00  0.00    +0.000 C 
ATOM     31  C   UNL     1       5.126   7.613  17.056  0.00  0.00    +0.000 C 
ENDBRANCH  25  29
ENDBRANCH  20  21
ENDBRANCH   1  20
TORSDOF 11
ENDMDL
MODEL 7
REMARK VINA RESULT:      -7.1      1.621      2.247
REMARK  Name = 
REMARK  18 active torsions:
REMARK  status: ('A' for Active; 'I' for Inactive)
REMARK    1  A    between atoms: C_1  and  C_2
REMARK    2  A    between atoms: C_2  and  C_3
REMARK    3  A    between atoms: C_3  and  O_4
REMARK    4  A    between atoms: O_4  and  C_5
REMARK    5  A    between atoms: C_8  and  N_9
REMARK    6  A    between atoms: C_10  and  O_12
REMARK    7  A    between atoms: O_12  and  C_13
REMARK    8  A    between atoms: C_13  and  C_14
REMARK    9  A    between atoms: C_13  and  C_26
REMARK   10  A    between atoms: C_14  and  N_15
REMARK   11  A    between atoms: C_17  and  C_18
REMARK   12  A    between atoms: C_18  and  C_19
REMARK   13  A    between atoms: C_18  and  C_20
REMARK   14  A    between atoms: C_22  and  C_23
REMARK   15  A    between atoms: C_23  and  C_24
REMARK   16  A    between atoms: C_23  and  C_25
REMARK   17  A    between atoms: C_26  and  C_27
REMARK   18  A    between atoms: C_26  and  C_28
REMARK                            x       y       z     vdW  Elec       q    Type
REMARK                         _______ _______ _______ _____ _____    ______ ____
ROOT
ATOM      1  C   UNL     1       3.197   5.549  17.838  0.00  0.00    +0.000 C 
ENDROOT
BRANCH   1   2
ATOM      2  C   UNL     1       1.985   4.564  17.854  0.00  0.00    +0.000 C 
ATOM      3  C   UNL     1       2.312   3.247  17.146  0.00  0.00    +0.000 C 
ATOM      4  C   UNL     1       1.457   4.269  19.262  0.00  0.00    +0.000 C 
ENDBRANCH   1   2
BRANCH   1   5
ATOM      5  O   UNL     1       2.968   6.609  18.800  0.00  0.00    +0.000 OA
BRANCH   5   7
ATOM      6  N   UNL     1       1.817   8.437  19.294  0.00  0.00    +0.000 N 
ATOM      7  C   UNL     1       2.560   7.815  18.319  0.00  0.00    +0.000 C 
ATOM      8  O   UNL     1       2.914   8.262  17.235  0.00  0.00    +0.000 OA
ATOM      9  H   UNL     1       1.952   8.034  20.213  0.00  0.00    +0.000 HD
BRANCH   6  13
ATOM     10  C   UNL     1      -0.919  11.661  19.111  0.00  0.00    +0.000 A 
ATOM     11  C   UNL     1      -0.962  10.633  18.165  0.00  0.00    +0.000 A 
ATOM     12  C   UNL     1      -0.024   9.594  18.174  0.00  0.00    +0.000 A 
ATOM     13  C   UNL     1       0.965   9.543  19.154  0.00  0.00    +0.000 A 
ATOM     14  C   UNL     1       1.034  10.583  20.091  0.00  0.00    +0.000 A 
ATOM     15  C   UNL     1       0.102  11.640  20.064  0.00  0.00    +0.000 A 
BRANCH  10  16
ATOM     16  O   UNL     1      -1.820  12.699  19.192  0.00  0.00    +0.000 OA
BRANCH  16  17
ATOM     17  C   UNL     1      -2.968  12.436  20.009  0.00  0.00    +0.000 C 
BRANCH  17  19
ATOM     18  C   UNL     1      -3.190  12.472  22.546  0.00  0.00    +0.000 C 
ATOM     19  C   UNL     1      -2.996  13.286  21.279  0.00  0.00    +0.000 C 
ENDBRANCH  17  19
ENDBRANCH  16  17
ENDBRANCH  10  16
ENDBRANCH   6  13
ENDBRANCH   5   7
ENDBRANCH   1   5
BRANCH   1  20
ATOM     20  C   UNL     1       4.543   4.872  18.187  0.00  0.00    +0.000 C 
BRANCH  20  21
ATOM     21  N   UNL     1       5.554   4.866  17.134  0.00  0.00    +0.000 N 
ATOM     22  N   UNL     1       5.438   4.046  16.074  0.00  0.00    +0.000 NA
ATOM     23  C   UNL     1       6.359   4.467  15.205  0.00  0.00    +0.000 A 
ATOM     24  C   UNL     1       7.197   5.438  15.804  0.00  0.00    +0.000 A 
ATOM     25  C   UNL     1       6.676   5.659  17.068  0.00  0.00    +0.000 A 
BRANCH  23  26
ATOM     26  C   UNL     1       6.408   3.909  13.807  0.00  0.00    +0.000 C 
ATOM     27  C   UNL     1       5.014   3.781  13.186  0.00  0.00    +0.000 C 
ATOM     28  C   UNL     1       7.308   4.738  12.880  0.00  0.00    +0.000 C 
ENDBRANCH  23  26
BRANCH  25  29
ATOM     29  C   UNL     1       7.083   6.589  18.175  0.00  0.00    +0.000 C 
ATOM     30  C   UNL     1       8.022   5.921  19.178  0.00  0.00    +0.000 C 
ATOM     31  C   UNL     1       7.704   7.859  17.597  0.00  0.00    +0.000 C 
ENDBRANCH  25  29
ENDBRANCH  20  21
ENDBRANCH   1  20
TORSDOF 11
ENDMDL
MODEL 8
REMARK VINA RESULT:      -7.0      1.931      2.498
REMARK  Name = 
REMARK  18 active torsions:
REMARK  status: ('A' for Active; 'I' for Inactive)
REMARK    1  A    between atoms: C_1  and  C_2
REMARK    2  A    between atoms: C_2  and  C_3
REMARK    3  A    between atoms: C_3  and  O_4
REMARK    4  A    between atoms: O_4  and  C_5
REMARK    5  A    between atoms: C_8  and  N_9
REMARK    6  A    between atoms: C_10  and  O_12
REMARK    7  A    between atoms: O_12  and  C_13
REMARK    8  A    between atoms: C_13  and  C_14
REMARK    9  A    between atoms: C_13  and  C_26
REMARK   10  A    between atoms: C_14  and  N_15
REMARK   11  A    between atoms: C_17  and  C_18
REMARK   12  A    between atoms: C_18  and  C_19
REMARK   13  A    between atoms: C_18  and  C_20
REMARK   14  A    between atoms: C_22  and  C_23
REMARK   15  A    between atoms: C_23  and  C_24
REMARK   16  A    between atoms: C_23  and  C_25
REMARK   17  A    between atoms: C_26  and  C_27
REMARK   18  A    between atoms: C_26  and  C_28
REMARK                            x       y       z     vdW  Elec       q    Type
REMARK                         _______ _______ _______ _____ _____    ______ ____
ROOT
ATOM      1  C   UNL     1       3.947   3.032  18.000  0.00  0.00    +0.000 C 
ENDROOT
BRANCH   1   2
ATOM      2  C   UNL     1       3.090   2.827  19.290  0.00  0.00    +0.000 C 
ATOM      3  C   UNL     1       2.074   1.694  19.124  0.00  0.00    +0.000 C 
ATOM      4  C   UNL     1       3.930   2.579  20.547  0.00  0.00    +0.000 C 
ENDBRANCH   1   2
BRANCH   1   5
ATOM      5  O   UNL     1       3.159   3.733  17.006  0.00  0.00    +0.000 OA
BRANCH   5   7
ATOM      6  N   UNL     1       2.944   5.821  17.716  0.00  0.00    +0.000 N 
ATOM      7  C   UNL     1       2.264   4.656  17.452  0.00  0.00    +0.000 C 
ATOM      8  O   UNL     1       1.055   4.459  17.490  0.00  0.00    +0.000 OA
ATOM      9  H   UNL     1       3.859   5.852  17.284  0.00  0.00    +0.000 HD
BRANCH   6  13
ATOM     10  C   UNL     1       1.320   9.038  19.935  0.00  0.00    +0.000 A 
ATOM     11  C   UNL     1       1.661   9.199  18.590  0.00  0.00    +0.000 A 
ATOM     12  C   UNL     1       2.259   8.164  17.860  0.00  0.00    +0.000 A 
ATOM     13  C   UNL     1       2.501   6.929  18.455  0.00  0.00    +0.000 A 
ATOM     14  C   UNL     1       2.187   6.765  19.811  0.00  0.00    +0.000 A 
ATOM     15  C   UNL     1       1.608   7.817  20.549  0.00  0.00    +0.000 A 
BRANCH  10  16
ATOM     16  O   UNL     1       0.702   9.991  20.714  0.00  0.00    +0.000 OA
BRANCH  16  17
ATOM     17  C   UNL     1       0.162  11.102  19.987  0.00  0.00    +0.000 C 
BRANCH  17  19
ATOM     18  C   UNL     1      -1.865  12.010  18.739  0.00  0.00    +0.000 C 
ATOM     19  C   UNL     1      -1.207  10.799  19.377  0.00  0.00    +0.000 C 
ENDBRANCH  17  19
ENDBRANCH  16  17
ENDBRANCH  10  16
ENDBRANCH   6  13
ENDBRANCH   5   7
ENDBRANCH   1   5
BRANCH   1  20
ATOM     20  C   UNL     1       5.239   3.846  18.244  0.00  0.00    +0.000 C 
BRANCH  20  21
ATOM     21  N   UNL     1       5.983   4.248  17.054  0.00  0.00    +0.000 N 
ATOM     22  N   UNL     1       5.951   3.499  15.938  0.00  0.00    +0.000 NA
ATOM     23  C   UNL     1       6.503   4.260  14.991  0.00  0.00    +0.000 A 
ATOM     24  C   UNL     1       7.067   5.426  15.561  0.00  0.00    +0.000 A 
ATOM     25  C   UNL     1       6.746   5.383  16.907  0.00  0.00    +0.000 A 
BRANCH  23  26
ATOM     26  C   UNL     1       6.475   3.832  13.548  0.00  0.00    +0.000 C 
ATOM     27  C   UNL     1       5.051   3.775  12.988  0.00  0.00    +0.000 C 
ATOM     28  C   UNL     1       7.340   4.734  12.655  0.00  0.00    +0.000 C 
ENDBRANCH  23  26
BRANCH  25  29
ATOM     29  C   UNL     1       7.019   6.333  18.038  0.00  0.00    +0.000 C 
ATOM     30  C   UNL     1       7.960   5.737  19.083  0.00  0.00    +0.000 C 
ATOM     31  C   UNL     1       7.561   7.655  17.498  0.00  0.00    +0.000 C 
ENDBRANCH  25  29
ENDBRANCH  20  21
ENDBRANCH   1  20
TORSDOF 11
ENDMDL
MODEL 9
REMARK VINA RESULT:      -7.0      1.801      2.185
REMARK  Name = 
REMARK  18 active torsions:
REMARK  status: ('A' for Active; 'I' for Inactive)
REMARK    1  A    between atoms: C_1  and  C_2
REMARK    2  A    between atoms: C_2  and  C_3
REMARK    3  A    between atoms: C_3  and  O_4
REMARK    4  A    between atoms: O_4  and  C_5
REMARK    5  A    between atoms: C_8  and  N_9
REMARK    6  A    between atoms: C_10  and  O_12
REMARK    7  A    between atoms: O_12  and  C_13
REMARK    8  A    between atoms: C_13  and  C_14
REMARK    9  A    between atoms: C_13  and  C_26
REMARK   10  A    between atoms: C_14  and  N_15
REMARK   11  A    between atoms: C_17  and  C_18
REMARK   12  A    between atoms: C_18  and  C_19
REMARK   13  A    between atoms: C_18  and  C_20
REMARK   14  A    between atoms: C_22  and  C_23
REMARK   15  A    between atoms: C_23  and  C_24
REMARK   16  A    between atoms: C_23  and  C_25
REMARK   17  A    between atoms: C_26  and  C_27
REMARK   18  A    between atoms: C_26  and  C_28
REMARK                            x       y       z     vdW  Elec       q    Type
REMARK                         _______ _______ _______ _____ _____    ______ ____
ROOT
ATOM      1  C   UNL     1       3.994   4.172  18.324  0.00  0.00    +0.000 C 
ENDROOT
BRANCH   1   2
ATOM      2  C   UNL     1       2.977   2.987  18.291  0.00  0.00    +0.000 C 
ATOM      3  C   UNL     1       2.057   3.059  17.070  0.00  0.00    +0.000 C 
ATOM      4  C   UNL     1       3.645   1.609  18.346  0.00  0.00    +0.000 C 
ENDBRANCH   1   2
BRANCH   1   5
ATOM      5  O   UNL     1       4.039   4.730  19.661  0.00  0.00    +0.000 OA
BRANCH   5   7
ATOM      6  N   UNL     1       2.801   6.515  19.224  0.00  0.00    +0.000 N 
ATOM      7  C   UNL     1       2.961   5.449  20.077  0.00  0.00    +0.000 C 
ATOM      8  O   UNL     1       2.232   5.098  20.996  0.00  0.00    +0.000 OA
ATOM      9  H   UNL     1       3.302   6.402  18.351  0.00  0.00    +0.000 HD
BRANCH   6  13
ATOM     10  C   UNL     1       0.713  10.150  19.804  0.00  0.00    +0.000 A 
ATOM     11  C   UNL     1       0.910   9.263  20.865  0.00  0.00    +0.000 A 
ATOM     12  C   UNL     1       1.542   8.028  20.675  0.00  0.00    +0.000 A 
ATOM     13  C   UNL     1       2.021   7.665  19.420  0.00  0.00    +0.000 A 
ATOM     14  C   UNL     1       1.805   8.536  18.342  0.00  0.00    +0.000 A 
ATOM     15  C   UNL     1       1.147   9.767  18.532  0.00  0.00    +0.000 A 
BRANCH  10  16
ATOM     16  O   UNL     1       0.132  11.394  19.911  0.00  0.00    +0.000 OA
BRANCH  16  17
ATOM     17  C   UNL     1      -0.347  11.941  18.676  0.00  0.00    +0.000 C 
BRANCH  17  19
ATOM     18  C   UNL     1      -2.454  10.664  18.027  0.00  0.00    +0.000 C 
ATOM     19  C   UNL     1      -1.873  11.951  18.586  0.00  0.00    +0.000 C 
ENDBRANCH  17  19
ENDBRANCH  16  17
ENDBRANCH  10  16
ENDBRANCH   6  13
ENDBRANCH   5   7
ENDBRANCH   1   5
BRANCH   1  20
ATOM     20  C   UNL     1       5.431   3.760  17.931  0.00  0.00    +0.000 C 
BRANCH  20  21
ATOM     21  N   UNL     1       5.908   4.235  16.635  0.00  0.00    +0.000 N 
ATOM     22  N   UNL     1       6.033   3.389  15.597  0.00  0.00    +0.000 NA
ATOM     23  C   UNL     1       6.233   4.170  14.534  0.00  0.00    +0.000 A 
ATOM     24  C   UNL     1       6.430   5.513  14.936  0.00  0.00    +0.000 A 
ATOM     25  C   UNL     1       6.247   5.527  16.308  0.00  0.00    +0.000 A 
BRANCH  23  26
ATOM     26  C   UNL     1       6.232   3.590  13.144  0.00  0.00    +0.000 C 
ATOM     27  C   UNL     1       4.835   3.593  12.517  0.00  0.00    +0.000 C 
ATOM     28  C   UNL     1       7.214   4.313  12.210  0.00  0.00    +0.000 C 
ENDBRANCH  23  26
BRANCH  25  29
ATOM     29  C   UNL     1       6.286   6.639  17.317  0.00  0.00    +0.000 C 
ATOM     30  C   UNL     1       7.632   7.360  17.336  0.00  0.00    +0.000 C 
ATOM     31  C   UNL     1       5.138   7.617  17.069  0.00  0.00    +0.000 C 
ENDBRANCH  25  29
ENDBRANCH  20  21
ENDBRANCH   1  20
TORSDOF 11
ENDMDL
