MODEL 1
REMARK VINA RESULT:      -6.6      0.000      0.000
REMARK  Name = 
REMARK  3 active torsions:
REMARK  status: ('A' for Active; 'I' for Inactive)
REMARK    1  A    between atoms: C_1  and  C_2
REMARK    2  A    between atoms: C_4  and  C_5
REMARK    3  A    between atoms: C_10  and  C_11
REMARK                            x       y       z     vdW  Elec       q    Type
REMARK                         _______ _______ _______ _____ _____    ______ ____
ROOT
ATOM      1  C   UNL     1       6.724   5.747  18.798  0.00  0.00    +0.000 C 
ATOM      2  O   UNL     1       6.848   5.394  19.965  0.00  0.00    +0.000 OA
ATOM      3  N   UNL     1       5.747   5.361  17.915  0.00  0.00    +0.000 N 
ATOM      4  C   UNL     1       4.751   4.512  18.314  0.00  0.00    +0.000 A 
ATOM      5  N   UNL     1       4.389   4.192  19.526  0.00  0.00    +0.000 NA
ATOM      6  C   UNL     1       3.427   3.210  19.477  0.00  0.00    +0.000 A 
ATOM      7  C   UNL     1       3.065   2.799  18.210  0.00  0.00    +0.000 A 
ATOM      8  S   UNL     1       3.894   3.758  17.044  0.00  0.00    +0.000 S 
ATOM      9  H   UNL     1       5.820   5.567  16.931  0.00  0.00    +0.000 HD
ENDROOT
BRANCH   1  13
ATOM     10  C   UNL     1       8.471   9.175  18.061  0.00  0.00    +0.000 C 
ATOM     11  C   UNL     1       7.439   8.106  17.920  0.00  0.00    +0.000 C 
ATOM     12  C   UNL     1       7.553   7.136  16.780  0.00  0.00    +0.000 C 
ATOM     13  C   UNL     1       7.760   6.649  18.202  0.00  0.00    +0.000 C 
ENDBRANCH   1  13
BRANCH   6  14
ATOM     14  C   UNL     1       2.824   2.621  20.745  0.00  0.00    +0.000 C 
ATOM     15  C   UNL     1       2.132   3.563  21.711  0.00  0.00    +0.000 C 
ATOM     16  C   UNL     1       1.315   2.634  20.883  0.00  0.00    +0.000 C 
ENDBRANCH   6  14
TORSDOF 2
ENDMDL
MODEL 2
REMARK VINA RESULT:      -6.5      2.933      3.569
REMARK  Name = 
REMARK  3 active torsions:
REMARK  status: ('A' for Active; 'I' for Inactive)
REMARK    1  A    between atoms: C_1  and  C_2
REMARK    2  A    between atoms: C_4  and  C_5
REMARK    3  A    between atoms: C_10  and  C_11
REMARK                            x       y       z     vdW  Elec       q    Type
REMARK                         _______ _______ _______ _____ _____    ______ ____
ROOT
ATOM      1  C   UNL     1       4.742   4.683  16.725  0.00  0.00    +0.000 C 
ATOM      2  O   UNL     1       4.598   3.527  17.109  0.00  0.00    +0.000 OA
ATOM      3  N   UNL     1       4.248   5.818  17.315  0.00  0.00    +0.000 N 
ATOM      4  C   UNL     1       3.529   5.737  18.477  0.00  0.00    +0.000 A 
ATOM      5  N   UNL     1       3.448   4.743  19.319  0.00  0.00    +0.000 NA
ATOM      6  C   UNL     1       2.517   5.033  20.289  0.00  0.00    +0.000 A 
ATOM      7  C   UNL     1       1.902   6.263  20.169  0.00  0.00    +0.000 A 
ATOM      8  S   UNL     1       2.598   7.120  18.848  0.00  0.00    +0.000 S 
ATOM      9  H   UNL     1       4.270   6.707  16.840  0.00  0.00    +0.000 HD
ENDROOT
BRANCH   1  13
ATOM     10  C   UNL     1       6.143   3.776  13.182  0.00  0.00    +0.000 C 
ATOM     11  C   UNL     1       6.090   3.779  14.673  0.00  0.00    +0.000 C 
ATOM     12  C   UNL     1       6.978   4.725  15.427  0.00  0.00    +0.000 C 
ATOM     13  C   UNL     1       5.475   4.933  15.444  0.00  0.00    +0.000 C 
ENDBRANCH   1  13
BRANCH   6  14
ATOM     14  C   UNL     1       2.192   4.046  21.402  0.00  0.00    +0.000 C 
ATOM     15  C   UNL     1       1.223   2.921  21.099  0.00  0.00    +0.000 C 
ATOM     16  C   UNL     1       2.674   2.618  21.244  0.00  0.00    +0.000 C 
ENDBRANCH   6  14
TORSDOF 2
ENDMDL
MODEL 3
REMARK VINA RESULT:      -6.2      2.920      6.383
REMARK  Name = 
REMARK  3 active torsions:
REMARK  status: ('A' for Active; 'I' for Inactive)
REMARK    1  A    between atoms: C_1  and  C_2
REMARK    2  A    between atoms: C_4  and  C_5
REMARK    3  A    between atoms: C_10  and  C_11
REMARK                            x       y       z     vdW  Elec       q    Type
REMARK                         _______ _______ _______ _____ _____    ______ ____
ROOT
ATOM      1  C   UNL     1       3.591   3.827  19.012  0.00  0.00    +0.000 C 
ATOM      2  O   UNL     1       4.122   2.764  18.712  0.00  0.00    +0.000 OA
ATOM      3  N   UNL     1       3.663   5.012  18.325  0.00  0.00    +0.000 N 
ATOM      4  C   UNL     1       4.364   5.089  17.151  0.00  0.00    +0.000 A 
ATOM      5  N   UNL     1       4.779   4.119  16.384  0.00  0.00    +0.000 NA
ATOM      6  C   UNL     1       5.552   4.631  15.368  0.00  0.00    +0.000 A 
ATOM      7  C   UNL     1       5.706   6.002  15.376  0.00  0.00    +0.000 A 
ATOM      8  S   UNL     1       4.761   6.672  16.650  0.00  0.00    +0.000 S 
ATOM      9  H   UNL     1       3.338   5.874  18.732  0.00  0.00    +0.000 HD
ENDROOT
BRANCH   1  13
ATOM     10  C   UNL     1       1.313   2.483  21.900  0.00  0.00    +0.000 C 
ATOM     11  C   UNL     1       1.634   2.997  20.537  0.00  0.00    +0.000 C 
ATOM     12  C   UNL     1       1.401   4.450  20.238  0.00  0.00    +0.000 C 
ATOM     13  C   UNL     1       2.819   3.913  20.292  0.00  0.00    +0.000 C 
ENDBRANCH   1  13
BRANCH   6  14
ATOM     14  C   UNL     1       6.193   3.729  14.322  0.00  0.00    +0.000 C 
ATOM     15  C   UNL     1       5.558   3.666  12.946  0.00  0.00    +0.000 C 
ATOM     16  C   UNL     1       6.848   4.388  13.125  0.00  0.00    +0.000 C 
ENDBRANCH   6  14
TORSDOF 2
ENDMDL
MODEL 4
REMARK VINA RESULT:      -6.1      3.164      6.658
REMARK  Name = 
REMARK  3 active torsions:
REMARK  status: ('A' for Active; 'I' for Inactive)
REMARK    1  A    between atoms: C_1  and  C_2
REMARK    2  A    between atoms: C_4  and  C_5
REMARK    3  A    between atoms: C_10  and  C_11
REMARK                            x       y       z     vdW  Elec       q    Type
REMARK                         _______ _______ _______ _____ _____    ______ ____
ROOT
ATOM      1  C   UNL     1       2.711   3.580  17.974  0.00  0.00    +0.000 C 
ATOM      2  O   UNL     1       2.507   2.789  17.059  0.00  0.00    +0.000 OA
ATOM      3  N   UNL     1       3.807   4.388  18.142  0.00  0.00    +0.000 N 
ATOM      4  C   UNL     1       4.814   4.389  17.214  0.00  0.00    +0.000 A 
ATOM      5  N   UNL     1       4.798   3.931  15.992  0.00  0.00    +0.000 NA
ATOM      6  C   UNL     1       6.058   4.019  15.449  0.00  0.00    +0.000 A 
ATOM      7  C   UNL     1       7.022   4.557  16.277  0.00  0.00    +0.000 A 
ATOM      8  S   UNL     1       6.289   5.059  17.751  0.00  0.00    +0.000 S 
ATOM      9  H   UNL     1       3.968   4.878  19.007  0.00  0.00    +0.000 HD
ENDROOT
BRANCH   1  13
ATOM     10  C   UNL     1       1.298   2.868  21.557  0.00  0.00    +0.000 C 
ATOM     11  C   UNL     1       1.636   2.569  20.135  0.00  0.00    +0.000 C 
ATOM     12  C   UNL     1       0.560   2.683  19.095  0.00  0.00    +0.000 C 
ATOM     13  C   UNL     1       1.715   3.666  19.089  0.00  0.00    +0.000 C 
ENDBRANCH   1  13
BRANCH   6  14
ATOM     14  C   UNL     1       6.351   3.540  14.033  0.00  0.00    +0.000 C 
ATOM     15  C   UNL     1       5.482   4.066  12.907  0.00  0.00    +0.000 C 
ATOM     16  C   UNL     1       6.884   4.553  13.040  0.00  0.00    +0.000 C 
ENDBRANCH   6  14
TORSDOF 2
ENDMDL
MODEL 5
REMARK VINA RESULT:      -6.1      3.508      6.403
REMARK  Name = 
REMARK  3 active torsions:
REMARK  status: ('A' for Active; 'I' for Inactive)
REMARK    1  A    between atoms: C_1  and  C_2
REMARK    2  A    between atoms: C_4  and  C_5
REMARK    3  A    between atoms: C_10  and  C_11
REMARK                            x       y       z     vdW  Elec       q    Type
REMARK                         _______ _______ _______ _____ _____    ______ ____
ROOT
ATOM      1  C   UNL     1       4.014   3.617  18.185  0.00  0.00    +0.000 C 
ATOM      2  O   UNL     1       3.799   2.568  17.587  0.00  0.00    +0.000 OA
ATOM      3  N   UNL     1       4.814   4.654  17.778  0.00  0.00    +0.000 N 
ATOM      4  C   UNL     1       5.457   4.599  16.571  0.00  0.00    +0.000 A 
ATOM      5  N   UNL     1       5.223   3.810  15.558  0.00  0.00    +0.000 NA
ATOM      6  C   UNL     1       6.182   4.003  14.591  0.00  0.00    +0.000 A 
ATOM      7  C   UNL     1       7.138   4.954  14.887  0.00  0.00    +0.000 A 
ATOM      8  S   UNL     1       6.752   5.697  16.391  0.00  0.00    +0.000 S 
ATOM      9  H   UNL     1       5.066   5.399  18.408  0.00  0.00    +0.000 HD
ENDROOT
BRANCH   1  13
ATOM     10  C   UNL     1       1.136   3.610  20.842  0.00  0.00    +0.000 C 
ATOM     11  C   UNL     1       1.930   4.118  19.686  0.00  0.00    +0.000 C 
ATOM     12  C   UNL     1       2.941   5.203  19.923  0.00  0.00    +0.000 C 
ATOM     13  C   UNL     1       3.409   3.811  19.541  0.00  0.00    +0.000 C 
ENDBRANCH   1  13
BRANCH   6  14
ATOM     14  C   UNL     1       6.179   3.204  13.294  0.00  0.00    +0.000 C 
ATOM     15  C   UNL     1       5.232   3.637  12.192  0.00  0.00    +0.000 C 
ATOM     16  C   UNL     1       6.693   3.886  12.042  0.00  0.00    +0.000 C 
ENDBRANCH   6  14
TORSDOF 2
ENDMDL
MODEL 6
REMARK VINA RESULT:      -6.1      2.799      6.564
REMARK  Name = 
REMARK  3 active torsions:
REMARK  status: ('A' for Active; 'I' for Inactive)
REMARK    1  A    between atoms: C_1  and  C_2
REMARK    2  A    between atoms: C_4  and  C_5
REMARK    3  A    between atoms: C_10  and  C_11
REMARK                            x       y       z     vdW  Elec       q    Type
REMARK                         _______ _______ _______ _____ _____    ______ ____
ROOT
ATOM      1  C   UNL     1       2.497   4.046  18.335  0.00  0.00    +0.000 C 
ATOM      2  O   UNL     1       2.155   3.716  17.205  0.00  0.00    +0.000 OA
ATOM      3  N   UNL     1       3.702   4.584  18.712  0.00  0.00    +0.000 N 
ATOM      4  C   UNL     1       4.670   4.833  17.777  0.00  0.00    +0.000 A 
ATOM      5  N   UNL     1       4.552   4.905  16.480  0.00  0.00    +0.000 NA
ATOM      6  C   UNL     1       5.796   5.051  15.910  0.00  0.00    +0.000 A 
ATOM      7  C   UNL     1       6.852   5.095  16.798  0.00  0.00    +0.000 A 
ATOM      8  S   UNL     1       6.242   5.053  18.408  0.00  0.00    +0.000 S 
ATOM      9  H   UNL     1       3.957   4.666  19.683  0.00  0.00    +0.000 HD
ENDROOT
BRANCH   1  13
ATOM     10  C   UNL     1       1.398   2.587  21.800  0.00  0.00    +0.000 C 
ATOM     11  C   UNL     1       1.709   2.562  20.341  0.00  0.00    +0.000 C 
ATOM     12  C   UNL     1       0.577   2.649  19.358  0.00  0.00    +0.000 C 
ATOM     13  C   UNL     1       1.558   3.800  19.475  0.00  0.00    +0.000 C 
ENDBRANCH   1  13
BRANCH   6  14
ATOM     14  C   UNL     1       5.975   5.143  14.401  0.00  0.00    +0.000 C 
ATOM     15  C   UNL     1       7.312   4.735  13.814  0.00  0.00    +0.000 C 
ATOM     16  C   UNL     1       6.129   3.850  13.626  0.00  0.00    +0.000 C 
ENDBRANCH   6  14
TORSDOF 2
ENDMDL
MODEL 7
REMARK VINA RESULT:      -6.0      3.898      5.409
REMARK  Name = 
REMARK  3 active torsions:
REMARK  status: ('A' for Active; 'I' for Inactive)
REMARK    1  A    between atoms: C_1  and  C_2
REMARK    2  A    between atoms: C_4  and  C_5
REMARK    3  A    between atoms: C_10  and  C_11
REMARK                            x       y       z     vdW  Elec       q    Type
REMARK                         _______ _______ _______ _____ _____    ______ ____
ROOT
ATOM      1  C   UNL     1       1.665   7.143  20.485  0.00  0.00    +0.000 C 
ATOM      2  O   UNL     1       1.243   6.071  20.905  0.00  0.00    +0.000 OA
ATOM      3  N   UNL     1       2.447   7.349  19.376  0.00  0.00    +0.000 N 
ATOM      4  C   UNL     1       2.818   6.294  18.586  0.00  0.00    +0.000 A 
ATOM      5  N   UNL     1       2.313   5.091  18.542  0.00  0.00    +0.000 NA
ATOM      6  C   UNL     1       3.063   4.307  17.697  0.00  0.00    +0.000 A 
ATOM      7  C   UNL     1       4.135   4.938  17.100  0.00  0.00    +0.000 A 
ATOM      8  S   UNL     1       4.134   6.601  17.543  0.00  0.00    +0.000 S 
ATOM      9  H   UNL     1       2.885   8.239  19.204  0.00  0.00    +0.000 HD
ENDROOT
BRANCH   1  13
ATOM     10  C   UNL     1      -0.387   9.439  22.906  0.00  0.00    +0.000 C 
ATOM     11  C   UNL     1      -0.055   8.754  21.623  0.00  0.00    +0.000 C 
ATOM     12  C   UNL     1       0.664   9.526  20.555  0.00  0.00    +0.000 C 
ATOM     13  C   UNL     1       1.374   8.389  21.263  0.00  0.00    +0.000 C 
ENDBRANCH   1  13
BRANCH   6  14
ATOM     14  C   UNL     1       2.723   2.841  17.459  0.00  0.00    +0.000 C 
ATOM     15  C   UNL     1       3.362   1.804  18.362  0.00  0.00    +0.000 C 
ATOM     16  C   UNL     1       1.915   2.122  18.520  0.00  0.00    +0.000 C 
ENDBRANCH   6  14
TORSDOF 2
ENDMDL
MODEL 8
REMARK VINA RESULT:      -6.0      3.810      5.165
REMARK  Name = 
REMARK  3 active torsions:
REMARK  status: ('A' for Active; 'I' for Inactive)
REMARK    1  A    between atoms: C_1  and  C_2
REMARK    2  A    between atoms: C_4  and  C_5
REMARK    3  A    between atoms: C_10  and  C_11
REMARK                            x       y       z     vdW  Elec       q    Type
REMARK                         _______ _______ _______ _____ _____    ______ ____
ROOT
ATOM      1  C   UNL     1       8.639   9.266  18.472  0.00  0.00    +0.000 C 
ATOM      2  O   UNL     1       7.943   9.727  17.574  0.00  0.00    +0.000 OA
ATOM      3  N   UNL     1       8.669   7.967  18.913  0.00  0.00    +0.000 N 
ATOM      4  C   UNL     1       7.886   7.016  18.317  0.00  0.00    +0.000 A 
ATOM      5  N   UNL     1       7.275   7.067  17.165  0.00  0.00    +0.000 NA
ATOM      6  C   UNL     1       6.494   5.946  17.006  0.00  0.00    +0.000 A 
ATOM      7  C   UNL     1       6.529   5.047  18.052  0.00  0.00    +0.000 A 
ATOM      8  S   UNL     1       7.665   5.588  19.227  0.00  0.00    +0.000 S 
ATOM      9  H   UNL     1       9.144   7.714  19.765  0.00  0.00    +0.000 HD
ENDROOT
BRANCH   1  13
ATOM     10  C   UNL     1       9.445  12.181  20.961  0.00  0.00    +0.000 C 
ATOM     11  C   UNL     1       9.022  11.559  19.672  0.00  0.00    +0.000 C 
ATOM     12  C   UNL     1      10.023  11.449  18.559  0.00  0.00    +0.000 C 
ATOM     13  C   UNL     1       9.525  10.191  19.247  0.00  0.00    +0.000 C 
ENDBRANCH   1  13
BRANCH   6  14
ATOM     14  C   UNL     1       5.645   5.737  15.758  0.00  0.00    +0.000 C 
ATOM     15  C   UNL     1       6.270   5.008  14.584  0.00  0.00    +0.000 C 
ATOM     16  C   UNL     1       5.238   4.320  15.410  0.00  0.00    +0.000 C 
ENDBRANCH   6  14
TORSDOF 2
ENDMDL
MODEL 9
REMARK VINA RESULT:      -5.9      1.117      1.252
REMARK  Name = 
REMARK  3 active torsions:
REMARK  status: ('A' for Active; 'I' for Inactive)
REMARK    1  A    between atoms: C_1  and  C_2
REMARK    2  A    between atoms: C_4  and  C_5
REMARK    3  A    between atoms: C_10  and  C_11
REMARK                            x       y       z     vdW  Elec       q    Type
REMARK                         _______ _______ _______ _____ _____    ______ ____
ROOT
ATOM      1  C   UNL     1       5.743   5.375  18.636  0.00  0.00    +0.000 C 
ATOM      2  O   UNL     1       5.293   5.601  19.753  0.00  0.00    +0.000 OA
ATOM      3  N   UNL     1       5.233   4.517  17.695  0.00  0.00    +0.000 N 
ATOM      4  C   UNL     1       4.081   3.820  17.946  0.00  0.00    +0.000 A 
ATOM      5  N   UNL     1       3.183   4.036  18.868  0.00  0.00    +0.000 NA
ATOM      6  C   UNL     1       2.250   3.025  18.849  0.00  0.00    +0.000 A 
ATOM      7  C   UNL     1       2.455   2.049  17.895  0.00  0.00    +0.000 A 
ATOM      8  S   UNL     1       3.813   2.477  16.927  0.00  0.00    +0.000 S 
ATOM      9  H   UNL     1       5.760   4.267  16.874  0.00  0.00    +0.000 HD
ENDROOT
BRANCH   1  13
ATOM     10  C   UNL     1       8.078   8.395  17.759  0.00  0.00    +0.000 C 
ATOM     11  C   UNL     1       7.004   7.385  17.533  0.00  0.00    +0.000 C 
ATOM     12  C   UNL     1       7.327   6.149  16.743  0.00  0.00    +0.000 C 
ATOM     13  C   UNL     1       7.024   6.034  18.225  0.00  0.00    +0.000 C 
ENDBRANCH   1  13
BRANCH   6  14
ATOM     14  C   UNL     1       1.084   2.998  19.829  0.00  0.00    +0.000 C 
ATOM     15  C   UNL     1       1.387   2.739  21.292  0.00  0.00    +0.000 C 
ATOM     16  C   UNL     1       0.998   4.109  20.855  0.00  0.00    +0.000 C 
ENDBRANCH   6  14
TORSDOF 2
ENDMDL
