MODEL 1
REMARK VINA RESULT:      -8.2      0.000      0.000
REMARK  Name = 
REMARK  15 active torsions:
REMARK  status: ('A' for Active; 'I' for Inactive)
REMARK    1  A    between atoms: C_1  and  O_2
REMARK    2  A    between atoms: O_2  and  C_3
REMARK    3  A    between atoms: C_3  and  C_4
REMARK    4  A    between atoms: C_3  and  C_11
REMARK    5  A    between atoms: C_3  and  C_31
REMARK    6  A    between atoms: C_14  and  C_15
REMARK    7  A    between atoms: N_17  and  C_18
REMARK    8  A    between atoms: N_17  and  C_19
REMARK    9  A    between atoms: C_19  and  C_20
REMARK   10  A    between atoms: C_20  and  C_21
REMARK   11  A    between atoms: C_21  and  C_22
REMARK   12  A    between atoms: C_22  and  C_23
REMARK   13  A    between atoms: C_23  and  C_24
REMARK   14  A    between atoms: C_24  and  C_25
REMARK   15  A    between atoms: N_27  and  O_28
REMARK                            x       y       z     vdW  Elec       q    Type
REMARK                         _______ _______ _______ _____ _____    ______ ____
ROOT
ATOM      1  C   UNL     1       0.733   9.610  19.404  0.00  0.00    +0.000 A 
ATOM      2  C   UNL     1       0.991   8.781  20.510  0.00  0.00    +0.000 A 
ATOM      3  C   UNL     1       1.789   7.632  20.390  0.00  0.00    +0.000 A 
ATOM      4  C   UNL     1       2.443   7.332  19.195  0.00  0.00    +0.000 A 
ATOM      5  C   UNL     1       2.202   8.147  18.088  0.00  0.00    +0.000 A 
ATOM      6  C   UNL     1       1.351   9.254  18.187  0.00  0.00    +0.000 A 
ENDROOT
BRANCH   4   7
ATOM      7  C   UNL     1       3.317   6.138  18.987  0.00  0.00    +0.000 C 
ATOM      8  O   UNL     1       4.533   6.333  18.996  0.00  0.00    +0.000 OA
ATOM      9  N   UNL     1       2.781   4.856  18.809  0.00  0.00    +0.000 N 
ATOM     10  C   UNL     1       1.373   4.487  18.918  0.00  0.00    +0.000 C 
BRANCH   9  11
ATOM     11  C   UNL     1       3.710   3.757  18.514  0.00  0.00    +0.000 C 
BRANCH  11  12
ATOM     12  C   UNL     1       3.705   3.395  17.033  0.00  0.00    +0.000 C 
BRANCH  12  13
ATOM     13  C   UNL     1       4.552   4.354  16.200  0.00  0.00    +0.000 C 
BRANCH  13  14
ATOM     14  C   UNL     1       5.838   3.658  15.749  0.00  0.00    +0.000 C 
BRANCH  14  15
ATOM     15  C   UNL     1       7.062   4.539  15.974  0.00  0.00    +0.000 C 
BRANCH  15  16
ATOM     16  C   UNL     1       7.411   4.636  17.455  0.00  0.00    +0.000 C 
BRANCH  16  17
ATOM     17  C   UNL     1       7.676   6.064  17.875  0.00  0.00    +0.000 C 
ATOM     18  O   UNL     1       7.996   6.406  19.014  0.00  0.00    +0.000 OA
ATOM     19  N   UNL     1       7.542   6.976  16.858  0.00  0.00    +0.000 N 
ATOM     20  H   UNL     1       7.028   6.792  16.004  0.00  0.00    +0.000 HD
BRANCH  19  21
ATOM     21  O   UNL     1       7.689   8.332  17.237  0.00  0.00    +0.000 OA
ATOM     22  H   UNL     1       8.663   8.448  17.224  0.00  0.00    +0.000 HD
ENDBRANCH  19  21
ENDBRANCH  16  17
ENDBRANCH  15  16
ENDBRANCH  14  15
ENDBRANCH  13  14
ENDBRANCH  12  13
ENDBRANCH  11  12
ENDBRANCH   9  11
ENDBRANCH   4   7
BRANCH   1  23
ATOM     23  C   UNL     1      -0.203  10.861  19.500  0.00  0.00    +0.000 C 
BRANCH  23  24
ATOM     24  C   UNL     1       0.517  12.199  19.138  0.00  0.00    +0.000 A 
ATOM     25  C   UNL     1      -0.211  13.404  19.000  0.00  0.00    +0.000 A 
ATOM     26  C   UNL     1       0.416  14.608  18.669  0.00  0.00    +0.000 A 
ATOM     27  C   UNL     1       1.792  14.637  18.526  0.00  0.00    +0.000 A 
ATOM     28  F   UNL     1       2.403  15.789  18.219  0.00  0.00    +0.000 F 
ATOM     29  C   UNL     1       2.549  13.487  18.710  0.00  0.00    +0.000 A 
ATOM     30  C   UNL     1       1.920  12.277  19.029  0.00  0.00    +0.000 A 
ENDBRANCH  23  24
BRANCH  23  31
ATOM     31  C   UNL     1      -1.459  10.739  18.547  0.00  0.00    +0.000 A 
ATOM     32  C   UNL     1      -1.386  10.010  17.349  0.00  0.00    +0.000 A 
ATOM     33  C   UNL     1      -2.504   9.907  16.522  0.00  0.00    +0.000 A 
ATOM     34  C   UNL     1      -3.682  10.542  16.889  0.00  0.00    +0.000 A 
ATOM     35  C   UNL     1      -3.682  11.263  18.070  0.00  0.00    +0.000 A 
ATOM     36  N   UNL     1      -2.615  11.376  18.896  0.00  0.00    +0.000 NA
ENDBRANCH  23  31
BRANCH  23  38
ATOM     37  C   UNL     1      -0.324  11.775  21.822  0.00  0.00    +0.000 C 
ATOM     38  O   UNL     1      -0.762  10.853  20.845  0.00  0.00    +0.000 OA
ENDBRANCH  23  38
ENDBRANCH   1  23
TORSDOF 13
ENDMDL
MODEL 2
REMARK VINA RESULT:      -8.1      1.017      1.619
REMARK  Name = 
REMARK  15 active torsions:
REMARK  status: ('A' for Active; 'I' for Inactive)
REMARK    1  A    between atoms: C_1  and  O_2
REMARK    2  A    between atoms: O_2  and  C_3
REMARK    3  A    between atoms: C_3  and  C_4
REMARK    4  A    between atoms: C_3  and  C_11
REMARK    5  A    between atoms: C_3  and  C_31
REMARK    6  A    between atoms: C_14  and  C_15
REMARK    7  A    between atoms: N_17  and  C_18
REMARK    8  A    between atoms: N_17  and  C_19
REMARK    9  A    between atoms: C_19  and  C_20
REMARK   10  A    between atoms: C_20  and  C_21
REMARK   11  A    between atoms: C_21  and  C_22
REMARK   12  A    between atoms: C_22  and  C_23
REMARK   13  A    between atoms: C_23  and  C_24
REMARK   14  A    between atoms: C_24  and  C_25
REMARK   15  A    between atoms: N_27  and  O_28
REMARK                            x       y       z     vdW  Elec       q    Type
REMARK                         _______ _______ _______ _____ _____    ______ ____
ROOT
ATOM      1  C   UNL     1       0.626   9.685  19.543  0.00  0.00    +0.000 A 
ATOM      2  C   UNL     1       1.210   9.253  18.338  0.00  0.00    +0.000 A 
ATOM      3  C   UNL     1       2.031   8.115  18.294  0.00  0.00    +0.000 A 
ATOM      4  C   UNL     1       2.209   7.311  19.419  0.00  0.00    +0.000 A 
ATOM      5  C   UNL     1       1.633   7.722  20.623  0.00  0.00    +0.000 A 
ATOM      6  C   UNL     1       0.871   8.895  20.686  0.00  0.00    +0.000 A 
ENDROOT
BRANCH   4   7
ATOM      7  C   UNL     1       3.055   6.080  19.454  0.00  0.00    +0.000 C 
ATOM      8  O   UNL     1       4.261   6.231  19.258  0.00  0.00    +0.000 OA
ATOM      9  N   UNL     1       2.508   4.818  19.717  0.00  0.00    +0.000 N 
ATOM     10  C   UNL     1       1.128   4.538  20.098  0.00  0.00    +0.000 C 
BRANCH   9  11
ATOM     11  C   UNL     1       3.398   3.652  19.636  0.00  0.00    +0.000 C 
BRANCH  11  12
ATOM     12  C   UNL     1       3.103   2.800  18.406  0.00  0.00    +0.000 C 
BRANCH  12  13
ATOM     13  C   UNL     1       3.706   3.392  17.134  0.00  0.00    +0.000 C 
BRANCH  13  14
ATOM     14  C   UNL     1       5.211   3.597  17.315  0.00  0.00    +0.000 C 
BRANCH  14  15
ATOM     15  C   UNL     1       5.804   4.436  16.189  0.00  0.00    +0.000 C 
BRANCH  15  16
ATOM     16  C   UNL     1       6.669   5.566  16.736  0.00  0.00    +0.000 C 
BRANCH  16  17
ATOM     17  C   UNL     1       7.522   5.107  17.896  0.00  0.00    +0.000 C 
ATOM     18  O   UNL     1       8.346   4.194  17.835  0.00  0.00    +0.000 OA
ATOM     19  N   UNL     1       7.312   5.814  19.054  0.00  0.00    +0.000 N 
ATOM     20  H   UNL     1       6.480   6.365  19.231  0.00  0.00    +0.000 HD
BRANCH  19  21
ATOM     21  O   UNL     1       8.023   5.348  20.186  0.00  0.00    +0.000 OA
ATOM     22  H   UNL     1       8.883   5.812  20.098  0.00  0.00    +0.000 HD
ENDBRANCH  19  21
ENDBRANCH  16  17
ENDBRANCH  15  16
ENDBRANCH  14  15
ENDBRANCH  13  14
ENDBRANCH  12  13
ENDBRANCH  11  12
ENDBRANCH   9  11
ENDBRANCH   4   7
BRANCH   1  23
ATOM     23  C   UNL     1      -0.242  10.984  19.630  0.00  0.00    +0.000 C 
BRANCH  23  24
ATOM     24  C   UNL     1       0.542  12.276  19.236  0.00  0.00    +0.000 A 
ATOM     25  C   UNL     1       1.950  12.259  19.092  0.00  0.00    +0.000 A 
ATOM     26  C   UNL     1       2.668  13.408  18.747  0.00  0.00    +0.000 A 
ATOM     27  C   UNL     1       1.982  14.582  18.487  0.00  0.00    +0.000 A 
ATOM     28  F   UNL     1       2.661  15.684  18.146  0.00  0.00    +0.000 F 
ATOM     29  C   UNL     1       0.596  14.624  18.560  0.00  0.00    +0.000 A 
ATOM     30  C   UNL     1      -0.123  13.477  18.918  0.00  0.00    +0.000 A 
ENDBRANCH  23  24
BRANCH  23  31
ATOM     31  C   UNL     1      -1.516  10.914  18.696  0.00  0.00    +0.000 A 
ATOM     32  C   UNL     1      -1.487  10.194  17.490  0.00  0.00    +0.000 A 
ATOM     33  C   UNL     1      -2.619  10.138  16.680  0.00  0.00    +0.000 A 
ATOM     34  C   UNL     1      -3.770  10.808  17.072  0.00  0.00    +0.000 A 
ATOM     35  C   UNL     1      -3.728  11.518  18.259  0.00  0.00    +0.000 A 
ATOM     36  N   UNL     1      -2.644  11.586  19.069  0.00  0.00    +0.000 NA
ENDBRANCH  23  31
BRANCH  23  38
ATOM     37  C   UNL     1      -0.376  12.026  21.897  0.00  0.00    +0.000 C 
ATOM     38  O   UNL     1      -0.781  11.028  20.982  0.00  0.00    +0.000 OA
ENDBRANCH  23  38
ENDBRANCH   1  23
TORSDOF 13
ENDMDL
MODEL 3
REMARK VINA RESULT:      -8.1      0.966      1.584
REMARK  Name = 
REMARK  15 active torsions:
REMARK  status: ('A' for Active; 'I' for Inactive)
REMARK    1  A    between atoms: C_1  and  O_2
REMARK    2  A    between atoms: O_2  and  C_3
REMARK    3  A    between atoms: C_3  and  C_4
REMARK    4  A    between atoms: C_3  and  C_11
REMARK    5  A    between atoms: C_3  and  C_31
REMARK    6  A    between atoms: C_14  and  C_15
REMARK    7  A    between atoms: N_17  and  C_18
REMARK    8  A    between atoms: N_17  and  C_19
REMARK    9  A    between atoms: C_19  and  C_20
REMARK   10  A    between atoms: C_20  and  C_21
REMARK   11  A    between atoms: C_21  and  C_22
REMARK   12  A    between atoms: C_22  and  C_23
REMARK   13  A    between atoms: C_23  and  C_24
REMARK   14  A    between atoms: C_24  and  C_25
REMARK   15  A    between atoms: N_27  and  O_28
REMARK                            x       y       z     vdW  Elec       q    Type
REMARK                         _______ _______ _______ _____ _____    ______ ____
ROOT
ATOM      1  C   UNL     1       0.885   9.349  19.735  0.00  0.00    +0.000 A 
ATOM      2  C   UNL     1       1.606   9.119  18.549  0.00  0.00    +0.000 A 
ATOM      3  C   UNL     1       2.412   7.980  18.395  0.00  0.00    +0.000 A 
ATOM      4  C   UNL     1       2.441   6.982  19.370  0.00  0.00    +0.000 A 
ATOM      5  C   UNL     1       1.729   7.191  20.552  0.00  0.00    +0.000 A 
ATOM      6  C   UNL     1       0.980   8.360  20.737  0.00  0.00    +0.000 A 
ENDROOT
BRANCH   4   7
ATOM      7  C   UNL     1       3.261   5.736  19.279  0.00  0.00    +0.000 C 
ATOM      8  O   UNL     1       4.395   5.783  19.759  0.00  0.00    +0.000 OA
ATOM      9  N   UNL     1       2.760   4.566  18.697  0.00  0.00    +0.000 N 
ATOM     10  C   UNL     1       1.395   4.353  18.225  0.00  0.00    +0.000 C 
BRANCH   9  11
ATOM     11  C   UNL     1       3.669   3.419  18.564  0.00  0.00    +0.000 C 
BRANCH  11  12
ATOM     12  C   UNL     1       4.917   3.777  17.765  0.00  0.00    +0.000 C 
BRANCH  12  13
ATOM     13  C   UNL     1       4.587   4.193  16.333  0.00  0.00    +0.000 C 
BRANCH  13  14
ATOM     14  C   UNL     1       5.844   4.727  15.641  0.00  0.00    +0.000 C 
BRANCH  14  15
ATOM     15  C   UNL     1       7.007   4.862  16.616  0.00  0.00    +0.000 C 
BRANCH  15  16
ATOM     16  C   UNL     1       7.242   6.319  17.000  0.00  0.00    +0.000 C 
BRANCH  16  17
ATOM     17  C   UNL     1       7.777   6.448  18.408  0.00  0.00    +0.000 C 
ATOM     18  O   UNL     1       8.478   7.380  18.803  0.00  0.00    +0.000 OA
ATOM     19  N   UNL     1       7.402   5.423  19.241  0.00  0.00    +0.000 N 
ATOM     20  H   UNL     1       7.074   4.523  18.909  0.00  0.00    +0.000 HD
BRANCH  19  21
ATOM     21  O   UNL     1       7.963   5.461  20.539  0.00  0.00    +0.000 OA
ATOM     22  H   UNL     1       7.541   6.258  20.926  0.00  0.00    +0.000 HD
ENDBRANCH  19  21
ENDBRANCH  16  17
ENDBRANCH  15  16
ENDBRANCH  14  15
ENDBRANCH  13  14
ENDBRANCH  12  13
ENDBRANCH  11  12
ENDBRANCH   9  11
ENDBRANCH   4   7
BRANCH   1  23
ATOM     23  C   UNL     1       0.030  10.642  19.954  0.00  0.00    +0.000 C 
BRANCH  23  24
ATOM     24  C   UNL     1       0.848  11.960  19.774  0.00  0.00    +0.000 A 
ATOM     25  C   UNL     1       1.967  12.241  20.594  0.00  0.00    +0.000 A 
ATOM     26  C   UNL     1       2.705  13.419  20.451  0.00  0.00    +0.000 A 
ATOM     27  C   UNL     1       2.370  14.310  19.447  0.00  0.00    +0.000 A 
ATOM     28  F   UNL     1       3.079  15.437  19.297  0.00  0.00    +0.000 F 
ATOM     29  C   UNL     1       1.315  14.042  18.584  0.00  0.00    +0.000 A 
ATOM     30  C   UNL     1       0.566  12.869  18.735  0.00  0.00    +0.000 A 
ENDBRANCH  23  24
BRANCH  23  31
ATOM     31  C   UNL     1      -1.197  10.719  18.960  0.00  0.00    +0.000 A 
ATOM     32  C   UNL     1      -1.184  10.019  17.743  0.00  0.00    +0.000 A 
ATOM     33  C   UNL     1      -2.275  10.094  16.879  0.00  0.00    +0.000 A 
ATOM     34  C   UNL     1      -3.368  10.875  17.230  0.00  0.00    +0.000 A 
ATOM     35  C   UNL     1      -3.310  11.559  18.432  0.00  0.00    +0.000 A 
ATOM     36  N   UNL     1      -2.266  11.501  19.293  0.00  0.00    +0.000 NA
ENDBRANCH  23  31
BRANCH  23  38
ATOM     37  C   UNL     1      -0.644  11.619  22.153  0.00  0.00    +0.000 C 
ATOM     38  O   UNL     1      -0.575  10.515  21.273  0.00  0.00    +0.000 OA
ENDBRANCH  23  38
ENDBRANCH   1  23
TORSDOF 13
ENDMDL
MODEL 4
REMARK VINA RESULT:      -8.0      2.179      3.884
REMARK  Name = 
REMARK  15 active torsions:
REMARK  status: ('A' for Active; 'I' for Inactive)
REMARK    1  A    between atoms: C_1  and  O_2
REMARK    2  A    between atoms: O_2  and  C_3
REMARK    3  A    between atoms: C_3  and  C_4
REMARK    4  A    between atoms: C_3  and  C_11
REMARK    5  A    between atoms: C_3  and  C_31
REMARK    6  A    between atoms: C_14  and  C_15
REMARK    7  A    between atoms: N_17  and  C_18
REMARK    8  A    between atoms: N_17  and  C_19
REMARK    9  A    between atoms: C_19  and  C_20
REMARK   10  A    between atoms: C_20  and  C_21
REMARK   11  A    between atoms: C_21  and  C_22
REMARK   12  A    between atoms: C_22  and  C_23
REMARK   13  A    between atoms: C_23  and  C_24
REMARK   14  A    between atoms: C_24  and  C_25
REMARK   15  A    between atoms: N_27  and  O_28
REMARK                            x       y       z     vdW  Elec       q    Type
REMARK                         _______ _______ _______ _____ _____    ______ ____
ROOT
ATOM      1  C   UNL     1       0.722   9.973  19.616  0.00  0.00    +0.000 A 
ATOM      2  C   UNL     1       0.792   9.169  20.768  0.00  0.00    +0.000 A 
ATOM      3  C   UNL     1       1.443   7.925  20.751  0.00  0.00    +0.000 A 
ATOM      4  C   UNL     1       2.137   7.492  19.621  0.00  0.00    +0.000 A 
ATOM      5  C   UNL     1       2.081   8.279  18.469  0.00  0.00    +0.000 A 
ATOM      6  C   UNL     1       1.374   9.487  18.463  0.00  0.00    +0.000 A 
ENDROOT
BRANCH   4   7
ATOM      7  C   UNL     1       2.863   6.190  19.523  0.00  0.00    +0.000 C 
ATOM      8  O   UNL     1       4.024   6.232  19.116  0.00  0.00    +0.000 OA
ATOM      9  N   UNL     1       2.260   4.982  19.895  0.00  0.00    +0.000 N 
ATOM     10  C   UNL     1       0.949   4.827  20.517  0.00  0.00    +0.000 C 
BRANCH   9  11
ATOM     11  C   UNL     1       3.015   3.740  19.674  0.00  0.00    +0.000 C 
BRANCH  11  12
ATOM     12  C   UNL     1       2.252   2.766  18.783  0.00  0.00    +0.000 C 
BRANCH  12  13
ATOM     13  C   UNL     1       2.826   2.705  17.369  0.00  0.00    +0.000 C 
BRANCH  13  14
ATOM     14  C   UNL     1       4.296   3.131  17.383  0.00  0.00    +0.000 C 
BRANCH  14  15
ATOM     15  C   UNL     1       4.613   4.095  16.246  0.00  0.00    +0.000 C 
BRANCH  15  16
ATOM     16  C   UNL     1       6.005   3.843  15.677  0.00  0.00    +0.000 C 
BRANCH  16  17
ATOM     17  C   UNL     1       7.036   4.760  16.296  0.00  0.00    +0.000 C 
ATOM     18  O   UNL     1       7.977   4.378  16.993  0.00  0.00    +0.000 OA
ATOM     19  N   UNL     1       6.846   6.087  16.004  0.00  0.00    +0.000 N 
ATOM     20  H   UNL     1       5.964   6.470  15.682  0.00  0.00    +0.000 HD
BRANCH  19  21
ATOM     21  O   UNL     1       7.735   6.982  16.645  0.00  0.00    +0.000 OA
ATOM     22  H   UNL     1       7.305   7.117  17.516  0.00  0.00    +0.000 HD
ENDBRANCH  19  21
ENDBRANCH  16  17
ENDBRANCH  15  16
ENDBRANCH  14  15
ENDBRANCH  13  14
ENDBRANCH  12  13
ENDBRANCH  11  12
ENDBRANCH   9  11
ENDBRANCH   4   7
BRANCH   1  23
ATOM     23  C   UNL     1      -0.051  11.334  19.594  0.00  0.00    +0.000 C 
BRANCH  23  24
ATOM     24  C   UNL     1      -0.964  11.544  20.844  0.00  0.00    +0.000 A 
ATOM     25  C   UNL     1      -0.646  10.948  22.087  0.00  0.00    +0.000 A 
ATOM     26  C   UNL     1      -1.457  11.119  23.213  0.00  0.00    +0.000 A 
ATOM     27  C   UNL     1      -2.570  11.937  23.127  0.00  0.00    +0.000 A 
ATOM     28  F   UNL     1      -3.346  12.115  24.204  0.00  0.00    +0.000 F 
ATOM     29  C   UNL     1      -2.883  12.586  21.940  0.00  0.00    +0.000 A 
ATOM     30  C   UNL     1      -2.079  12.404  20.808  0.00  0.00    +0.000 A 
ENDBRANCH  23  24
BRANCH  23  31
ATOM     31  C   UNL     1       0.928  12.574  19.523  0.00  0.00    +0.000 A 
ATOM     32  C   UNL     1       0.712  13.609  18.598  0.00  0.00    +0.000 A 
ATOM     33  C   UNL     1       1.581  14.698  18.550  0.00  0.00    +0.000 A 
ATOM     34  C   UNL     1       2.664  14.742  19.417  0.00  0.00    +0.000 A 
ATOM     35  C   UNL     1       2.834  13.681  20.288  0.00  0.00    +0.000 A 
ATOM     36  N   UNL     1       2.004  12.613  20.361  0.00  0.00    +0.000 NA
ENDBRANCH  23  31
BRANCH  23  38
ATOM     37  C   UNL     1      -1.746  10.387  18.021  0.00  0.00    +0.000 C 
ATOM     38  O   UNL     1      -0.781  11.371  18.335  0.00  0.00    +0.000 OA
ENDBRANCH  23  38
ENDBRANCH   1  23
TORSDOF 13
ENDMDL
MODEL 5
REMARK VINA RESULT:      -7.8      2.062      3.737
REMARK  Name = 
REMARK  15 active torsions:
REMARK  status: ('A' for Active; 'I' for Inactive)
REMARK    1  A    between atoms: C_1  and  O_2
REMARK    2  A    between atoms: O_2  and  C_3
REMARK    3  A    between atoms: C_3  and  C_4
REMARK    4  A    between atoms: C_3  and  C_11
REMARK    5  A    between atoms: C_3  and  C_31
REMARK    6  A    between atoms: C_14  and  C_15
REMARK    7  A    between atoms: N_17  and  C_18
REMARK    8  A    between atoms: N_17  and  C_19
REMARK    9  A    between atoms: C_19  and  C_20
REMARK   10  A    between atoms: C_20  and  C_21
REMARK   11  A    between atoms: C_21  and  C_22
REMARK   12  A    between atoms: C_22  and  C_23
REMARK   13  A    between atoms: C_23  and  C_24
REMARK   14  A    between atoms: C_24  and  C_25
REMARK   15  A    between atoms: N_27  and  O_28
REMARK                            x       y       z     vdW  Elec       q    Type
REMARK                         _______ _______ _______ _____ _____    ______ ____
ROOT
ATOM      1  C   UNL     1       1.009   9.646  19.641  0.00  0.00    +0.000 A 
ATOM      2  C   UNL     1       1.011   8.863  20.810  0.00  0.00    +0.000 A 
ATOM      3  C   UNL     1       1.619   7.598  20.838  0.00  0.00    +0.000 A 
ATOM      4  C   UNL     1       2.335   7.119  19.742  0.00  0.00    +0.000 A 
ATOM      5  C   UNL     1       2.346   7.883  18.574  0.00  0.00    +0.000 A 
ATOM      6  C   UNL     1       1.681   9.115  18.521  0.00  0.00    +0.000 A 
ENDROOT
BRANCH   4   7
ATOM      7  C   UNL     1       3.019   5.790  19.693  0.00  0.00    +0.000 C 
ATOM      8  O   UNL     1       4.242   5.802  19.554  0.00  0.00    +0.000 OA
ATOM      9  N   UNL     1       2.306   4.592  19.821  0.00  0.00    +0.000 N 
ATOM     10  C   UNL     1       0.886   4.460  20.128  0.00  0.00    +0.000 C 
BRANCH   9  11
ATOM     11  C   UNL     1       3.046   3.332  19.665  0.00  0.00    +0.000 C 
BRANCH  11  12
ATOM     12  C   UNL     1       3.031   2.843  18.221  0.00  0.00    +0.000 C 
BRANCH  12  13
ATOM     13  C   UNL     1       4.372   3.062  17.522  0.00  0.00    +0.000 C 
BRANCH  13  14
ATOM     14  C   UNL     1       4.196   4.027  16.347  0.00  0.00    +0.000 C 
BRANCH  14  15
ATOM     15  C   UNL     1       5.131   5.226  16.460  0.00  0.00    +0.000 C 
BRANCH  15  16
ATOM     16  C   UNL     1       6.588   4.810  16.291  0.00  0.00    +0.000 C 
BRANCH  16  17
ATOM     17  C   UNL     1       7.415   5.162  17.507  0.00  0.00    +0.000 C 
ATOM     18  O   UNL     1       7.933   4.335  18.258  0.00  0.00    +0.000 OA
ATOM     19  N   UNL     1       7.560   6.512  17.709  0.00  0.00    +0.000 N 
ATOM     20  H   UNL     1       6.947   7.208  17.301  0.00  0.00    +0.000 HD
BRANCH  19  21
ATOM     21  O   UNL     1       8.247   6.877  18.891  0.00  0.00    +0.000 OA
ATOM     22  H   UNL     1       7.628   6.579  19.593  0.00  0.00    +0.000 HD
ENDBRANCH  19  21
ENDBRANCH  16  17
ENDBRANCH  15  16
ENDBRANCH  14  15
ENDBRANCH  13  14
ENDBRANCH  12  13
ENDBRANCH  11  12
ENDBRANCH   9  11
ENDBRANCH   4   7
BRANCH   1  23
ATOM     23  C   UNL     1       0.285  11.031  19.567  0.00  0.00    +0.000 C 
BRANCH  23  24
ATOM     24  C   UNL     1      -0.611  11.326  20.812  0.00  0.00    +0.000 A 
ATOM     25  C   UNL     1      -1.662  12.271  20.747  0.00  0.00    +0.000 A 
ATOM     26  C   UNL     1      -2.469  12.552  21.853  0.00  0.00    +0.000 A 
ATOM     27  C   UNL     1      -2.272  11.849  23.030  0.00  0.00    +0.000 A 
ATOM     28  F   UNL     1      -3.047  12.105  24.091  0.00  0.00    +0.000 F 
ATOM     29  C   UNL     1      -1.288  10.872  23.116  0.00  0.00    +0.000 A 
ATOM     30  C   UNL     1      -0.472  10.600  22.012  0.00  0.00    +0.000 A 
ENDBRANCH  23  24
BRANCH  23  31
ATOM     31  C   UNL     1       1.306  12.231  19.438  0.00  0.00    +0.000 A 
ATOM     32  C   UNL     1       1.878  12.817  20.580  0.00  0.00    +0.000 A 
ATOM     33  C   UNL     1       2.780  13.871  20.449  0.00  0.00    +0.000 A 
ATOM     34  C   UNL     1       3.098  14.341  19.183  0.00  0.00    +0.000 A 
ATOM     35  C   UNL     1       2.483  13.737  18.100  0.00  0.00    +0.000 A 
ATOM     36  N   UNL     1       1.608  12.709  18.195  0.00  0.00    +0.000 NA
ENDBRANCH  23  31
BRANCH  23  38
ATOM     37  C   UNL     1      -1.586  10.219  18.123  0.00  0.00    +0.000 C 
ATOM     38  O   UNL     1      -0.453  11.042  18.312  0.00  0.00    +0.000 OA
ENDBRANCH  23  38
ENDBRANCH   1  23
TORSDOF 13
ENDMDL
MODEL 6
REMARK VINA RESULT:      -7.8      2.115      3.588
REMARK  Name = 
REMARK  15 active torsions:
REMARK  status: ('A' for Active; 'I' for Inactive)
REMARK    1  A    between atoms: C_1  and  O_2
REMARK    2  A    between atoms: O_2  and  C_3
REMARK    3  A    between atoms: C_3  and  C_4
REMARK    4  A    between atoms: C_3  and  C_11
REMARK    5  A    between atoms: C_3  and  C_31
REMARK    6  A    between atoms: C_14  and  C_15
REMARK    7  A    between atoms: N_17  and  C_18
REMARK    8  A    between atoms: N_17  and  C_19
REMARK    9  A    between atoms: C_19  and  C_20
REMARK   10  A    between atoms: C_20  and  C_21
REMARK   11  A    between atoms: C_21  and  C_22
REMARK   12  A    between atoms: C_22  and  C_23
REMARK   13  A    between atoms: C_23  and  C_24
REMARK   14  A    between atoms: C_24  and  C_25
REMARK   15  A    between atoms: N_27  and  O_28
REMARK                            x       y       z     vdW  Elec       q    Type
REMARK                         _______ _______ _______ _____ _____    ______ ____
ROOT
ATOM      1  C   UNL     1       0.931   9.409  19.166  0.00  0.00    +0.000 A 
ATOM      2  C   UNL     1       1.629   9.041  18.002  0.00  0.00    +0.000 A 
ATOM      3  C   UNL     1       2.452   7.903  17.976  0.00  0.00    +0.000 A 
ATOM      4  C   UNL     1       2.520   7.039  19.068  0.00  0.00    +0.000 A 
ATOM      5  C   UNL     1       1.830   7.387  20.230  0.00  0.00    +0.000 A 
ATOM      6  C   UNL     1       1.065   8.558  20.283  0.00  0.00    +0.000 A 
ENDROOT
BRANCH   4   7
ATOM      7  C   UNL     1       3.361   5.804  19.117  0.00  0.00    +0.000 C 
ATOM      8  O   UNL     1       4.489   5.921  19.597  0.00  0.00    +0.000 OA
ATOM      9  N   UNL     1       2.882   4.570  18.660  0.00  0.00    +0.000 N 
ATOM     10  C   UNL     1       1.526   4.285  18.204  0.00  0.00    +0.000 C 
BRANCH   9  11
ATOM     11  C   UNL     1       3.811   3.431  18.657  0.00  0.00    +0.000 C 
BRANCH  11  12
ATOM     12  C   UNL     1       4.867   3.565  17.566  0.00  0.00    +0.000 C 
BRANCH  12  13
ATOM     13  C   UNL     1       4.323   4.253  16.316  0.00  0.00    +0.000 C 
BRANCH  13  14
ATOM     14  C   UNL     1       5.432   5.063  15.641  0.00  0.00    +0.000 C 
BRANCH  14  15
ATOM     15  C   UNL     1       5.923   6.196  16.534  0.00  0.00    +0.000 C 
BRANCH  15  16
ATOM     16  C   UNL     1       7.422   6.088  16.793  0.00  0.00    +0.000 C 
BRANCH  16  17
ATOM     17  C   UNL     1       7.757   6.333  18.246  0.00  0.00    +0.000 C 
ATOM     18  O   UNL     1       8.224   7.385  18.685  0.00  0.00    +0.000 OA
ATOM     19  N   UNL     1       7.483   5.267  19.067  0.00  0.00    +0.000 N 
ATOM     20  H   UNL     1       7.367   4.317  18.732  0.00  0.00    +0.000 HD
BRANCH  19  21
ATOM     21  O   UNL     1       7.874   5.426  20.418  0.00  0.00    +0.000 OA
ATOM     22  H   UNL     1       7.065   5.800  20.827  0.00  0.00    +0.000 HD
ENDBRANCH  19  21
ENDBRANCH  16  17
ENDBRANCH  15  16
ENDBRANCH  14  15
ENDBRANCH  13  14
ENDBRANCH  12  13
ENDBRANCH  11  12
ENDBRANCH   9  11
ENDBRANCH   4   7
BRANCH   1  23
ATOM     23  C   UNL     1       0.058  10.706  19.239  0.00  0.00    +0.000 C 
BRANCH  23  24
ATOM     24  C   UNL     1      -1.148  10.694  18.246  0.00  0.00    +0.000 A 
ATOM     25  C   UNL     1      -1.327  11.735  17.305  0.00  0.00    +0.000 A 
ATOM     26  C   UNL     1      -2.404  11.744  16.414  0.00  0.00    +0.000 A 
ATOM     27  C   UNL     1      -3.290  10.680  16.413  0.00  0.00    +0.000 A 
ATOM     28  F   UNL     1      -4.319  10.676  15.556  0.00  0.00    +0.000 F 
ATOM     29  C   UNL     1      -3.115   9.611  17.282  0.00  0.00    +0.000 A 
ATOM     30  C   UNL     1      -2.044   9.608  18.183  0.00  0.00    +0.000 A 
ENDBRANCH  23  24
BRANCH  23  31
ATOM     31  C   UNL     1      -0.537  10.944  20.685  0.00  0.00    +0.000 A 
ATOM     32  C   UNL     1      -1.531  11.912  20.905  0.00  0.00    +0.000 A 
ATOM     33  C   UNL     1      -2.048  12.107  22.184  0.00  0.00    +0.000 A 
ATOM     34  C   UNL     1      -1.563  11.343  23.237  0.00  0.00    +0.000 A 
ATOM     35  C   UNL     1      -0.567  10.423  22.959  0.00  0.00    +0.000 A 
ATOM     36  N   UNL     1      -0.050  10.208  21.727  0.00  0.00    +0.000 NA
ENDBRANCH  23  31
BRANCH  23  38
ATOM     37  C   UNL     1       1.509  12.540  20.119  0.00  0.00    +0.000 C 
ATOM     38  O   UNL     1       0.966  11.825  19.028  0.00  0.00    +0.000 OA
ENDBRANCH  23  38
ENDBRANCH   1  23
TORSDOF 13
ENDMDL
MODEL 7
REMARK VINA RESULT:      -7.8      1.953      3.663
REMARK  Name = 
REMARK  15 active torsions:
REMARK  status: ('A' for Active; 'I' for Inactive)
REMARK    1  A    between atoms: C_1  and  O_2
REMARK    2  A    between atoms: O_2  and  C_3
REMARK    3  A    between atoms: C_3  and  C_4
REMARK    4  A    between atoms: C_3  and  C_11
REMARK    5  A    between atoms: C_3  and  C_31
REMARK    6  A    between atoms: C_14  and  C_15
REMARK    7  A    between atoms: N_17  and  C_18
REMARK    8  A    between atoms: N_17  and  C_19
REMARK    9  A    between atoms: C_19  and  C_20
REMARK   10  A    between atoms: C_20  and  C_21
REMARK   11  A    between atoms: C_21  and  C_22
REMARK   12  A    between atoms: C_22  and  C_23
REMARK   13  A    between atoms: C_23  and  C_24
REMARK   14  A    between atoms: C_24  and  C_25
REMARK   15  A    between atoms: N_27  and  O_28
REMARK                            x       y       z     vdW  Elec       q    Type
REMARK                         _______ _______ _______ _____ _____    ______ ____
ROOT
ATOM      1  C   UNL     1       0.999   9.465  19.407  0.00  0.00    +0.000 A 
ATOM      2  C   UNL     1       1.663   8.997  18.259  0.00  0.00    +0.000 A 
ATOM      3  C   UNL     1       2.420   7.815  18.287  0.00  0.00    +0.000 A 
ATOM      4  C   UNL     1       2.451   7.007  19.423  0.00  0.00    +0.000 A 
ATOM      5  C   UNL     1       1.794   7.454  20.571  0.00  0.00    +0.000 A 
ATOM      6  C   UNL     1       1.097   8.668  20.567  0.00  0.00    +0.000 A 
ENDROOT
BRANCH   4   7
ATOM      7  C   UNL     1       3.221   5.730  19.532  0.00  0.00    +0.000 C 
ATOM      8  O   UNL     1       4.432   5.829  19.731  0.00  0.00    +0.000 OA
ATOM      9  N   UNL     1       2.594   4.482  19.432  0.00  0.00    +0.000 N 
ATOM     10  C   UNL     1       1.157   4.243  19.336  0.00  0.00    +0.000 C 
BRANCH   9  11
ATOM     11  C   UNL     1       3.442   3.282  19.454  0.00  0.00    +0.000 C 
BRANCH  11  12
ATOM     12  C   UNL     1       4.460   3.289  18.319  0.00  0.00    +0.000 C 
BRANCH  12  13
ATOM     13  C   UNL     1       3.852   3.763  17.000  0.00  0.00    +0.000 C 
BRANCH  13  14
ATOM     14  C   UNL     1       4.780   4.781  16.333  0.00  0.00    +0.000 C 
BRANCH  14  15
ATOM     15  C   UNL     1       6.247   4.417  16.530  0.00  0.00    +0.000 C 
BRANCH  15  16
ATOM     16  C   UNL     1       7.132   5.658  16.527  0.00  0.00    +0.000 C 
BRANCH  16  17
ATOM     17  C   UNL     1       7.447   6.125  17.929  0.00  0.00    +0.000 C 
ATOM     18  O   UNL     1       7.808   7.267  18.217  0.00  0.00    +0.000 OA
ATOM     19  N   UNL     1       7.284   5.156  18.887  0.00  0.00    +0.000 N 
ATOM     20  H   UNL     1       7.262   4.163  18.682  0.00  0.00    +0.000 HD
BRANCH  19  21
ATOM     21  O   UNL     1       7.663   5.530  20.199  0.00  0.00    +0.000 OA
ATOM     22  H   UNL     1       7.736   4.662  20.651  0.00  0.00    +0.000 HD
ENDBRANCH  19  21
ENDBRANCH  16  17
ENDBRANCH  15  16
ENDBRANCH  14  15
ENDBRANCH  13  14
ENDBRANCH  12  13
ENDBRANCH  11  12
ENDBRANCH   9  11
ENDBRANCH   4   7
BRANCH   1  23
ATOM     23  C   UNL     1       0.201  10.812  19.418  0.00  0.00    +0.000 C 
BRANCH  23  24
ATOM     24  C   UNL     1      -1.053  10.793  18.487  0.00  0.00    +0.000 A 
ATOM     25  C   UNL     1      -1.165   9.854  17.435  0.00  0.00    +0.000 A 
ATOM     26  C   UNL     1      -2.277   9.827  16.588  0.00  0.00    +0.000 A 
ATOM     27  C   UNL     1      -3.322  10.706  16.815  0.00  0.00    +0.000 A 
ATOM     28  F   UNL     1      -4.395  10.681  16.015  0.00  0.00    +0.000 F 
ATOM     29  C   UNL     1      -3.275  11.604  17.874  0.00  0.00    +0.000 A 
ATOM     30  C   UNL     1      -2.156  11.640  18.714  0.00  0.00    +0.000 A 
ENDBRANCH  23  24
BRANCH  23  31
ATOM     31  C   UNL     1      -0.304  11.194  20.866  0.00  0.00    +0.000 A 
ATOM     32  C   UNL     1      -0.767  10.207  21.752  0.00  0.00    +0.000 A 
ATOM     33  C   UNL     1      -1.205  10.559  23.027  0.00  0.00    +0.000 A 
ATOM     34  C   UNL     1      -1.188  11.894  23.407  0.00  0.00    +0.000 A 
ATOM     35  C   UNL     1      -0.742  12.821  22.481  0.00  0.00    +0.000 A 
ATOM     36  N   UNL     1      -0.306  12.508  21.238  0.00  0.00    +0.000 NA
ENDBRANCH  23  31
BRANCH  23  38
ATOM     37  C   UNL     1       0.879  12.792  18.052  0.00  0.00    +0.000 C 
ATOM     38  O   UNL     1       1.156  11.857  19.075  0.00  0.00    +0.000 OA
ENDBRANCH  23  38
ENDBRANCH   1  23
TORSDOF 13
ENDMDL
MODEL 8
REMARK VINA RESULT:      -7.7      1.847      2.295
REMARK  Name = 
REMARK  15 active torsions:
REMARK  status: ('A' for Active; 'I' for Inactive)
REMARK    1  A    between atoms: C_1  and  O_2
REMARK    2  A    between atoms: O_2  and  C_3
REMARK    3  A    between atoms: C_3  and  C_4
REMARK    4  A    between atoms: C_3  and  C_11
REMARK    5  A    between atoms: C_3  and  C_31
REMARK    6  A    between atoms: C_14  and  C_15
REMARK    7  A    between atoms: N_17  and  C_18
REMARK    8  A    between atoms: N_17  and  C_19
REMARK    9  A    between atoms: C_19  and  C_20
REMARK   10  A    between atoms: C_20  and  C_21
REMARK   11  A    between atoms: C_21  and  C_22
REMARK   12  A    between atoms: C_22  and  C_23
REMARK   13  A    between atoms: C_23  and  C_24
REMARK   14  A    between atoms: C_24  and  C_25
REMARK   15  A    between atoms: N_27  and  O_28
REMARK                            x       y       z     vdW  Elec       q    Type
REMARK                         _______ _______ _______ _____ _____    ______ ____
ROOT
ATOM      1  C   UNL     1       1.008   9.368  19.948  0.00  0.00    +0.000 A 
ATOM      2  C   UNL     1       1.617   8.950  18.751  0.00  0.00    +0.000 A 
ATOM      3  C   UNL     1       2.311   7.732  18.672  0.00  0.00    +0.000 A 
ATOM      4  C   UNL     1       2.328   6.843  19.747  0.00  0.00    +0.000 A 
ATOM      5  C   UNL     1       1.725   7.239  20.942  0.00  0.00    +0.000 A 
ATOM      6  C   UNL     1       1.093   8.484  21.044  0.00  0.00    +0.000 A 
ENDROOT
BRANCH   4   7
ATOM      7  C   UNL     1       3.032   5.525  19.742  0.00  0.00    +0.000 C 
ATOM      8  O   UNL     1       4.257   5.551  19.628  0.00  0.00    +0.000 OA
ATOM      9  N   UNL     1       2.334   4.318  19.881  0.00  0.00    +0.000 N 
ATOM     10  C   UNL     1       0.909   4.172  20.160  0.00  0.00    +0.000 C 
BRANCH   9  11
ATOM     11  C   UNL     1       3.096   3.066  19.768  0.00  0.00    +0.000 C 
BRANCH  11  12
ATOM     12  C   UNL     1       2.746   2.305  18.494  0.00  0.00    +0.000 C 
BRANCH  12  13
ATOM     13  C   UNL     1       3.044   3.116  17.235  0.00  0.00    +0.000 C 
BRANCH  13  14
ATOM     14  C   UNL     1       4.556   3.283  17.067  0.00  0.00    +0.000 C 
BRANCH  14  15
ATOM     15  C   UNL     1       4.895   4.476  16.181  0.00  0.00    +0.000 C 
BRANCH  15  16
ATOM     16  C   UNL     1       6.402   4.670  16.064  0.00  0.00    +0.000 C 
BRANCH  16  17
ATOM     17  C   UNL     1       6.859   4.655  14.623  0.00  0.00    +0.000 C 
ATOM     18  O   UNL     1       7.679   5.439  14.145  0.00  0.00    +0.000 OA
ATOM     19  N   UNL     1       6.283   3.663  13.868  0.00  0.00    +0.000 N 
ATOM     20  H   UNL     1       5.427   3.187  14.128  0.00  0.00    +0.000 HD
BRANCH  19  21
ATOM     21  O   UNL     1       6.614   3.679  12.493  0.00  0.00    +0.000 OA
ATOM     22  H   UNL     1       6.542   2.731  12.249  0.00  0.00    +0.000 HD
ENDBRANCH  19  21
ENDBRANCH  16  17
ENDBRANCH  15  16
ENDBRANCH  14  15
ENDBRANCH  13  14
ENDBRANCH  12  13
ENDBRANCH  11  12
ENDBRANCH   9  11
ENDBRANCH   4   7
BRANCH   1  23
ATOM     23  C   UNL     1       0.283  10.749  20.077  0.00  0.00    +0.000 C 
BRANCH  23  24
ATOM     24  C   UNL     1       1.207  11.963  19.745  0.00  0.00    +0.000 A 
ATOM     25  C   UNL     1       1.705  12.802  20.769  0.00  0.00    +0.000 A 
ATOM     26  C   UNL     1       2.527  13.897  20.489  0.00  0.00    +0.000 A 
ATOM     27  C   UNL     1       2.910  14.138  19.181  0.00  0.00    +0.000 A 
ATOM     28  F   UNL     1       3.706  15.179  18.904  0.00  0.00    +0.000 F 
ATOM     29  C   UNL     1       2.489  13.303  18.153  0.00  0.00    +0.000 A 
ATOM     30  C   UNL     1       1.656  12.214  18.432  0.00  0.00    +0.000 A 
ENDBRANCH  23  24
BRANCH  23  31
ATOM     31  C   UNL     1      -0.976  10.852  19.126  0.00  0.00    +0.000 A 
ATOM     32  C   UNL     1      -1.431   9.733  18.410  0.00  0.00    +0.000 A 
ATOM     33  C   UNL     1      -2.546   9.839  17.579  0.00  0.00    +0.000 A 
ATOM     34  C   UNL     1      -3.192  11.062  17.461  0.00  0.00    +0.000 A 
ATOM     35  C   UNL     1      -2.681  12.131  18.175  0.00  0.00    +0.000 A 
ATOM     36  N   UNL     1      -1.604  12.057  18.993  0.00  0.00    +0.000 NA
ENDBRANCH  23  31
BRANCH  23  38
ATOM     37  C   UNL     1      -1.303  11.702  21.756  0.00  0.00    +0.000 C 
ATOM     38  O   UNL     1      -0.269  10.798  21.423  0.00  0.00    +0.000 OA
ENDBRANCH  23  38
ENDBRANCH   1  23
TORSDOF 13
ENDMDL
MODEL 9
REMARK VINA RESULT:      -7.7      0.917      1.161
REMARK  Name = 
REMARK  15 active torsions:
REMARK  status: ('A' for Active; 'I' for Inactive)
REMARK    1  A    between atoms: C_1  and  O_2
REMARK    2  A    between atoms: O_2  and  C_3
REMARK    3  A    between atoms: C_3  and  C_4
REMARK    4  A    between atoms: C_3  and  C_11
REMARK    5  A    between atoms: C_3  and  C_31
REMARK    6  A    between atoms: C_14  and  C_15
REMARK    7  A    between atoms: N_17  and  C_18
REMARK    8  A    between atoms: N_17  and  C_19
REMARK    9  A    between atoms: C_19  and  C_20
REMARK   10  A    between atoms: C_20  and  C_21
REMARK   11  A    between atoms: C_21  and  C_22
REMARK   12  A    between atoms: C_22  and  C_23
REMARK   13  A    between atoms: C_23  and  C_24
REMARK   14  A    between atoms: C_24  and  C_25
REMARK   15  A    between atoms: N_27  and  O_28
REMARK                            x       y       z     vdW  Elec       q    Type
REMARK                         _______ _______ _______ _____ _____    ______ ____
ROOT
ATOM      1  C   UNL     1       0.707   9.648  19.189  0.00  0.00    +0.000 A 
ATOM      2  C   UNL     1       1.086   8.883  20.307  0.00  0.00    +0.000 A 
ATOM      3  C   UNL     1       1.915   7.758  20.172  0.00  0.00    +0.000 A 
ATOM      4  C   UNL     1       2.480   7.424  18.941  0.00  0.00    +0.000 A 
ATOM      5  C   UNL     1       2.118   8.175  17.822  0.00  0.00    +0.000 A 
ATOM      6  C   UNL     1       1.235   9.255  17.942  0.00  0.00    +0.000 A 
ENDROOT
BRANCH   4   7
ATOM      7  C   UNL     1       3.380   6.252  18.714  0.00  0.00    +0.000 C 
ATOM      8  O   UNL     1       4.572   6.497  18.524  0.00  0.00    +0.000 OA
ATOM      9  N   UNL     1       2.896   4.938  18.737  0.00  0.00    +0.000 N 
ATOM     10  C   UNL     1       1.542   4.523  19.088  0.00  0.00    +0.000 C 
BRANCH   9  11
ATOM     11  C   UNL     1       3.832   3.854  18.409  0.00  0.00    +0.000 C 
BRANCH  11  12
ATOM     12  C   UNL     1       3.772   3.485  16.930  0.00  0.00    +0.000 C 
BRANCH  12  13
ATOM     13  C   UNL     1       5.142   3.561  16.259  0.00  0.00    +0.000 C 
BRANCH  13  14
ATOM     14  C   UNL     1       5.285   4.890  15.514  0.00  0.00    +0.000 C 
BRANCH  14  15
ATOM     15  C   UNL     1       6.624   5.556  15.806  0.00  0.00    +0.000 C 
BRANCH  15  16
ATOM     16  C   UNL     1       7.399   4.798  16.878  0.00  0.00    +0.000 C 
BRANCH  16  17
ATOM     17  C   UNL     1       7.630   5.646  18.108  0.00  0.00    +0.000 C 
ATOM     18  O   UNL     1       7.929   6.841  18.083  0.00  0.00    +0.000 OA
ATOM     19  N   UNL     1       7.464   4.968  19.289  0.00  0.00    +0.000 N 
ATOM     20  H   UNL     1       7.493   3.957  19.364  0.00  0.00    +0.000 HD
BRANCH  19  21
ATOM     21  O   UNL     1       7.766   5.705  20.459  0.00  0.00    +0.000 OA
ATOM     22  H   UNL     1       7.123   6.445  20.412  0.00  0.00    +0.000 HD
ENDBRANCH  19  21
ENDBRANCH  16  17
ENDBRANCH  15  16
ENDBRANCH  14  15
ENDBRANCH  13  14
ENDBRANCH  12  13
ENDBRANCH  11  12
ENDBRANCH   9  11
ENDBRANCH   4   7
BRANCH   1  23
ATOM     23  C   UNL     1      -0.267  10.868  19.306  0.00  0.00    +0.000 C 
BRANCH  23  24
ATOM     24  C   UNL     1       0.432  12.241  19.047  0.00  0.00    +0.000 A 
ATOM     25  C   UNL     1      -0.320  13.435  18.953  0.00  0.00    +0.000 A 
ATOM     26  C   UNL     1       0.288  14.671  18.714  0.00  0.00    +0.000 A 
ATOM     27  C   UNL     1       1.668  14.739  18.622  0.00  0.00    +0.000 A 
ATOM     28  F   UNL     1       2.259  15.920  18.404  0.00  0.00    +0.000 F 
ATOM     29  C   UNL     1       2.445  13.597  18.767  0.00  0.00    +0.000 A 
ATOM     30  C   UNL     1       1.835  12.357  18.993  0.00  0.00    +0.000 A 
ENDBRANCH  23  24
BRANCH  23  31
ATOM     31  C   UNL     1      -1.475  10.766  18.292  0.00  0.00    +0.000 A 
ATOM     32  C   UNL     1      -2.452   9.766  18.433  0.00  0.00    +0.000 A 
ATOM     33  C   UNL     1      -3.514   9.691  17.533  0.00  0.00    +0.000 A 
ATOM     34  C   UNL     1      -3.589  10.607  16.493  0.00  0.00    +0.000 A 
ATOM     35  C   UNL     1      -2.584  11.553  16.395  0.00  0.00    +0.000 A 
ATOM     36  N   UNL     1      -1.544  11.653  17.256  0.00  0.00    +0.000 NA
ENDBRANCH  23  31
BRANCH  23  38
ATOM     37  C   UNL     1      -1.457  11.910  21.241  0.00  0.00    +0.000 C 
ATOM     38  O   UNL     1      -0.885  10.776  20.622  0.00  0.00    +0.000 OA
ENDBRANCH  23  38
ENDBRANCH   1  23
TORSDOF 13
ENDMDL
