MODEL 1
REMARK VINA RESULT:      -6.8      0.000      0.000
REMARK  Name = 
REMARK  6 active torsions:
REMARK  status: ('A' for Active; 'I' for Inactive)
REMARK    1  A    between atoms: C_1  and  O_2
REMARK    2  A    between atoms: O_2  and  C_3
REMARK    3  A    between atoms: C_6  and  N_7
REMARK    4  A    between atoms: C_8  and  N_9
REMARK    5  A    between atoms: C_10  and  C_11
REMARK    6  A    between atoms: C_16  and  N_17
REMARK                            x       y       z     vdW  Elec       q    Type
REMARK                         _______ _______ _______ _____ _____    ______ ____
ROOT
ATOM      1  N   UNL     1       0.592   9.936  20.353  0.00  0.00    +0.000 N 
ATOM      2  C   UNL     1      -0.183  10.692  19.487  0.00  0.00    +0.000 A 
ATOM      3  C   UNL     1      -0.199  11.956  19.916  0.00  0.00    +0.000 A 
ATOM      4  C   UNL     1      -1.043  12.229  21.004  0.00  0.00    +0.000 A 
ATOM      5  C   UNL     1      -1.963  13.282  20.901  0.00  0.00    +0.000 A 
ATOM      6  C   UNL     1      -2.795  13.473  21.955  0.00  0.00    +0.000 A 
ATOM      7  C   UNL     1      -2.668  12.620  23.064  0.00  0.00    +0.000 A 
ATOM      8  C   UNL     1      -1.668  11.566  23.145  0.00  0.00    +0.000 A 
ATOM      9  C   UNL     1      -0.831  11.337  22.058  0.00  0.00    +0.000 A 
ATOM     10  C   UNL     1       0.319  10.211  21.782  0.00  0.00    +0.000 A 
ATOM     11  O   UNL     1       0.899   9.694  22.728  0.00  0.00    +0.000 OA
ENDROOT
BRANCH   1  15
ATOM     12  C   UNL     1       2.894   6.940  18.195  0.00  0.00    +0.000 A 
ATOM     13  C   UNL     1       2.479   6.724  19.518  0.00  0.00    +0.000 A 
ATOM     14  C   UNL     1       1.781   7.709  20.274  0.00  0.00    +0.000 A 
ATOM     15  C   UNL     1       1.439   8.926  19.714  0.00  0.00    +0.000 A 
ATOM     16  C   UNL     1       1.917   9.136  18.381  0.00  0.00    +0.000 A 
ATOM     17  C   UNL     1       2.636   8.175  17.636  0.00  0.00    +0.000 A 
BRANCH  12  19
ATOM     18  C   UNL     1       3.362   4.582  18.125  0.00  0.00    +0.000 C 
ATOM     19  O   UNL     1       3.541   5.897  17.594  0.00  0.00    +0.000 OA
ENDBRANCH  12  19
ENDBRANCH   1  15
BRANCH   2  20
ATOM     20  N   UNL     1      -1.362  10.017  19.119  0.00  0.00    +0.000 N 
ATOM     21  H   UNL     1      -1.160   9.414  18.317  0.00  0.00    +0.000 HD
ATOM     22  H   UNL     1      -1.707   9.412  19.865  0.00  0.00    +0.000 HD
ENDBRANCH   2  20
BRANCH   7  23
ATOM     23  N   UNL     1      -3.658  12.816  24.136  0.00  0.00    +0.000 N 
ATOM     24  O   UNL     1      -4.448  11.871  24.393  0.00  0.00    +0.000 OA
ATOM     25  O   UNL     1      -3.635  13.892  24.743  0.00  0.00    +0.000 OA
ENDBRANCH   7  23
BRANCH   3  26
ATOM     26  C   UNL     1       0.756  13.057  19.484  0.00  0.00    +0.000 C 
ATOM     27  N   UNL     1       1.549  13.969  19.125  0.00  0.00    +0.000 NA
ENDBRANCH   3  26
TORSDOF 5
ENDMDL
MODEL 2
REMARK VINA RESULT:      -6.7      0.565      1.304
REMARK  Name = 
REMARK  6 active torsions:
REMARK  status: ('A' for Active; 'I' for Inactive)
REMARK    1  A    between atoms: C_1  and  O_2
REMARK    2  A    between atoms: O_2  and  C_3
REMARK    3  A    between atoms: C_6  and  N_7
REMARK    4  A    between atoms: C_8  and  N_9
REMARK    5  A    between atoms: C_10  and  C_11
REMARK    6  A    between atoms: C_16  and  N_17
REMARK                            x       y       z     vdW  Elec       q    Type
REMARK                         _______ _______ _______ _____ _____    ______ ____
ROOT
ATOM      1  N   UNL     1       0.607   9.936  20.105  0.00  0.00    +0.000 N 
ATOM      2  C   UNL     1      -0.181  10.724  19.281  0.00  0.00    +0.000 A 
ATOM      3  C   UNL     1      -0.152  11.981  19.731  0.00  0.00    +0.000 A 
ATOM      4  C   UNL     1      -0.949  12.253  20.854  0.00  0.00    +0.000 A 
ATOM      5  C   UNL     1      -1.847  13.329  20.804  0.00  0.00    +0.000 A 
ATOM      6  C   UNL     1      -2.635  13.520  21.891  0.00  0.00    +0.000 A 
ATOM      7  C   UNL     1      -2.486  12.645  22.980  0.00  0.00    +0.000 A 
ATOM      8  C   UNL     1      -1.509  11.567  23.006  0.00  0.00    +0.000 A 
ATOM      9  C   UNL     1      -0.719  11.339  21.885  0.00  0.00    +0.000 A 
ATOM     10  C   UNL     1       0.394  10.192  21.547  0.00  0.00    +0.000 A 
ATOM     11  O   UNL     1       0.997   9.646  22.462  0.00  0.00    +0.000 OA
ENDROOT
BRANCH   1  15
ATOM     12  C   UNL     1       3.190   6.921  18.324  0.00  0.00    +0.000 A 
ATOM     13  C   UNL     1       2.829   8.078  17.618  0.00  0.00    +0.000 A 
ATOM     14  C   UNL     1       1.934   9.052  18.146  0.00  0.00    +0.000 A 
ATOM     15  C   UNL     1       1.406   8.919  19.417  0.00  0.00    +0.000 A 
ATOM     16  C   UNL     1       1.755   7.707  20.094  0.00  0.00    +0.000 A 
ATOM     17  C   UNL     1       2.618   6.722  19.564  0.00  0.00    +0.000 A 
BRANCH  12  19
ATOM     18  C   UNL     1       4.904   6.620  16.664  0.00  0.00    +0.000 C 
ATOM     19  O   UNL     1       4.070   6.086  17.694  0.00  0.00    +0.000 OA
ENDBRANCH  12  19
ENDBRANCH   1  15
BRANCH   2  20
ATOM     20  N   UNL     1      -1.389  10.082  18.946  0.00  0.00    +0.000 N 
ATOM     21  H   UNL     1      -1.591   9.371  19.653  0.00  0.00    +0.000 HD
ATOM     22  H   UNL     1      -2.179  10.729  18.942  0.00  0.00    +0.000 HD
ENDBRANCH   2  20
BRANCH   7  23
ATOM     23  N   UNL     1      -3.431  12.845  24.091  0.00  0.00    +0.000 N 
ATOM     24  O   UNL     1      -3.406  13.946  24.699  0.00  0.00    +0.000 OA
ATOM     25  O   UNL     1      -4.216  11.925  24.344  0.00  0.00    +0.000 OA
ENDBRANCH   7  23
BRANCH   3  26
ATOM     26  C   UNL     1       0.812  13.067  19.282  0.00  0.00    +0.000 C 
ATOM     27  N   UNL     1       1.611  13.968  18.908  0.00  0.00    +0.000 NA
ENDBRANCH   3  26
TORSDOF 5
ENDMDL
MODEL 3
REMARK VINA RESULT:      -6.4      0.920      1.327
REMARK  Name = 
REMARK  6 active torsions:
REMARK  status: ('A' for Active; 'I' for Inactive)
REMARK    1  A    between atoms: C_1  and  O_2
REMARK    2  A    between atoms: O_2  and  C_3
REMARK    3  A    between atoms: C_6  and  N_7
REMARK    4  A    between atoms: C_8  and  N_9
REMARK    5  A    between atoms: C_10  and  C_11
REMARK    6  A    between atoms: C_16  and  N_17
REMARK                            x       y       z     vdW  Elec       q    Type
REMARK                         _______ _______ _______ _____ _____    ______ ____
ROOT
ATOM      1  N   UNL     1       0.468  10.189  20.483  0.00  0.00    +0.000 N 
ATOM      2  C   UNL     1       0.247  11.407  19.859  0.00  0.00    +0.000 A 
ATOM      3  C   UNL     1       0.425  12.386  20.751  0.00  0.00    +0.000 A 
ATOM      4  C   UNL     1      -0.626  12.593  21.658  0.00  0.00    +0.000 A 
ATOM      5  C   UNL     1      -1.150  13.884  21.806  0.00  0.00    +0.000 A 
ATOM      6  C   UNL     1      -2.200  14.026  22.652  0.00  0.00    +0.000 A 
ATOM      7  C   UNL     1      -2.672  12.884  23.322  0.00  0.00    +0.000 A 
ATOM      8  C   UNL     1      -2.068  11.569  23.170  0.00  0.00    +0.000 A 
ATOM      9  C   UNL     1      -1.013  11.403  22.280  0.00  0.00    +0.000 A 
ATOM     10  C   UNL     1      -0.175  10.081  21.811  0.00  0.00    +0.000 A 
ATOM     11  O   UNL     1      -0.094   9.119  22.563  0.00  0.00    +0.000 OA
ENDROOT
BRANCH   1  15
ATOM     12  C   UNL     1       2.825   7.240  18.321  0.00  0.00    +0.000 A 
ATOM     13  C   UNL     1       2.372   8.409  17.693  0.00  0.00    +0.000 A 
ATOM     14  C   UNL     1       1.545   9.363  18.352  0.00  0.00    +0.000 A 
ATOM     15  C   UNL     1       1.181   9.196  19.676  0.00  0.00    +0.000 A 
ATOM     16  C   UNL     1       1.617   7.971  20.274  0.00  0.00    +0.000 A 
ATOM     17  C   UNL     1       2.413   7.006  19.618  0.00  0.00    +0.000 A 
BRANCH  12  19
ATOM     18  C   UNL     1       3.437   5.013  17.649  0.00  0.00    +0.000 C 
ATOM     19  O   UNL     1       3.624   6.427  17.566  0.00  0.00    +0.000 OA
ENDBRANCH  12  19
ENDBRANCH   1  15
BRANCH   2  20
ATOM     20  N   UNL     1      -0.880  11.365  19.017  0.00  0.00    +0.000 N 
ATOM     21  H   UNL     1      -1.021  10.401  18.703  0.00  0.00    +0.000 HD
ATOM     22  H   UNL     1      -1.733  11.647  19.502  0.00  0.00    +0.000 HD
ENDBRANCH   2  20
BRANCH   7  23
ATOM     23  N   UNL     1      -3.870  13.082  24.154  0.00  0.00    +0.000 N 
ATOM     24  O   UNL     1      -4.445  12.063  24.617  0.00  0.00    +0.000 OA
ATOM     25  O   UNL     1      -4.225  14.245  24.375  0.00  0.00    +0.000 OA
ENDBRANCH   7  23
BRANCH   3  26
ATOM     26  C   UNL     1       1.722  13.135  21.007  0.00  0.00    +0.000 C 
ATOM     27  N   UNL     1       2.799  13.756  21.218  0.00  0.00    +0.000 NA
ENDBRANCH   3  26
TORSDOF 5
ENDMDL
MODEL 4
REMARK VINA RESULT:      -6.3      1.761      7.652
REMARK  Name = 
REMARK  6 active torsions:
REMARK  status: ('A' for Active; 'I' for Inactive)
REMARK    1  A    between atoms: C_1  and  O_2
REMARK    2  A    between atoms: O_2  and  C_3
REMARK    3  A    between atoms: C_6  and  N_7
REMARK    4  A    between atoms: C_8  and  N_9
REMARK    5  A    between atoms: C_10  and  C_11
REMARK    6  A    between atoms: C_16  and  N_17
REMARK                            x       y       z     vdW  Elec       q    Type
REMARK                         _______ _______ _______ _____ _____    ______ ____
ROOT
ATOM      1  N   UNL     1      -0.242  10.984  21.278  0.00  0.00    +0.000 N 
ATOM      2  C   UNL     1       0.246  11.495  20.086  0.00  0.00    +0.000 A 
ATOM      3  C   UNL     1      -0.009  10.622  19.107  0.00  0.00    +0.000 A 
ATOM      4  C   UNL     1       0.836   9.503  19.042  0.00  0.00    +0.000 A 
ATOM      5  C   UNL     1       1.459   9.192  17.826  0.00  0.00    +0.000 A 
ATOM      6  C   UNL     1       2.309   8.136  17.825  0.00  0.00    +0.000 A 
ATOM      7  C   UNL     1       2.490   7.429  19.025  0.00  0.00    +0.000 A 
ATOM      8  C   UNL     1       1.788   7.761  20.256  0.00  0.00    +0.000 A 
ATOM      9  C   UNL     1       0.940   8.863  20.280  0.00  0.00    +0.000 A 
ATOM     10  C   UNL     1       0.079   9.554  21.484  0.00  0.00    +0.000 A 
ATOM     11  O   UNL     1      -0.273   8.878  22.441  0.00  0.00    +0.000 OA
ENDROOT
BRANCH   1  15
ATOM     12  C   UNL     1      -2.392  13.853  23.743  0.00  0.00    +0.000 A 
ATOM     13  C   UNL     1      -1.178  14.190  23.127  0.00  0.00    +0.000 A 
ATOM     14  C   UNL     1      -0.417  13.256  22.368  0.00  0.00    +0.000 A 
ATOM     15  C   UNL     1      -0.871  11.965  22.166  0.00  0.00    +0.000 A 
ATOM     16  C   UNL     1      -2.087  11.637  22.845  0.00  0.00    +0.000 A 
ATOM     17  C   UNL     1      -2.832  12.550  23.624  0.00  0.00    +0.000 A 
BRANCH  12  19
ATOM     18  C   UNL     1      -2.450  15.305  25.660  0.00  0.00    +0.000 C 
ATOM     19  O   UNL     1      -3.016  14.860  24.426  0.00  0.00    +0.000 OA
ENDBRANCH  12  19
ENDBRANCH   1  15
BRANCH   2  20
ATOM     20  N   UNL     1       1.518  12.077  20.250  0.00  0.00    +0.000 N 
ATOM     21  H   UNL     1       2.157  11.672  19.561  0.00  0.00    +0.000 HD
ATOM     22  H   UNL     1       1.503  13.084  20.085  0.00  0.00    +0.000 HD
ENDBRANCH   2  20
BRANCH   7  23
ATOM     23  N   UNL     1       3.492   6.351  18.986  0.00  0.00    +0.000 N 
ATOM     24  O   UNL     1       3.477   5.495  19.908  0.00  0.00    +0.000 OA
ATOM     25  O   UNL     1       4.274   6.335  18.030  0.00  0.00    +0.000 OA
ENDBRANCH   7  23
BRANCH   3  26
ATOM     26  C   UNL     1      -1.237  10.620  18.212  0.00  0.00    +0.000 C 
ATOM     27  N   UNL     1      -2.255  10.618  17.469  0.00  0.00    +0.000 NA
ENDBRANCH   3  26
TORSDOF 5
ENDMDL
MODEL 5
REMARK VINA RESULT:      -6.3      4.010      5.220
REMARK  Name = 
REMARK  6 active torsions:
REMARK  status: ('A' for Active; 'I' for Inactive)
REMARK    1  A    between atoms: C_1  and  O_2
REMARK    2  A    between atoms: O_2  and  C_3
REMARK    3  A    between atoms: C_6  and  N_7
REMARK    4  A    between atoms: C_8  and  N_9
REMARK    5  A    between atoms: C_10  and  C_11
REMARK    6  A    between atoms: C_16  and  N_17
REMARK                            x       y       z     vdW  Elec       q    Type
REMARK                         _______ _______ _______ _____ _____    ______ ____
ROOT
ATOM      1  N   UNL     1      -3.013  12.327  20.073  0.00  0.00    +0.000 N 
ATOM      2  C   UNL     1      -1.792  12.869  20.442  0.00  0.00    +0.000 A 
ATOM      3  C   UNL     1      -1.644  12.737  21.763  0.00  0.00    +0.000 A 
ATOM      4  C   UNL     1      -2.356  13.648  22.558  0.00  0.00    +0.000 A 
ATOM      5  C   UNL     1      -1.668  14.374  23.540  0.00  0.00    +0.000 A 
ATOM      6  C   UNL     1      -2.386  15.283  24.246  0.00  0.00    +0.000 A 
ATOM      7  C   UNL     1      -3.753  15.419  23.955  0.00  0.00    +0.000 A 
ATOM      8  C   UNL     1      -4.437  14.612  22.955  0.00  0.00    +0.000 A 
ATOM      9  C   UNL     1      -3.706  13.701  22.200  0.00  0.00    +0.000 A 
ATOM     10  C   UNL     1      -4.126  12.716  20.967  0.00  0.00    +0.000 A 
ATOM     11  O   UNL     1      -5.286  12.337  20.864  0.00  0.00    +0.000 OA
ENDROOT
BRANCH   1  15
ATOM     12  C   UNL     1      -2.696  10.233  16.272  0.00  0.00    +0.000 A 
ATOM     13  C   UNL     1      -3.806  11.039  16.567  0.00  0.00    +0.000 A 
ATOM     14  C   UNL     1      -3.972  11.685  17.825  0.00  0.00    +0.000 A 
ATOM     15  C   UNL     1      -3.009  11.579  18.813  0.00  0.00    +0.000 A 
ATOM     16  C   UNL     1      -1.913  10.713  18.500  0.00  0.00    +0.000 A 
ATOM     17  C   UNL     1      -1.757  10.045  17.266  0.00  0.00    +0.000 A 
BRANCH  12  19
ATOM     18  C   UNL     1      -3.674  10.080  14.080  0.00  0.00    +0.000 C 
ATOM     19  O   UNL     1      -2.668   9.691  15.017  0.00  0.00    +0.000 OA
ENDBRANCH  12  19
ENDBRANCH   1  15
BRANCH   2  20
ATOM     20  N   UNL     1      -1.543  14.088  19.784  0.00  0.00    +0.000 N 
ATOM     21  H   UNL     1      -2.381  14.358  19.263  0.00  0.00    +0.000 HD
ATOM     22  H   UNL     1      -1.345  14.845  20.440  0.00  0.00    +0.000 HD
ENDBRANCH   2  20
BRANCH   7  23
ATOM     23  N   UNL     1      -4.459  16.483  24.688  0.00  0.00    +0.000 N 
ATOM     24  O   UNL     1      -3.771  17.300  25.354  0.00  0.00    +0.000 OA
ATOM     25  O   UNL     1      -5.689  16.530  24.581  0.00  0.00    +0.000 OA
ENDBRANCH   7  23
BRANCH   3  26
ATOM     26  C   UNL     1      -0.963  11.578  22.473  0.00  0.00    +0.000 C 
ATOM     27  N   UNL     1      -0.398  10.617  23.061  0.00  0.00    +0.000 NA
ENDBRANCH   3  26
TORSDOF 5
ENDMDL
MODEL 6
REMARK VINA RESULT:      -6.3      1.785      7.608
REMARK  Name = 
REMARK  6 active torsions:
REMARK  status: ('A' for Active; 'I' for Inactive)
REMARK    1  A    between atoms: C_1  and  O_2
REMARK    2  A    between atoms: O_2  and  C_3
REMARK    3  A    between atoms: C_6  and  N_7
REMARK    4  A    between atoms: C_8  and  N_9
REMARK    5  A    between atoms: C_10  and  C_11
REMARK    6  A    between atoms: C_16  and  N_17
REMARK                            x       y       z     vdW  Elec       q    Type
REMARK                         _______ _______ _______ _____ _____    ______ ____
ROOT
ATOM      1  N   UNL     1      -0.448  10.806  20.816  0.00  0.00    +0.000 N 
ATOM      2  C   UNL     1       0.157  11.251  19.651  0.00  0.00    +0.000 A 
ATOM      3  C   UNL     1       0.029  10.310  18.712  0.00  0.00    +0.000 A 
ATOM      4  C   UNL     1       0.898   9.213  18.814  0.00  0.00    +0.000 A 
ATOM      5  C   UNL     1       1.657   8.842  17.696  0.00  0.00    +0.000 A 
ATOM      6  C   UNL     1       2.524   7.812  17.858  0.00  0.00    +0.000 A 
ATOM      7  C   UNL     1       2.588   7.190  19.116  0.00  0.00    +0.000 A 
ATOM      8  C   UNL     1       1.748   7.581  20.239  0.00  0.00    +0.000 A 
ATOM      9  C   UNL     1       0.881   8.658  20.097  0.00  0.00    +0.000 A 
ATOM     10  C   UNL     1      -0.121   9.402  21.151  0.00  0.00    +0.000 A 
ATOM     11  O   UNL     1      -0.561   8.779  22.108  0.00  0.00    +0.000 OA
ENDROOT
BRANCH   1  15
ATOM     12  C   UNL     1      -2.551  14.053  22.805  0.00  0.00    +0.000 A 
ATOM     13  C   UNL     1      -1.655  13.231  23.505  0.00  0.00    +0.000 A 
ATOM     14  C   UNL     1      -1.000  12.121  22.901  0.00  0.00    +0.000 A 
ATOM     15  C   UNL     1      -1.190  11.824  21.563  0.00  0.00    +0.000 A 
ATOM     16  C   UNL     1      -2.145  12.650  20.889  0.00  0.00    +0.000 A 
ATOM     17  C   UNL     1      -2.821  13.735  21.490  0.00  0.00    +0.000 A 
BRANCH  12  19
ATOM     18  C   UNL     1      -3.034  15.046  24.942  0.00  0.00    +0.000 C 
ATOM     19  O   UNL     1      -3.090  15.090  23.515  0.00  0.00    +0.000 OA
ENDBRANCH  12  19
ENDBRANCH   1  15
BRANCH   2  20
ATOM     20  N   UNL     1       1.391  11.878  19.912  0.00  0.00    +0.000 N 
ATOM     21  H   UNL     1       1.373  12.819  19.510  0.00  0.00    +0.000 HD
ATOM     22  H   UNL     1       1.563  11.986  20.912  0.00  0.00    +0.000 HD
ENDBRANCH   2  20
BRANCH   7  23
ATOM     23  N   UNL     1       3.610   6.141  19.257  0.00  0.00    +0.000 N 
ATOM     24  O   UNL     1       4.588   6.156  18.466  0.00  0.00    +0.000 OA
ATOM     25  O   UNL     1       3.462   5.319  20.168  0.00  0.00    +0.000 OA
ENDBRANCH   7  23
BRANCH   3  26
ATOM     26  C   UNL     1      -1.094  10.215  17.692  0.00  0.00    +0.000 C 
ATOM     27  N   UNL     1      -2.025  10.137  16.846  0.00  0.00    +0.000 NA
ENDBRANCH   3  26
TORSDOF 5
ENDMDL
MODEL 7
REMARK VINA RESULT:      -6.2      1.796      7.604
REMARK  Name = 
REMARK  6 active torsions:
REMARK  status: ('A' for Active; 'I' for Inactive)
REMARK    1  A    between atoms: C_1  and  O_2
REMARK    2  A    between atoms: O_2  and  C_3
REMARK    3  A    between atoms: C_6  and  N_7
REMARK    4  A    between atoms: C_8  and  N_9
REMARK    5  A    between atoms: C_10  and  C_11
REMARK    6  A    between atoms: C_16  and  N_17
REMARK                            x       y       z     vdW  Elec       q    Type
REMARK                         _______ _______ _______ _____ _____    ______ ____
ROOT
ATOM      1  N   UNL     1      -0.336  11.088  21.183  0.00  0.00    +0.000 N 
ATOM      2  C   UNL     1       0.227  11.560  20.008  0.00  0.00    +0.000 A 
ATOM      3  C   UNL     1      -0.004  10.675  19.035  0.00  0.00    +0.000 A 
ATOM      4  C   UNL     1       0.809   9.531  19.034  0.00  0.00    +0.000 A 
ATOM      5  C   UNL     1       1.484   9.178  17.857  0.00  0.00    +0.000 A 
ATOM      6  C   UNL     1       2.301   8.097  17.920  0.00  0.00    +0.000 A 
ATOM      7  C   UNL     1       2.400   7.411  19.142  0.00  0.00    +0.000 A 
ATOM      8  C   UNL     1       1.647   7.788  20.329  0.00  0.00    +0.000 A 
ATOM      9  C   UNL     1       0.832   8.914  20.288  0.00  0.00    +0.000 A 
ATOM     10  C   UNL     1      -0.068   9.654  21.432  0.00  0.00    +0.000 A 
ATOM     11  O   UNL     1      -0.488   9.008  22.383  0.00  0.00    +0.000 OA
ENDROOT
BRANCH   1  15
ATOM     12  C   UNL     1      -1.964  14.121  23.844  0.00  0.00    +0.000 A 
ATOM     13  C   UNL     1      -2.650  12.921  23.604  0.00  0.00    +0.000 A 
ATOM     14  C   UNL     1      -2.177  11.937  22.690  0.00  0.00    +0.000 A 
ATOM     15  C   UNL     1      -0.980  12.105  22.019  0.00  0.00    +0.000 A 
ATOM     16  C   UNL     1      -0.328  13.359  22.247  0.00  0.00    +0.000 A 
ATOM     17  C   UNL     1      -0.806  14.353  23.129  0.00  0.00    +0.000 A 
BRANCH  12  19
ATOM     18  C   UNL     1      -3.842  15.473  24.501  0.00  0.00    +0.000 C 
ATOM     19  O   UNL     1      -2.533  14.962  24.760  0.00  0.00    +0.000 OA
ENDBRANCH  12  19
ENDBRANCH   1  15
BRANCH   2  20
ATOM     20  N   UNL     1       1.505  12.109  20.226  0.00  0.00    +0.000 N 
ATOM     21  H   UNL     1       1.848  12.505  19.346  0.00  0.00    +0.000 HD
ATOM     22  H   UNL     1       1.485  12.870  20.905  0.00  0.00    +0.000 HD
ENDBRANCH   2  20
BRANCH   7  23
ATOM     23  N   UNL     1       3.371   6.304  19.175  0.00  0.00    +0.000 N 
ATOM     24  O   UNL     1       3.254   5.441  20.082  0.00  0.00    +0.000 OA
ATOM     25  O   UNL     1       4.229   6.273  18.287  0.00  0.00    +0.000 OA
ENDBRANCH   7  23
BRANCH   3  26
ATOM     26  C   UNL     1      -1.184  10.689  18.077  0.00  0.00    +0.000 C 
ATOM     27  N   UNL     1      -2.164  10.702  17.283  0.00  0.00    +0.000 NA
ENDBRANCH   3  26
TORSDOF 5
ENDMDL
MODEL 8
REMARK VINA RESULT:      -6.1      4.146     10.068
REMARK  Name = 
REMARK  6 active torsions:
REMARK  status: ('A' for Active; 'I' for Inactive)
REMARK    1  A    between atoms: C_1  and  O_2
REMARK    2  A    between atoms: O_2  and  C_3
REMARK    3  A    between atoms: C_6  and  N_7
REMARK    4  A    between atoms: C_8  and  N_9
REMARK    5  A    between atoms: C_10  and  C_11
REMARK    6  A    between atoms: C_16  and  N_17
REMARK                            x       y       z     vdW  Elec       q    Type
REMARK                         _______ _______ _______ _____ _____    ______ ____
ROOT
ATOM      1  N   UNL     1       3.111   6.513  18.384  0.00  0.00    +0.000 N 
ATOM      2  C   UNL     1       2.714   5.200  18.185  0.00  0.00    +0.000 A 
ATOM      3  C   UNL     1       3.795   4.417  18.205  0.00  0.00    +0.000 A 
ATOM      4  C   UNL     1       4.581   4.418  17.043  0.00  0.00    +0.000 A 
ATOM      5  C   UNL     1       4.910   3.194  16.444  0.00  0.00    +0.000 A 
ATOM      6  C   UNL     1       5.623   3.247  15.292  0.00  0.00    +0.000 A 
ATOM      7  C   UNL     1       5.990   4.509  14.796  0.00  0.00    +0.000 A 
ATOM      8  C   UNL     1       5.664   5.755  15.475  0.00  0.00    +0.000 A 
ATOM      9  C   UNL     1       4.902   5.716  16.638  0.00  0.00    +0.000 A 
ATOM     10  C   UNL     1       4.298   6.899  17.589  0.00  0.00    +0.000 A 
ATOM     11  O   UNL     1       4.851   7.990  17.622  0.00  0.00    +0.000 OA
ENDROOT
BRANCH   1  15
ATOM     12  C   UNL     1       0.692   9.137  20.873  0.00  0.00    +0.000 A 
ATOM     13  C   UNL     1       1.114   7.882  21.336  0.00  0.00    +0.000 A 
ATOM     14  C   UNL     1       1.851   6.973  20.525  0.00  0.00    +0.000 A 
ATOM     15  C   UNL     1       2.225   7.310  19.237  0.00  0.00    +0.000 A 
ATOM     16  C   UNL     1       1.740   8.575  18.777  0.00  0.00    +0.000 A 
ATOM     17  C   UNL     1       0.983   9.470  19.566  0.00  0.00    +0.000 A 
BRANCH  12  19
ATOM     18  C   UNL     1      -0.024   9.498  23.141  0.00  0.00    +0.000 C 
ATOM     19  O   UNL     1       0.006   9.906  21.772  0.00  0.00    +0.000 OA
ENDBRANCH  12  19
ENDBRANCH   1  15
BRANCH   2  20
ATOM     20  N   UNL     1       1.741   5.098  17.173  0.00  0.00    +0.000 N 
ATOM     21  H   UNL     1       1.316   6.018  17.031  0.00  0.00    +0.000 HD
ATOM     22  H   UNL     1       2.144   4.817  16.279  0.00  0.00    +0.000 HD
ENDBRANCH   2  20
BRANCH   7  23
ATOM     23  N   UNL     1       6.682   4.508  13.497  0.00  0.00    +0.000 N 
ATOM     24  O   UNL     1       7.593   5.356  13.310  0.00  0.00    +0.000 OA
ATOM     25  O   UNL     1       6.347   3.651  12.673  0.00  0.00    +0.000 OA
ENDBRANCH   7  23
BRANCH   3  26
ATOM     26  C   UNL     1       4.359   3.705  19.425  0.00  0.00    +0.000 C 
ATOM     27  N   UNL     1       4.826   3.115  20.436  0.00  0.00    +0.000 NA
ENDBRANCH   3  26
TORSDOF 5
ENDMDL
MODEL 9
REMARK VINA RESULT:      -6.1      1.064      1.183
REMARK  Name = 
REMARK  6 active torsions:
REMARK  status: ('A' for Active; 'I' for Inactive)
REMARK    1  A    between atoms: C_1  and  O_2
REMARK    2  A    between atoms: O_2  and  C_3
REMARK    3  A    between atoms: C_6  and  N_7
REMARK    4  A    between atoms: C_8  and  N_9
REMARK    5  A    between atoms: C_10  and  C_11
REMARK    6  A    between atoms: C_16  and  N_17
REMARK                            x       y       z     vdW  Elec       q    Type
REMARK                         _______ _______ _______ _____ _____    ______ ____
ROOT
ATOM      1  N   UNL     1       1.043   9.607  19.724  0.00  0.00    +0.000 N 
ATOM      2  C   UNL     1       0.520  10.379  18.699  0.00  0.00    +0.000 A 
ATOM      3  C   UNL     1       0.586  11.666  19.053  0.00  0.00    +0.000 A 
ATOM      4  C   UNL     1      -0.387  12.107  19.962  0.00  0.00    +0.000 A 
ATOM      5  C   UNL     1      -1.143  13.245  19.648  0.00  0.00    +0.000 A 
ATOM      6  C   UNL     1      -2.109  13.602  20.531  0.00  0.00    +0.000 A 
ATOM      7  C   UNL     1      -2.271  12.822  21.688  0.00  0.00    +0.000 A 
ATOM      8  C   UNL     1      -1.433  11.672  21.995  0.00  0.00    +0.000 A 
ATOM      9  C   UNL     1      -0.462  11.275  21.082  0.00  0.00    +0.000 A 
ATOM     10  C   UNL     1       0.574  10.012  21.067  0.00  0.00    +0.000 A 
ATOM     11  O   UNL     1       0.922   9.504  22.125  0.00  0.00    +0.000 OA
ENDROOT
BRANCH   1  15
ATOM     12  C   UNL     1       3.287   6.224  18.157  0.00  0.00    +0.000 A 
ATOM     13  C   UNL     1       2.658   6.162  19.409  0.00  0.00    +0.000 A 
ATOM     14  C   UNL     1       1.971   7.271  19.979  0.00  0.00    +0.000 A 
ATOM     15  C   UNL     1       1.856   8.467  19.293  0.00  0.00    +0.000 A 
ATOM     16  C   UNL     1       2.549   8.516  18.042  0.00  0.00    +0.000 A 
ATOM     17  C   UNL     1       3.257   7.429  17.484  0.00  0.00    +0.000 A 
BRANCH  12  19
ATOM     18  C   UNL     1       4.206   4.069  18.701  0.00  0.00    +0.000 C 
ATOM     19  O   UNL     1       3.893   5.074  17.734  0.00  0.00    +0.000 OA
ENDBRANCH  12  19
ENDBRANCH   1  15
BRANCH   2  20
ATOM     20  N   UNL     1      -0.655   9.814  18.168  0.00  0.00    +0.000 N 
ATOM     21  H   UNL     1      -1.120   9.273  18.901  0.00  0.00    +0.000 HD
ATOM     22  H   UNL     1      -1.319  10.526  17.860  0.00  0.00    +0.000 HD
ENDBRANCH   2  20
BRANCH   7  23
ATOM     23  N   UNL     1      -3.393  13.202  22.562  0.00  0.00    +0.000 N 
ATOM     24  O   UNL     1      -4.237  12.318  22.860  0.00  0.00    +0.000 OA
ATOM     25  O   UNL     1      -3.424  14.366  22.976  0.00  0.00    +0.000 OA
ENDBRANCH   7  23
BRANCH   3  26
ATOM     26  C   UNL     1       1.725  12.620  18.735  0.00  0.00    +0.000 C 
ATOM     27  N   UNL     1       2.670  13.413  18.471  0.00  0.00    +0.000 NA
ENDBRANCH   3  26
TORSDOF 5
ENDMDL
