MODEL 1
REMARK VINA RESULT:      -3.9      0.000      0.000
REMARK  Name = 
REMARK  5 active torsions:
REMARK  status: ('A' for Active; 'I' for Inactive)
REMARK    1  A    between atoms: C_1  and  C_2
REMARK    2  A    between atoms: C_2  and  C_3
REMARK    3  A    between atoms: C_2  and  C_4
REMARK    4  A    between atoms: C_2  and  O_5
REMARK    5  A    between atoms: O_5  and  N_6
REMARK                            x       y       z     vdW  Elec       q    Type
REMARK                         _______ _______ _______ _____ _____    ______ ____
ROOT
ATOM      1  C   UNL     1       7.904   6.990  18.322  0.00  0.00    +0.000 C 
ATOM      2  C   UNL     1       6.984   5.769  18.440  0.00  0.00    +0.000 C 
ATOM      3  C   UNL     1       5.592   6.056  17.864  0.00  0.00    +0.000 C 
ATOM      4  C   UNL     1       7.614   4.602  17.661  0.00  0.00    +0.000 C 
ENDROOT
BRANCH   2   5
ATOM      5  O   UNL     1       6.878   5.305  19.803  0.00  0.00    +0.000 OA
BRANCH   5   6
ATOM      6  N   UNL     1       8.152   5.425  20.502  0.00  0.00    +0.000 NA
ATOM      7  H   UNL     1       8.721   4.753  19.985  0.00  0.00    +0.000 HD
ATOM      8  H   UNL     1       7.934   4.972  21.390  0.00  0.00    +0.000 HD
ENDBRANCH   5   6
ENDBRANCH   2   5
TORSDOF 2
ENDMDL
MODEL 2
REMARK VINA RESULT:      -3.8      0.083      1.784
REMARK  Name = 
REMARK  5 active torsions:
REMARK  status: ('A' for Active; 'I' for Inactive)
REMARK    1  A    between atoms: C_1  and  C_2
REMARK    2  A    between atoms: C_2  and  C_3
REMARK    3  A    between atoms: C_2  and  C_4
REMARK    4  A    between atoms: C_2  and  O_5
REMARK    5  A    between atoms: O_5  and  N_6
REMARK                            x       y       z     vdW  Elec       q    Type
REMARK                         _______ _______ _______ _____ _____    ______ ____
ROOT
ATOM      1  C   UNL     1       5.577   6.017  17.815  0.00  0.00    +0.000 C 
ATOM      2  C   UNL     1       6.954   5.699  18.412  0.00  0.00    +0.000 C 
ATOM      3  C   UNL     1       7.632   4.537  17.676  0.00  0.00    +0.000 C 
ATOM      4  C   UNL     1       7.842   6.949  18.293  0.00  0.00    +0.000 C 
ENDROOT
BRANCH   2   5
ATOM      5  O   UNL     1       6.875   5.421  19.826  0.00  0.00    +0.000 OA
BRANCH   5   6
ATOM      6  N   UNL     1       8.197   5.433  20.441  0.00  0.00    +0.000 NA
ATOM      7  H   UNL     1       8.624   4.617  20.000  0.00  0.00    +0.000 HD
ATOM      8  H   UNL     1       7.976   5.143  21.394  0.00  0.00    +0.000 HD
ENDBRANCH   5   6
ENDBRANCH   2   5
TORSDOF 2
ENDMDL
MODEL 3
REMARK VINA RESULT:      -3.7      0.974      1.852
REMARK  Name = 
REMARK  5 active torsions:
REMARK  status: ('A' for Active; 'I' for Inactive)
REMARK    1  A    between atoms: C_1  and  C_2
REMARK    2  A    between atoms: C_2  and  C_3
REMARK    3  A    between atoms: C_2  and  C_4
REMARK    4  A    between atoms: C_2  and  O_5
REMARK    5  A    between atoms: O_5  and  N_6
REMARK                            x       y       z     vdW  Elec       q    Type
REMARK                         _______ _______ _______ _____ _____    ______ ____
ROOT
ATOM      1  C   UNL     1       7.323   4.651  17.024  0.00  0.00    +0.000 C 
ATOM      2  C   UNL     1       7.393   5.461  18.325  0.00  0.00    +0.000 C 
ATOM      3  C   UNL     1       7.681   6.942  18.051  0.00  0.00    +0.000 C 
ATOM      4  C   UNL     1       6.041   5.344  19.050  0.00  0.00    +0.000 C 
ENDROOT
BRANCH   2   5
ATOM      5  O   UNL     1       8.366   4.921  19.244  0.00  0.00    +0.000 OA
BRANCH   5   6
ATOM      6  N   UNL     1       8.148   5.419  20.597  0.00  0.00    +0.000 NA
ATOM      7  H   UNL     1       7.768   4.587  21.051  0.00  0.00    +0.000 HD
ATOM      8  H   UNL     1       7.351   6.040  20.454  0.00  0.00    +0.000 HD
ENDBRANCH   5   6
ENDBRANCH   2   5
TORSDOF 2
ENDMDL
MODEL 4
REMARK VINA RESULT:      -3.6      2.616      2.986
REMARK  Name = 
REMARK  5 active torsions:
REMARK  status: ('A' for Active; 'I' for Inactive)
REMARK    1  A    between atoms: C_1  and  C_2
REMARK    2  A    between atoms: C_2  and  C_3
REMARK    3  A    between atoms: C_2  and  C_4
REMARK    4  A    between atoms: C_2  and  O_5
REMARK    5  A    between atoms: O_5  and  N_6
REMARK                            x       y       z     vdW  Elec       q    Type
REMARK                         _______ _______ _______ _____ _____    ______ ____
ROOT
ATOM      1  C   UNL     1       7.773   8.143  17.658  0.00  0.00    +0.000 C 
ATOM      2  C   UNL     1       7.222   6.740  17.379  0.00  0.00    +0.000 C 
ATOM      3  C   UNL     1       7.596   5.756  18.494  0.00  0.00    +0.000 C 
ATOM      4  C   UNL     1       5.689   6.824  17.284  0.00  0.00    +0.000 C 
ENDROOT
BRANCH   2   5
ATOM      5  O   UNL     1       7.656   6.236  16.098  0.00  0.00    +0.000 OA
BRANCH   5   6
ATOM      6  N   UNL     1       7.465   4.793  16.005  0.00  0.00    +0.000 NA
ATOM      7  H   UNL     1       8.379   4.457  16.308  0.00  0.00    +0.000 HD
ATOM      8  H   UNL     1       7.447   4.660  14.993  0.00  0.00    +0.000 HD
ENDBRANCH   5   6
ENDBRANCH   2   5
TORSDOF 2
ENDMDL
MODEL 5
REMARK VINA RESULT:      -3.6      2.609      2.960
REMARK  Name = 
REMARK  5 active torsions:
REMARK  status: ('A' for Active; 'I' for Inactive)
REMARK    1  A    between atoms: C_1  and  C_2
REMARK    2  A    between atoms: C_2  and  C_3
REMARK    3  A    between atoms: C_2  and  C_4
REMARK    4  A    between atoms: C_2  and  O_5
REMARK    5  A    between atoms: O_5  and  N_6
REMARK                            x       y       z     vdW  Elec       q    Type
REMARK                         _______ _______ _______ _____ _____    ______ ____
ROOT
ATOM      1  C   UNL     1       7.593   5.863  18.579  0.00  0.00    +0.000 C 
ATOM      2  C   UNL     1       7.127   6.725  17.399  0.00  0.00    +0.000 C 
ATOM      3  C   UNL     1       5.598   6.822  17.342  0.00  0.00    +0.000 C 
ATOM      4  C   UNL     1       7.709   8.139  17.565  0.00  0.00    +0.000 C 
ENDROOT
BRANCH   2   5
ATOM      5  O   UNL     1       7.648   6.244  16.142  0.00  0.00    +0.000 OA
BRANCH   5   6
ATOM      6  N   UNL     1       7.496   4.798  16.026  0.00  0.00    +0.000 NA
ATOM      7  H   UNL     1       6.778   4.736  15.303  0.00  0.00    +0.000 HD
ATOM      8  H   UNL     1       7.021   4.577  16.902  0.00  0.00    +0.000 HD
ENDBRANCH   5   6
ENDBRANCH   2   5
TORSDOF 2
ENDMDL
MODEL 6
REMARK VINA RESULT:      -3.5      2.084      2.487
REMARK  Name = 
REMARK  5 active torsions:
REMARK  status: ('A' for Active; 'I' for Inactive)
REMARK    1  A    between atoms: C_1  and  C_2
REMARK    2  A    between atoms: C_2  and  C_3
REMARK    3  A    between atoms: C_2  and  C_4
REMARK    4  A    between atoms: C_2  and  O_5
REMARK    5  A    between atoms: O_5  and  N_6
REMARK                            x       y       z     vdW  Elec       q    Type
REMARK                         _______ _______ _______ _____ _____    ______ ____
ROOT
ATOM      1  C   UNL     1       6.069   5.403  18.579  0.00  0.00    +0.000 C 
ATOM      2  C   UNL     1       6.643   5.946  17.265  0.00  0.00    +0.000 C 
ATOM      3  C   UNL     1       5.533   6.301  16.269  0.00  0.00    +0.000 C 
ATOM      4  C   UNL     1       7.458   7.214  17.573  0.00  0.00    +0.000 C 
ENDROOT
BRANCH   2   5
ATOM      5  O   UNL     1       7.581   5.027  16.667  0.00  0.00    +0.000 OA
BRANCH   5   6
ATOM      6  N   UNL     1       8.140   4.120  17.662  0.00  0.00    +0.000 NA
ATOM      7  H   UNL     1       8.205   4.737  18.473  0.00  0.00    +0.000 HD
ATOM      8  H   UNL     1       9.096   4.015  17.322  0.00  0.00    +0.000 HD
ENDBRANCH   5   6
ENDBRANCH   2   5
TORSDOF 2
ENDMDL
MODEL 7
REMARK VINA RESULT:      -3.5      3.457      3.808
REMARK  Name = 
REMARK  5 active torsions:
REMARK  status: ('A' for Active; 'I' for Inactive)
REMARK    1  A    between atoms: C_1  and  C_2
REMARK    2  A    between atoms: C_2  and  C_3
REMARK    3  A    between atoms: C_2  and  C_4
REMARK    4  A    between atoms: C_2  and  O_5
REMARK    5  A    between atoms: O_5  and  N_6
REMARK                            x       y       z     vdW  Elec       q    Type
REMARK                         _______ _______ _______ _____ _____    ______ ____
ROOT
ATOM      1  C   UNL     1       5.479   6.046  16.725  0.00  0.00    +0.000 C 
ATOM      2  C   UNL     1       6.693   5.198  16.325  0.00  0.00    +0.000 C 
ATOM      3  C   UNL     1       7.412   4.629  17.554  0.00  0.00    +0.000 C 
ATOM      4  C   UNL     1       6.209   4.031  15.447  0.00  0.00    +0.000 C 
ENDROOT
BRANCH   2   5
ATOM      5  O   UNL     1       7.617   5.938  15.499  0.00  0.00    +0.000 OA
BRANCH   5   6
ATOM      6  N   UNL     1       7.657   5.405  14.142  0.00  0.00    +0.000 NA
ATOM      7  H   UNL     1       6.793   5.788  13.758  0.00  0.00    +0.000 HD
ATOM      8  H   UNL     1       7.466   4.417  14.311  0.00  0.00    +0.000 HD
ENDBRANCH   5   6
ENDBRANCH   2   5
TORSDOF 2
ENDMDL
MODEL 8
REMARK VINA RESULT:      -3.5      3.281      3.591
REMARK  Name = 
REMARK  5 active torsions:
REMARK  status: ('A' for Active; 'I' for Inactive)
REMARK    1  A    between atoms: C_1  and  C_2
REMARK    2  A    between atoms: C_2  and  C_3
REMARK    3  A    between atoms: C_2  and  C_4
REMARK    4  A    between atoms: C_2  and  O_5
REMARK    5  A    between atoms: O_5  and  N_6
REMARK                            x       y       z     vdW  Elec       q    Type
REMARK                         _______ _______ _______ _____ _____    ______ ____
ROOT
ATOM      1  C   UNL     1       5.867   4.180  15.874  0.00  0.00    +0.000 C 
ATOM      2  C   UNL     1       6.636   5.292  16.598  0.00  0.00    +0.000 C 
ATOM      3  C   UNL     1       5.685   6.276  17.288  0.00  0.00    +0.000 C 
ATOM      4  C   UNL     1       7.543   4.649  17.661  0.00  0.00    +0.000 C 
ENDROOT
BRANCH   2   5
ATOM      5  O   UNL     1       7.530   5.995  15.709  0.00  0.00    +0.000 OA
BRANCH   5   6
ATOM      6  N   UNL     1       7.588   5.353  14.401  0.00  0.00    +0.000 NA
ATOM      7  H   UNL     1       8.533   5.600  14.106  0.00  0.00    +0.000 HD
ATOM      8  H   UNL     1       6.967   5.952  13.858  0.00  0.00    +0.000 HD
ENDBRANCH   5   6
ENDBRANCH   2   5
TORSDOF 2
ENDMDL
MODEL 9
REMARK VINA RESULT:      -3.4      3.793      4.122
REMARK  Name = 
REMARK  5 active torsions:
REMARK  status: ('A' for Active; 'I' for Inactive)
REMARK    1  A    between atoms: C_1  and  C_2
REMARK    2  A    between atoms: C_2  and  C_3
REMARK    3  A    between atoms: C_2  and  C_4
REMARK    4  A    between atoms: C_2  and  O_5
REMARK    5  A    between atoms: O_5  and  N_6
REMARK                            x       y       z     vdW  Elec       q    Type
REMARK                         _______ _______ _______ _____ _____    ______ ____
ROOT
ATOM      1  C   UNL     1       5.728   4.212  14.720  0.00  0.00    +0.000 C 
ATOM      2  C   UNL     1       6.235   5.229  15.750  0.00  0.00    +0.000 C 
ATOM      3  C   UNL     1       5.207   6.340  15.997  0.00  0.00    +0.000 C 
ATOM      4  C   UNL     1       6.501   4.494  17.075  0.00  0.00    +0.000 C 
ENDROOT
BRANCH   2   5
ATOM      5  O   UNL     1       7.506   5.795  15.367  0.00  0.00    +0.000 OA
BRANCH   5   6
ATOM      6  N   UNL     1       7.812   5.510  13.970  0.00  0.00    +0.000 NA
ATOM      7  H   UNL     1       8.798   5.255  14.036  0.00  0.00    +0.000 HD
ATOM      8  H   UNL     1       7.798   6.447  13.568  0.00  0.00    +0.000 HD
ENDBRANCH   5   6
ENDBRANCH   2   5
TORSDOF 2
ENDMDL
