MODEL 1
REMARK VINA RESULT:      -8.4      0.000      0.000
REMARK  Name = 
REMARK  6 active torsions:
REMARK  status: ('A' for Active; 'I' for Inactive)
REMARK    1  A    between atoms: C_2  and  C_4
REMARK    2  A    between atoms: C_4  and  N_5
REMARK    3  A    between atoms: C_7  and  C_8
REMARK    4  A    between atoms: N_14  and  C_15
REMARK    5  A    between atoms: C_15  and  C_16
REMARK    6  A    between atoms: C_16  and  C_17
REMARK                            x       y       z     vdW  Elec       q    Type
REMARK                         _______ _______ _______ _____ _____    ______ ____
ROOT
ATOM      1  N   UNL     1       4.888   4.850  15.970  0.00  0.00    +0.000 N 
ATOM      2  N   UNL     1       4.086   4.021  16.726  0.00  0.00    +0.000 NA
ATOM      3  C   UNL     1       3.604   4.807  17.653  0.00  0.00    +0.000 A 
ATOM      4  N   UNL     1       3.994   6.116  17.528  0.00  0.00    +0.000 N 
ATOM      5  C   UNL     1       4.925   6.124  16.519  0.00  0.00    +0.000 A 
ATOM      6  O   UNL     1       5.652   7.037  16.173  0.00  0.00    +0.000 OA
ENDROOT
BRANCH   3   7
ATOM      7  C   UNL     1       2.722   4.330  18.747  0.00  0.00    +0.000 A 
ATOM      8  C   UNL     1       1.517   3.667  18.480  0.00  0.00    +0.000 A 
ATOM      9  C   UNL     1       0.734   3.161  19.520  0.00  0.00    +0.000 A 
ATOM     10  C   UNL     1       1.119   3.367  20.840  0.00  0.00    +0.000 A 
ATOM     11  C   UNL     1       2.276   4.094  21.122  0.00  0.00    +0.000 A 
ATOM     12  C   UNL     1       3.077   4.575  20.076  0.00  0.00    +0.000 A 
ENDBRANCH   3   7
BRANCH   1  13
ATOM     13  C   UNL     1       5.686   4.434  14.837  0.00  0.00    +0.000 C 
BRANCH  13  15
ATOM     14  N   UNL     1       7.771   4.519  16.132  0.00  0.00    +0.000 N 
ATOM     15  C   UNL     1       7.154   4.822  14.953  0.00  0.00    +0.000 C 
ATOM     16  O   UNL     1       7.785   5.336  14.032  0.00  0.00    +0.000 OA
ATOM     17  H   UNL     1       8.769   4.644  16.187  0.00  0.00    +0.000 HD
ATOM     18  H   UNL     1       7.316   3.847  16.746  0.00  0.00    +0.000 HD
ENDBRANCH  13  15
ENDBRANCH   1  13
BRANCH   4  19
ATOM     19  C   UNL     1       3.597   7.296  18.284  0.00  0.00    +0.000 C 
BRANCH  19  20
ATOM     20  C   UNL     1       2.228   7.869  17.909  0.00  0.00    +0.000 C 
BRANCH  20  21
ATOM     21  C   UNL     1       1.572   8.512  19.103  0.00  0.00    +0.000 A 
ATOM     22  C   UNL     1       0.874   9.717  18.943  0.00  0.00    +0.000 A 
ATOM     23  C   UNL     1       0.279  10.335  20.040  0.00  0.00    +0.000 A 
ATOM     24  C   UNL     1       0.382   9.755  21.303  0.00  0.00    +0.000 A 
ATOM     25  C   UNL     1       1.083   8.561  21.472  0.00  0.00    +0.000 A 
ATOM     26  C   UNL     1       1.680   7.941  20.375  0.00  0.00    +0.000 A 
ENDBRANCH  20  21
ENDBRANCH  19  20
ENDBRANCH   4  19
TORSDOF 6
ENDMDL
MODEL 2
REMARK VINA RESULT:      -8.4      0.766      1.526
REMARK  Name = 
REMARK  6 active torsions:
REMARK  status: ('A' for Active; 'I' for Inactive)
REMARK    1  A    between atoms: C_2  and  C_4
REMARK    2  A    between atoms: C_4  and  N_5
REMARK    3  A    between atoms: C_7  and  C_8
REMARK    4  A    between atoms: N_14  and  C_15
REMARK    5  A    between atoms: C_15  and  C_16
REMARK    6  A    between atoms: C_16  and  C_17
REMARK                            x       y       z     vdW  Elec       q    Type
REMARK                         _______ _______ _______ _____ _____    ______ ____
ROOT
ATOM      1  N   UNL     1       4.904   4.809  15.999  0.00  0.00    +0.000 N 
ATOM      2  N   UNL     1       4.182   3.892  16.735  0.00  0.00    +0.000 NA
ATOM      3  C   UNL     1       3.689   4.596  17.720  0.00  0.00    +0.000 A 
ATOM      4  N   UNL     1       3.996   5.930  17.656  0.00  0.00    +0.000 N 
ATOM      5  C   UNL     1       4.887   6.050  16.618  0.00  0.00    +0.000 A 
ATOM      6  O   UNL     1       5.545   7.024  16.300  0.00  0.00    +0.000 OA
ENDROOT
BRANCH   3   7
ATOM      7  C   UNL     1       2.879   4.006  18.815  0.00  0.00    +0.000 A 
ATOM      8  C   UNL     1       3.479   3.443  19.949  0.00  0.00    +0.000 A 
ATOM      9  C   UNL     1       2.701   2.957  21.002  0.00  0.00    +0.000 A 
ATOM     10  C   UNL     1       1.314   2.974  20.904  0.00  0.00    +0.000 A 
ATOM     11  C   UNL     1       0.705   3.459  19.747  0.00  0.00    +0.000 A 
ATOM     12  C   UNL     1       1.487   3.975  18.703  0.00  0.00    +0.000 A 
ENDBRANCH   3   7
BRANCH   1  13
ATOM     13  C   UNL     1       5.682   4.504  14.818  0.00  0.00    +0.000 C 
BRANCH  13  15
ATOM     14  N   UNL     1       7.773   5.481  13.979  0.00  0.00    +0.000 N 
ATOM     15  C   UNL     1       7.170   4.781  14.983  0.00  0.00    +0.000 C 
ATOM     16  O   UNL     1       7.806   4.445  15.980  0.00  0.00    +0.000 OA
ATOM     17  H   UNL     1       8.720   5.791  14.124  0.00  0.00    +0.000 HD
ATOM     18  H   UNL     1       7.175   5.986  13.330  0.00  0.00    +0.000 HD
ENDBRANCH  13  15
ENDBRANCH   1  13
BRANCH   4  19
ATOM     19  C   UNL     1       3.559   7.042  18.491  0.00  0.00    +0.000 C 
BRANCH  19  20
ATOM     20  C   UNL     1       2.312   7.772  17.988  0.00  0.00    +0.000 C 
BRANCH  20  21
ATOM     21  C   UNL     1       1.627   8.500  19.115  0.00  0.00    +0.000 A 
ATOM     22  C   UNL     1       1.635   7.945  20.402  0.00  0.00    +0.000 A 
ATOM     23  C   UNL     1       0.991   8.596  21.452  0.00  0.00    +0.000 A 
ATOM     24  C   UNL     1       0.330   9.801  21.219  0.00  0.00    +0.000 A 
ATOM     25  C   UNL     1       0.310  10.354  19.939  0.00  0.00    +0.000 A 
ATOM     26  C   UNL     1       0.954   9.704  18.887  0.00  0.00    +0.000 A 
ENDBRANCH  20  21
ENDBRANCH  19  20
ENDBRANCH   4  19
TORSDOF 6
ENDMDL
MODEL 3
REMARK VINA RESULT:      -8.4      0.389      1.059
REMARK  Name = 
REMARK  6 active torsions:
REMARK  status: ('A' for Active; 'I' for Inactive)
REMARK    1  A    between atoms: C_2  and  C_4
REMARK    2  A    between atoms: C_4  and  N_5
REMARK    3  A    between atoms: C_7  and  C_8
REMARK    4  A    between atoms: N_14  and  C_15
REMARK    5  A    between atoms: C_15  and  C_16
REMARK    6  A    between atoms: C_16  and  C_17
REMARK                            x       y       z     vdW  Elec       q    Type
REMARK                         _______ _______ _______ _____ _____    ______ ____
ROOT
ATOM      1  N   UNL     1       4.887   4.818  16.010  0.00  0.00    +0.000 N 
ATOM      2  N   UNL     1       4.101   3.959  16.749  0.00  0.00    +0.000 NA
ATOM      3  C   UNL     1       3.583   4.723  17.675  0.00  0.00    +0.000 A 
ATOM      4  N   UNL     1       3.936   6.043  17.565  0.00  0.00    +0.000 N 
ATOM      5  C   UNL     1       4.880   6.087  16.570  0.00  0.00    +0.000 A 
ATOM      6  O   UNL     1       5.584   7.025  16.241  0.00  0.00    +0.000 OA
ENDROOT
BRANCH   3   7
ATOM      7  C   UNL     1       2.701   4.211  18.753  0.00  0.00    +0.000 A 
ATOM      8  C   UNL     1       1.483   3.582  18.466  0.00  0.00    +0.000 A 
ATOM      9  C   UNL     1       0.698   3.042  19.488  0.00  0.00    +0.000 A 
ATOM     10  C   UNL     1       1.097   3.181  20.813  0.00  0.00    +0.000 A 
ATOM     11  C   UNL     1       2.268   3.874  21.118  0.00  0.00    +0.000 A 
ATOM     12  C   UNL     1       3.070   4.389  20.089  0.00  0.00    +0.000 A 
ENDBRANCH   3   7
BRANCH   1  13
ATOM     13  C   UNL     1       5.713   4.434  14.886  0.00  0.00    +0.000 C 
BRANCH  13  15
ATOM     14  N   UNL     1       7.773   4.502  16.221  0.00  0.00    +0.000 N 
ATOM     15  C   UNL     1       7.174   4.834  15.040  0.00  0.00    +0.000 C 
ATOM     16  O   UNL     1       7.816   5.381  14.146  0.00  0.00    +0.000 OA
ATOM     17  H   UNL     1       8.768   4.636  16.298  0.00  0.00    +0.000 HD
ATOM     18  H   UNL     1       7.314   3.808  16.806  0.00  0.00    +0.000 HD
ENDBRANCH  13  15
ENDBRANCH   1  13
BRANCH   4  19
ATOM     19  C   UNL     1       3.494   7.206  18.325  0.00  0.00    +0.000 C 
BRANCH  19  20
ATOM     20  C   UNL     1       2.442   8.069  17.625  0.00  0.00    +0.000 C 
BRANCH  20  21
ATOM     21  C   UNL     1       1.546   8.742  18.631  0.00  0.00    +0.000 A 
ATOM     22  C   UNL     1       1.577   8.327  19.970  0.00  0.00    +0.000 A 
ATOM     23  C   UNL     1       0.740   8.925  20.910  0.00  0.00    +0.000 A 
ATOM     24  C   UNL     1      -0.135   9.935  20.516  0.00  0.00    +0.000 A 
ATOM     25  C   UNL     1      -0.178  10.346  19.184  0.00  0.00    +0.000 A 
ATOM     26  C   UNL     1       0.658   9.749  18.241  0.00  0.00    +0.000 A 
ENDBRANCH  20  21
ENDBRANCH  19  20
ENDBRANCH   4  19
TORSDOF 6
ENDMDL
MODEL 4
REMARK VINA RESULT:      -8.3      3.629      7.370
REMARK  Name = 
REMARK  6 active torsions:
REMARK  status: ('A' for Active; 'I' for Inactive)
REMARK    1  A    between atoms: C_2  and  C_4
REMARK    2  A    between atoms: C_4  and  N_5
REMARK    3  A    between atoms: C_7  and  C_8
REMARK    4  A    between atoms: N_14  and  C_15
REMARK    5  A    between atoms: C_15  and  C_16
REMARK    6  A    between atoms: C_16  and  C_17
REMARK                            x       y       z     vdW  Elec       q    Type
REMARK                         _______ _______ _______ _____ _____    ______ ____
ROOT
ATOM      1  N   UNL     1       2.471   4.217  19.238  0.00  0.00    +0.000 N 
ATOM      2  N   UNL     1       3.513   5.067  19.545  0.00  0.00    +0.000 NA
ATOM      3  C   UNL     1       4.253   5.061  18.467  0.00  0.00    +0.000 A 
ATOM      4  N   UNL     1       3.740   4.302  17.447  0.00  0.00    +0.000 N 
ATOM      5  C   UNL     1       2.657   3.653  17.985  0.00  0.00    +0.000 A 
ATOM      6  O   UNL     1       1.994   2.758  17.491  0.00  0.00    +0.000 OA
ENDROOT
BRANCH   3   7
ATOM      7  C   UNL     1       5.536   5.799  18.357  0.00  0.00    +0.000 A 
ATOM      8  C   UNL     1       6.643   5.466  19.148  0.00  0.00    +0.000 A 
ATOM      9  C   UNL     1       7.864   6.124  18.982  0.00  0.00    +0.000 A 
ATOM     10  C   UNL     1       7.971   7.163  18.064  0.00  0.00    +0.000 A 
ATOM     11  C   UNL     1       6.855   7.557  17.326  0.00  0.00    +0.000 A 
ATOM     12  C   UNL     1       5.638   6.876  17.473  0.00  0.00    +0.000 A 
ENDBRANCH   3   7
BRANCH   1  13
ATOM     13  C   UNL     1       1.397   3.855  20.138  0.00  0.00    +0.000 C 
BRANCH  13  15
ATOM     14  N   UNL     1       3.139   2.526  21.248  0.00  0.00    +0.000 N 
ATOM     15  C   UNL     1       1.836   2.932  21.267  0.00  0.00    +0.000 C 
ATOM     16  O   UNL     1       1.090   2.595  22.184  0.00  0.00    +0.000 OA
ATOM     17  H   UNL     1       3.488   2.026  22.049  0.00  0.00    +0.000 HD
ATOM     18  H   UNL     1       3.787   3.044  20.660  0.00  0.00    +0.000 HD
ENDBRANCH  13  15
ENDBRANCH   1  13
BRANCH   4  19
ATOM     19  C   UNL     1       4.203   4.124  16.077  0.00  0.00    +0.000 C 
BRANCH  19  20
ATOM     20  C   UNL     1       5.636   3.604  15.945  0.00  0.00    +0.000 C 
BRANCH  20  21
ATOM     21  C   UNL     1       6.227   3.997  14.616  0.00  0.00    +0.000 A 
ATOM     22  C   UNL     1       5.779   3.367  13.447  0.00  0.00    +0.000 A 
ATOM     23  C   UNL     1       6.329   3.705  12.213  0.00  0.00    +0.000 A 
ATOM     24  C   UNL     1       7.333   4.669  12.141  0.00  0.00    +0.000 A 
ATOM     25  C   UNL     1       7.790   5.293  13.301  0.00  0.00    +0.000 A 
ATOM     26  C   UNL     1       7.241   4.956  14.538  0.00  0.00    +0.000 A 
ENDBRANCH  20  21
ENDBRANCH  19  20
ENDBRANCH   4  19
TORSDOF 6
ENDMDL
MODEL 5
REMARK VINA RESULT:      -8.3      1.069      1.142
REMARK  Name = 
REMARK  6 active torsions:
REMARK  status: ('A' for Active; 'I' for Inactive)
REMARK    1  A    between atoms: C_2  and  C_4
REMARK    2  A    between atoms: C_4  and  N_5
REMARK    3  A    between atoms: C_7  and  C_8
REMARK    4  A    between atoms: N_14  and  C_15
REMARK    5  A    between atoms: C_15  and  C_16
REMARK    6  A    between atoms: C_16  and  C_17
REMARK                            x       y       z     vdW  Elec       q    Type
REMARK                         _______ _______ _______ _____ _____    ______ ____
ROOT
ATOM      1  N   UNL     1       4.924   4.274  16.456  0.00  0.00    +0.000 N 
ATOM      2  N   UNL     1       4.325   3.420  17.358  0.00  0.00    +0.000 NA
ATOM      3  C   UNL     1       3.520   4.194  18.038  0.00  0.00    +0.000 A 
ATOM      4  N   UNL     1       3.509   5.495  17.609  0.00  0.00    +0.000 N 
ATOM      5  C   UNL     1       4.509   5.580  16.673  0.00  0.00    +0.000 A 
ATOM      6  O   UNL     1       4.963   6.578  16.144  0.00  0.00    +0.000 OA
ENDROOT
BRANCH   3   7
ATOM      7  C   UNL     1       2.697   3.712  19.176  0.00  0.00    +0.000 A 
ATOM      8  C   UNL     1       1.308   3.566  19.065  0.00  0.00    +0.000 A 
ATOM      9  C   UNL     1       0.558   3.045  20.122  0.00  0.00    +0.000 A 
ATOM     10  C   UNL     1       1.184   2.721  21.322  0.00  0.00    +0.000 A 
ATOM     11  C   UNL     1       2.554   2.936  21.472  0.00  0.00    +0.000 A 
ATOM     12  C   UNL     1       3.310   3.431  20.399  0.00  0.00    +0.000 A 
ENDBRANCH   3   7
BRANCH   1  13
ATOM     13  C   UNL     1       5.942   3.896  15.499  0.00  0.00    +0.000 C 
BRANCH  13  15
ATOM     14  N   UNL     1       7.681   5.476  14.784  0.00  0.00    +0.000 N 
ATOM     15  C   UNL     1       7.281   4.582  15.734  0.00  0.00    +0.000 C 
ATOM     16  O   UNL     1       7.961   4.395  16.741  0.00  0.00    +0.000 OA
ATOM     17  H   UNL     1       8.493   6.038  14.979  0.00  0.00    +0.000 HD
ATOM     18  H   UNL     1       6.979   5.819  14.132  0.00  0.00    +0.000 HD
ENDBRANCH  13  15
ENDBRANCH   1  13
BRANCH   4  19
ATOM     19  C   UNL     1       2.686   6.622  18.030  0.00  0.00    +0.000 C 
BRANCH  19  20
ATOM     20  C   UNL     1       2.786   6.971  19.517  0.00  0.00    +0.000 C 
BRANCH  20  21
ATOM     21  C   UNL     1       1.760   8.008  19.893  0.00  0.00    +0.000 A 
ATOM     22  C   UNL     1       1.440   9.025  18.983  0.00  0.00    +0.000 A 
ATOM     23  C   UNL     1       0.508  10.003  19.323  0.00  0.00    +0.000 A 
ATOM     24  C   UNL     1      -0.104   9.973  20.574  0.00  0.00    +0.000 A 
ATOM     25  C   UNL     1       0.217   8.969  21.489  0.00  0.00    +0.000 A 
ATOM     26  C   UNL     1       1.150   7.990  21.150  0.00  0.00    +0.000 A 
ENDBRANCH  20  21
ENDBRANCH  19  20
ENDBRANCH   4  19
TORSDOF 6
ENDMDL
MODEL 6
REMARK VINA RESULT:      -8.3      0.976      1.008
REMARK  Name = 
REMARK  6 active torsions:
REMARK  status: ('A' for Active; 'I' for Inactive)
REMARK    1  A    between atoms: C_2  and  C_4
REMARK    2  A    between atoms: C_4  and  N_5
REMARK    3  A    between atoms: C_7  and  C_8
REMARK    4  A    between atoms: N_14  and  C_15
REMARK    5  A    between atoms: C_15  and  C_16
REMARK    6  A    between atoms: C_16  and  C_17
REMARK                            x       y       z     vdW  Elec       q    Type
REMARK                         _______ _______ _______ _____ _____    ______ ____
ROOT
ATOM      1  N   UNL     1       5.841   4.590  16.452  0.00  0.00    +0.000 N 
ATOM      2  N   UNL     1       4.878   3.866  17.123  0.00  0.00    +0.000 NA
ATOM      3  C   UNL     1       4.204   4.771  17.782  0.00  0.00    +0.000 A 
ATOM      4  N   UNL     1       4.626   6.055  17.549  0.00  0.00    +0.000 N 
ATOM      5  C   UNL     1       5.764   5.933  16.793  0.00  0.00    +0.000 A 
ATOM      6  O   UNL     1       6.561   6.802  16.486  0.00  0.00    +0.000 OA
ENDROOT
BRANCH   3   7
ATOM      7  C   UNL     1       3.088   4.443  18.705  0.00  0.00    +0.000 A 
ATOM      8  C   UNL     1       1.869   3.941  18.231  0.00  0.00    +0.000 A 
ATOM      9  C   UNL     1       0.856   3.571  19.119  0.00  0.00    +0.000 A 
ATOM     10  C   UNL     1       1.031   3.757  20.486  0.00  0.00    +0.000 A 
ATOM     11  C   UNL     1       2.209   4.329  20.965  0.00  0.00    +0.000 A 
ATOM     12  C   UNL     1       3.237   4.672  20.075  0.00  0.00    +0.000 A 
ENDBRANCH   3   7
BRANCH   1  13
ATOM     13  C   UNL     1       6.875   4.026  15.611  0.00  0.00    +0.000 C 
BRANCH  13  15
ATOM     14  N   UNL     1       7.682   5.490  13.812  0.00  0.00    +0.000 N 
ATOM     15  C   UNL     1       6.809   4.503  14.166  0.00  0.00    +0.000 C 
ATOM     16  O   UNL     1       6.054   4.007  13.332  0.00  0.00    +0.000 OA
ATOM     17  H   UNL     1       7.751   5.730  12.837  0.00  0.00    +0.000 HD
ATOM     18  H   UNL     1       8.472   5.667  14.428  0.00  0.00    +0.000 HD
ENDBRANCH  13  15
ENDBRANCH   1  13
BRANCH   4  19
ATOM     19  C   UNL     1       4.077   7.326  18.004  0.00  0.00    +0.000 C 
BRANCH  19  20
ATOM     20  C   UNL     1       2.668   7.637  17.495  0.00  0.00    +0.000 C 
BRANCH  20  21
ATOM     21  C   UNL     1       1.868   8.361  18.545  0.00  0.00    +0.000 A 
ATOM     22  C   UNL     1       1.165   9.524  18.199  0.00  0.00    +0.000 A 
ATOM     23  C   UNL     1       0.436  10.216  19.162  0.00  0.00    +0.000 A 
ATOM     24  C   UNL     1       0.409   9.755  20.477  0.00  0.00    +0.000 A 
ATOM     25  C   UNL     1       1.114   8.604  20.831  0.00  0.00    +0.000 A 
ATOM     26  C   UNL     1       1.845   7.910  19.868  0.00  0.00    +0.000 A 
ENDBRANCH  20  21
ENDBRANCH  19  20
ENDBRANCH   4  19
TORSDOF 6
ENDMDL
MODEL 7
REMARK VINA RESULT:      -8.3      0.610      1.050
REMARK  Name = 
REMARK  6 active torsions:
REMARK  status: ('A' for Active; 'I' for Inactive)
REMARK    1  A    between atoms: C_2  and  C_4
REMARK    2  A    between atoms: C_4  and  N_5
REMARK    3  A    between atoms: C_7  and  C_8
REMARK    4  A    between atoms: N_14  and  C_15
REMARK    5  A    between atoms: C_15  and  C_16
REMARK    6  A    between atoms: C_16  and  C_17
REMARK                            x       y       z     vdW  Elec       q    Type
REMARK                         _______ _______ _______ _____ _____    ______ ____
ROOT
ATOM      1  N   UNL     1       4.887   4.695  16.053  0.00  0.00    +0.000 N 
ATOM      2  N   UNL     1       4.197   3.775  16.816  0.00  0.00    +0.000 NA
ATOM      3  C   UNL     1       3.673   4.491  17.776  0.00  0.00    +0.000 A 
ATOM      4  N   UNL     1       3.928   5.833  17.669  0.00  0.00    +0.000 N 
ATOM      5  C   UNL     1       4.819   5.954  16.631  0.00  0.00    +0.000 A 
ATOM      6  O   UNL     1       5.440   6.942  16.283  0.00  0.00    +0.000 OA
ENDROOT
BRANCH   3   7
ATOM      7  C   UNL     1       2.881   3.906  18.887  0.00  0.00    +0.000 A 
ATOM      8  C   UNL     1       3.498   3.249  19.959  0.00  0.00    +0.000 A 
ATOM      9  C   UNL     1       2.742   2.767  21.031  0.00  0.00    +0.000 A 
ATOM     10  C   UNL     1       1.357   2.885  21.011  0.00  0.00    +0.000 A 
ATOM     11  C   UNL     1       0.725   3.466  19.912  0.00  0.00    +0.000 A 
ATOM     12  C   UNL     1       1.486   3.977  18.851  0.00  0.00    +0.000 A 
ENDBRANCH   3   7
BRANCH   1  13
ATOM     13  C   UNL     1       5.682   4.382  14.886  0.00  0.00    +0.000 C 
BRANCH  13  15
ATOM     14  N   UNL     1       7.761   4.541  16.182  0.00  0.00    +0.000 N 
ATOM     15  C   UNL     1       7.134   4.824  15.003  0.00  0.00    +0.000 C 
ATOM     16  O   UNL     1       7.746   5.364  14.084  0.00  0.00    +0.000 OA
ATOM     17  H   UNL     1       8.754   4.702  16.237  0.00  0.00    +0.000 HD
ATOM     18  H   UNL     1       7.332   3.850  16.793  0.00  0.00    +0.000 HD
ENDBRANCH  13  15
ENDBRANCH   1  13
BRANCH   4  19
ATOM     19  C   UNL     1       3.444   6.954  18.466  0.00  0.00    +0.000 C 
BRANCH  19  20
ATOM     20  C   UNL     1       2.308   7.754  17.825  0.00  0.00    +0.000 C 
BRANCH  20  21
ATOM     21  C   UNL     1       1.700   8.708  18.819  0.00  0.00    +0.000 A 
ATOM     22  C   UNL     1       1.385  10.015  18.419  0.00  0.00    +0.000 A 
ATOM     23  C   UNL     1       0.840  10.916  19.331  0.00  0.00    +0.000 A 
ATOM     24  C   UNL     1       0.612  10.519  20.648  0.00  0.00    +0.000 A 
ATOM     25  C   UNL     1       0.931   9.223  21.055  0.00  0.00    +0.000 A 
ATOM     26  C   UNL     1       1.478   8.320  20.143  0.00  0.00    +0.000 A 
ENDBRANCH  20  21
ENDBRANCH  19  20
ENDBRANCH   4  19
TORSDOF 6
ENDMDL
MODEL 8
REMARK VINA RESULT:      -8.3      0.937      1.446
REMARK  Name = 
REMARK  6 active torsions:
REMARK  status: ('A' for Active; 'I' for Inactive)
REMARK    1  A    between atoms: C_2  and  C_4
REMARK    2  A    between atoms: C_4  and  N_5
REMARK    3  A    between atoms: C_7  and  C_8
REMARK    4  A    between atoms: N_14  and  C_15
REMARK    5  A    between atoms: C_15  and  C_16
REMARK    6  A    between atoms: C_16  and  C_17
REMARK                            x       y       z     vdW  Elec       q    Type
REMARK                         _______ _______ _______ _____ _____    ______ ____
ROOT
ATOM      1  N   UNL     1       6.002   4.907  16.453  0.00  0.00    +0.000 N 
ATOM      2  N   UNL     1       5.033   4.112  17.029  0.00  0.00    +0.000 NA
ATOM      3  C   UNL     1       4.301   4.952  17.713  0.00  0.00    +0.000 A 
ATOM      4  N   UNL     1       4.692   6.260  17.584  0.00  0.00    +0.000 N 
ATOM      5  C   UNL     1       5.867   6.221  16.876  0.00  0.00    +0.000 A 
ATOM      6  O   UNL     1       6.649   7.131  16.664  0.00  0.00    +0.000 OA
ENDROOT
BRANCH   3   7
ATOM      7  C   UNL     1       3.156   4.532  18.559  0.00  0.00    +0.000 A 
ATOM      8  C   UNL     1       3.174   4.698  19.950  0.00  0.00    +0.000 A 
ATOM      9  C   UNL     1       2.060   4.362  20.724  0.00  0.00    +0.000 A 
ATOM     10  C   UNL     1       0.941   3.801  20.120  0.00  0.00    +0.000 A 
ATOM     11  C   UNL     1       0.941   3.557  18.746  0.00  0.00    +0.000 A 
ATOM     12  C   UNL     1       2.048   3.923  17.967  0.00  0.00    +0.000 A 
ENDBRANCH   3   7
BRANCH   1  13
ATOM     13  C   UNL     1       7.089   4.430  15.626  0.00  0.00    +0.000 C 
BRANCH  13  15
ATOM     14  N   UNL     1       5.775   3.966  13.604  0.00  0.00    +0.000 N 
ATOM     15  C   UNL     1       6.848   4.622  14.135  0.00  0.00    +0.000 C 
ATOM     16  O   UNL     1       7.538   5.360  13.435  0.00  0.00    +0.000 OA
ATOM     17  H   UNL     1       5.516   4.179  12.655  0.00  0.00    +0.000 HD
ATOM     18  H   UNL     1       5.072   3.612  14.247  0.00  0.00    +0.000 HD
ENDBRANCH  13  15
ENDBRANCH   1  13
BRANCH   4  19
ATOM     19  C   UNL     1       4.084   7.482  18.094  0.00  0.00    +0.000 C 
BRANCH  19  20
ATOM     20  C   UNL     1       2.727   7.830  17.477  0.00  0.00    +0.000 C 
BRANCH  20  21
ATOM     21  C   UNL     1       1.822   8.467  18.500  0.00  0.00    +0.000 A 
ATOM     22  C   UNL     1       0.976   9.517  18.115  0.00  0.00    +0.000 A 
ATOM     23  C   UNL     1       0.148  10.129  19.052  0.00  0.00    +0.000 A 
ATOM     24  C   UNL     1       0.164   9.701  20.378  0.00  0.00    +0.000 A 
ATOM     25  C   UNL     1       1.010   8.662  20.770  0.00  0.00    +0.000 A 
ATOM     26  C   UNL     1       1.840   8.048  19.833  0.00  0.00    +0.000 A 
ENDBRANCH  20  21
ENDBRANCH  19  20
ENDBRANCH   4  19
TORSDOF 6
ENDMDL
MODEL 9
REMARK VINA RESULT:      -8.3      3.697      7.368
REMARK  Name = 
REMARK  6 active torsions:
REMARK  status: ('A' for Active; 'I' for Inactive)
REMARK    1  A    between atoms: C_2  and  C_4
REMARK    2  A    between atoms: C_4  and  N_5
REMARK    3  A    between atoms: C_7  and  C_8
REMARK    4  A    between atoms: N_14  and  C_15
REMARK    5  A    between atoms: C_15  and  C_16
REMARK    6  A    between atoms: C_16  and  C_17
REMARK                            x       y       z     vdW  Elec       q    Type
REMARK                         _______ _______ _______ _____ _____    ______ ____
ROOT
ATOM      1  N   UNL     1       2.688   4.061  19.118  0.00  0.00    +0.000 N 
ATOM      2  N   UNL     1       3.733   4.884  19.483  0.00  0.00    +0.000 NA
ATOM      3  C   UNL     1       4.443   4.995  18.391  0.00  0.00    +0.000 A 
ATOM      4  N   UNL     1       3.907   4.342  17.312  0.00  0.00    +0.000 N 
ATOM      5  C   UNL     1       2.843   3.631  17.808  0.00  0.00    +0.000 A 
ATOM      6  O   UNL     1       2.173   2.786  17.242  0.00  0.00    +0.000 OA
ENDROOT
BRANCH   3   7
ATOM      7  C   UNL     1       5.718   5.753  18.323  0.00  0.00    +0.000 A 
ATOM      8  C   UNL     1       5.918   6.768  17.379  0.00  0.00    +0.000 A 
ATOM      9  C   UNL     1       7.096   7.519  17.374  0.00  0.00    +0.000 A 
ATOM     10  C   UNL     1       8.110   7.220  18.278  0.00  0.00    +0.000 A 
ATOM     11  C   UNL     1       7.956   6.160  19.171  0.00  0.00    +0.000 A 
ATOM     12  C   UNL     1       6.761   5.428  19.194  0.00  0.00    +0.000 A 
ENDBRANCH   3   7
BRANCH   1  13
ATOM     13  C   UNL     1       1.642   3.598  20.004  0.00  0.00    +0.000 C 
BRANCH  13  15
ATOM     14  N   UNL     1       3.430   2.345  21.127  0.00  0.00    +0.000 N 
ATOM     15  C   UNL     1       2.165   2.848  21.221  0.00  0.00    +0.000 C 
ATOM     16  O   UNL     1       1.522   2.732  22.262  0.00  0.00    +0.000 OA
ATOM     17  H   UNL     1       3.847   1.962  21.960  0.00  0.00    +0.000 HD
ATOM     18  H   UNL     1       4.028   2.703  20.387  0.00  0.00    +0.000 HD
ENDBRANCH  13  15
ENDBRANCH   1  13
BRANCH   4  19
ATOM     19  C   UNL     1       4.333   4.311  15.918  0.00  0.00    +0.000 C 
BRANCH  19  20
ATOM     20  C   UNL     1       5.616   3.519  15.656  0.00  0.00    +0.000 C 
BRANCH  20  21
ATOM     21  C   UNL     1       6.270   3.970  14.376  0.00  0.00    +0.000 A 
ATOM     22  C   UNL     1       5.966   3.311  13.176  0.00  0.00    +0.000 A 
ATOM     23  C   UNL     1       6.577   3.702  11.987  0.00  0.00    +0.000 A 
ATOM     24  C   UNL     1       7.497   4.749  11.991  0.00  0.00    +0.000 A 
ATOM     25  C   UNL     1       7.811   5.403  13.182  0.00  0.00    +0.000 A 
ATOM     26  C   UNL     1       7.201   5.012  14.374  0.00  0.00    +0.000 A 
ENDBRANCH  20  21
ENDBRANCH  19  20
ENDBRANCH   4  19
TORSDOF 6
ENDMDL
