MODEL 1
REMARK VINA RESULT:      -9.1      0.000      0.000
REMARK  Name = 
REMARK  4 active torsions:
REMARK  status: ('A' for Active; 'I' for Inactive)
REMARK    1  A    between atoms: C_1  and  N_2
REMARK    2  A    between atoms: C_6  and  C_7
REMARK    3  A    between atoms: C_10  and  C_11
REMARK    4  A    between atoms: N_16  and  C_17
REMARK                            x       y       z     vdW  Elec       q    Type
REMARK                         _______ _______ _______ _____ _____    ______ ____
ROOT
ATOM      1  C   UNL     1       2.158   6.596  20.102  0.00  0.00    +0.000 A 
ATOM      2  N   UNL     1       3.026   6.286  19.083  0.00  0.00    +0.000 NA
ATOM      3  C   UNL     1       3.326   5.026  19.311  0.00  0.00    +0.000 A 
ATOM      4  C   UNL     1       4.192   4.087  18.690  0.00  0.00    +0.000 A 
ATOM      5  C   UNL     1       4.169   2.832  19.194  0.00  0.00    +0.000 A 
ATOM      6  N   UNL     1       3.398   2.388  20.257  0.00  0.00    +0.000 NA
ATOM      7  C   UNL     1       2.663   3.271  20.878  0.00  0.00    +0.000 A 
ATOM      8  N   UNL     1       1.906   2.935  21.968  0.00  0.00    +0.000 N 
ATOM      9  N   UNL     1       2.631   4.595  20.402  0.00  0.00    +0.000 N 
ATOM     10  N   UNL     1       1.876   5.583  20.938  0.00  0.00    +0.000 NA
ATOM     11  H   UNL     1       1.706   1.947  22.060  0.00  0.00    +0.000 HD
ATOM     12  H   UNL     1       1.140   3.565  22.192  0.00  0.00    +0.000 HD
ENDROOT
BRANCH   4  13
ATOM     13  C   UNL     1       5.143   4.468  17.640  0.00  0.00    +0.000 A 
ATOM     14  C   UNL     1       6.310   5.291  17.931  0.00  0.00    +0.000 A 
ATOM     15  C   UNL     1       7.199   5.614  16.986  0.00  0.00    +0.000 A 
ATOM     16  C   UNL     1       7.004   5.156  15.587  0.00  0.00    +0.000 A 
ATOM     17  O   UNL     1       7.843   5.450  14.741  0.00  0.00    +0.000 OA
ATOM     18  N   UNL     1       5.844   4.422  15.350  0.00  0.00    +0.000 N 
ATOM     19  C   UNL     1       5.544   3.999  13.992  0.00  0.00    +0.000 C 
ATOM     20  C   UNL     1       4.957   4.083  16.363  0.00  0.00    +0.000 A 
ENDBRANCH   4  13
BRANCH   1  26
ATOM     21  C   UNL     1       1.825   8.777  17.877  0.00  0.00    +0.000 C 
ATOM     22  N   UNL     1       1.512   8.915  19.280  0.00  0.00    +0.000 N 
ATOM     23  N   UNL     1       1.023  10.089  19.735  0.00  0.00    +0.000 NA
ATOM     24  C   UNL     1       0.793   9.856  21.029  0.00  0.00    +0.000 A 
ATOM     25  C   UNL     1       1.126   8.543  21.408  0.00  0.00    +0.000 A 
ATOM     26  C   UNL     1       1.613   7.961  20.259  0.00  0.00    +0.000 A 
ENDBRANCH   1  26
TORSDOF 2
ENDMDL
MODEL 2
REMARK VINA RESULT:      -9.0      2.444      6.444
REMARK  Name = 
REMARK  4 active torsions:
REMARK  status: ('A' for Active; 'I' for Inactive)
REMARK    1  A    between atoms: C_1  and  N_2
REMARK    2  A    between atoms: C_6  and  C_7
REMARK    3  A    between atoms: C_10  and  C_11
REMARK    4  A    between atoms: N_16  and  C_17
REMARK                            x       y       z     vdW  Elec       q    Type
REMARK                         _______ _______ _______ _____ _____    ______ ____
ROOT
ATOM      1  C   UNL     1       4.785   4.997  17.616  0.00  0.00    +0.000 A 
ATOM      2  N   UNL     1       4.140   6.156  17.977  0.00  0.00    +0.000 NA
ATOM      3  C   UNL     1       3.350   5.773  18.956  0.00  0.00    +0.000 A 
ATOM      4  C   UNL     1       2.379   6.428  19.758  0.00  0.00    +0.000 A 
ATOM      5  C   UNL     1       1.813   5.683  20.736  0.00  0.00    +0.000 A 
ATOM      6  N   UNL     1       2.081   4.352  21.014  0.00  0.00    +0.000 NA
ATOM      7  C   UNL     1       2.915   3.729  20.226  0.00  0.00    +0.000 A 
ATOM      8  N   UNL     1       3.204   2.401  20.393  0.00  0.00    +0.000 N 
ATOM      9  N   UNL     1       3.549   4.444  19.192  0.00  0.00    +0.000 N 
ATOM     10  N   UNL     1       4.460   3.915  18.341  0.00  0.00    +0.000 NA
ATOM     11  H   UNL     1       2.997   2.033  21.312  0.00  0.00    +0.000 HD
ATOM     12  H   UNL     1       4.070   2.075  19.969  0.00  0.00    +0.000 HD
ENDROOT
BRANCH   4  13
ATOM     13  C   UNL     1       1.922   7.794  19.482  0.00  0.00    +0.000 A 
ATOM     14  C   UNL     1       2.052   8.388  18.157  0.00  0.00    +0.000 A 
ATOM     15  C   UNL     1       1.608   9.621  17.890  0.00  0.00    +0.000 A 
ATOM     16  C   UNL     1       0.983  10.439  18.960  0.00  0.00    +0.000 A 
ATOM     17  O   UNL     1       0.566  11.561  18.686  0.00  0.00    +0.000 OA
ATOM     18  N   UNL     1       0.936   9.848  20.220  0.00  0.00    +0.000 N 
ATOM     19  C   UNL     1       0.404  10.613  21.337  0.00  0.00    +0.000 C 
ATOM     20  C   UNL     1       1.383   8.555  20.454  0.00  0.00    +0.000 A 
ENDBRANCH   4  13
BRANCH   1  26
ATOM     21  C   UNL     1       7.440   6.638  17.330  0.00  0.00    +0.000 C 
ATOM     22  N   UNL     1       6.876   5.725  16.364  0.00  0.00    +0.000 N 
ATOM     23  N   UNL     1       7.521   5.521  15.194  0.00  0.00    +0.000 NA
ATOM     24  C   UNL     1       6.777   4.598  14.579  0.00  0.00    +0.000 A 
ATOM     25  C   UNL     1       5.665   4.205  15.345  0.00  0.00    +0.000 A 
ATOM     26  C   UNL     1       5.740   4.969  16.488  0.00  0.00    +0.000 A 
ENDBRANCH   1  26
TORSDOF 2
ENDMDL
MODEL 3
REMARK VINA RESULT:      -8.9      2.522      6.458
REMARK  Name = 
REMARK  4 active torsions:
REMARK  status: ('A' for Active; 'I' for Inactive)
REMARK    1  A    between atoms: C_1  and  N_2
REMARK    2  A    between atoms: C_6  and  C_7
REMARK    3  A    between atoms: C_10  and  C_11
REMARK    4  A    between atoms: N_16  and  C_17
REMARK                            x       y       z     vdW  Elec       q    Type
REMARK                         _______ _______ _______ _____ _____    ______ ____
ROOT
ATOM      1  C   UNL     1       4.751   4.485  16.822  0.00  0.00    +0.000 A 
ATOM      2  N   UNL     1       4.179   5.552  17.472  0.00  0.00    +0.000 NA
ATOM      3  C   UNL     1       3.285   4.989  18.254  0.00  0.00    +0.000 A 
ATOM      4  C   UNL     1       2.311   5.484  19.162  0.00  0.00    +0.000 A 
ATOM      5  C   UNL     1       1.609   4.554  19.849  0.00  0.00    +0.000 A 
ATOM      6  N   UNL     1       1.742   3.178  19.739  0.00  0.00    +0.000 NA
ATOM      7  C   UNL     1       2.581   2.724  18.847  0.00  0.00    +0.000 A 
ATOM      8  N   UNL     1       2.743   1.382  18.634  0.00  0.00    +0.000 N 
ATOM      9  N   UNL     1       3.352   3.635  18.101  0.00  0.00    +0.000 N 
ATOM     10  N   UNL     1       4.280   3.280  17.182  0.00  0.00    +0.000 NA
ATOM     11  H   UNL     1       2.433   0.789  19.394  0.00  0.00    +0.000 HD
ATOM     12  H   UNL     1       3.609   1.102  18.179  0.00  0.00    +0.000 HD
ENDROOT
BRANCH   4  13
ATOM     13  C   UNL     1       1.994   6.912  19.274  0.00  0.00    +0.000 A 
ATOM     14  C   UNL     1       2.054   7.799  18.119  0.00  0.00    +0.000 A 
ATOM     15  C   UNL     1       1.734   9.094  18.207  0.00  0.00    +0.000 A 
ATOM     16  C   UNL     1       1.327   9.678  19.509  0.00  0.00    +0.000 A 
ATOM     17  O   UNL     1       1.020  10.865  19.561  0.00  0.00    +0.000 OA
ATOM     18  N   UNL     1       1.342   8.802  20.592  0.00  0.00    +0.000 N 
ATOM     19  C   UNL     1       1.026   9.314  21.916  0.00  0.00    +0.000 C 
ATOM     20  C   UNL     1       1.655   7.456  20.458  0.00  0.00    +0.000 A 
ENDBRANCH   4  13
BRANCH   1  26
ATOM     21  C   UNL     1       7.361   6.205  17.045  0.00  0.00    +0.000 C 
ATOM     22  N   UNL     1       6.902   5.471  15.889  0.00  0.00    +0.000 N 
ATOM     23  N   UNL     1       7.638   5.497  14.755  0.00  0.00    +0.000 NA
ATOM     24  C   UNL     1       6.973   4.686  13.928  0.00  0.00    +0.000 A 
ATOM     25  C   UNL     1       5.822   4.137  14.522  0.00  0.00    +0.000 A 
ATOM     26  C   UNL     1       5.787   4.683  15.786  0.00  0.00    +0.000 A 
ENDBRANCH   1  26
TORSDOF 2
ENDMDL
MODEL 4
REMARK VINA RESULT:      -8.9      0.808      1.487
REMARK  Name = 
REMARK  4 active torsions:
REMARK  status: ('A' for Active; 'I' for Inactive)
REMARK    1  A    between atoms: C_1  and  N_2
REMARK    2  A    between atoms: C_6  and  C_7
REMARK    3  A    between atoms: C_10  and  C_11
REMARK    4  A    between atoms: N_16  and  C_17
REMARK                            x       y       z     vdW  Elec       q    Type
REMARK                         _______ _______ _______ _____ _____    ______ ____
ROOT
ATOM      1  C   UNL     1       1.895   6.678  20.097  0.00  0.00    +0.000 A 
ATOM      2  N   UNL     1       2.808   6.394  19.110  0.00  0.00    +0.000 NA
ATOM      3  C   UNL     1       2.944   5.089  19.188  0.00  0.00    +0.000 A 
ATOM      4  C   UNL     1       3.750   4.135  18.510  0.00  0.00    +0.000 A 
ATOM      5  C   UNL     1       3.543   2.839  18.838  0.00  0.00    +0.000 A 
ATOM      6  N   UNL     1       2.638   2.364  19.775  0.00  0.00    +0.000 NA
ATOM      7  C   UNL     1       1.956   3.246  20.454  0.00  0.00    +0.000 A 
ATOM      8  N   UNL     1       1.075   2.872  21.433  0.00  0.00    +0.000 N 
ATOM      9  N   UNL     1       2.113   4.613  20.159  0.00  0.00    +0.000 N 
ATOM     10  N   UNL     1       1.430   5.612  20.768  0.00  0.00    +0.000 NA
ATOM     11  H   UNL     1       0.758   1.912  21.377  0.00  0.00    +0.000 HD
ATOM     12  H   UNL     1       0.367   3.558  21.685  0.00  0.00    +0.000 HD
ENDROOT
BRANCH   4  13
ATOM     13  C   UNL     1       4.824   4.525  17.591  0.00  0.00    +0.000 A 
ATOM     14  C   UNL     1       5.042   3.823  16.332  0.00  0.00    +0.000 A 
ATOM     15  C   UNL     1       5.999   4.193  15.474  0.00  0.00    +0.000 A 
ATOM     16  C   UNL     1       6.894   5.333  15.798  0.00  0.00    +0.000 A 
ATOM     17  O   UNL     1       7.752   5.666  14.986  0.00  0.00    +0.000 OA
ATOM     18  N   UNL     1       6.682   5.932  17.037  0.00  0.00    +0.000 N 
ATOM     19  C   UNL     1       7.564   7.008  17.459  0.00  0.00    +0.000 C 
ATOM     20  C   UNL     1       5.661   5.537  17.890  0.00  0.00    +0.000 A 
ENDBRANCH   4  13
BRANCH   1  26
ATOM     21  C   UNL     1       1.488   9.019  18.054  0.00  0.00    +0.000 C 
ATOM     22  N   UNL     1       1.360   9.090  19.491  0.00  0.00    +0.000 N 
ATOM     23  N   UNL     1       1.034  10.268  20.068  0.00  0.00    +0.000 NA
ATOM     24  C   UNL     1       0.944   9.970  21.366  0.00  0.00    +0.000 A 
ATOM     25  C   UNL     1       1.203   8.612  21.627  0.00  0.00    +0.000 A 
ATOM     26  C   UNL     1       1.494   8.070  20.395  0.00  0.00    +0.000 A 
ENDBRANCH   1  26
TORSDOF 2
ENDMDL
MODEL 5
REMARK VINA RESULT:      -8.6      2.547      6.234
REMARK  Name = 
REMARK  4 active torsions:
REMARK  status: ('A' for Active; 'I' for Inactive)
REMARK    1  A    between atoms: C_1  and  N_2
REMARK    2  A    between atoms: C_6  and  C_7
REMARK    3  A    between atoms: C_10  and  C_11
REMARK    4  A    between atoms: N_16  and  C_17
REMARK                            x       y       z     vdW  Elec       q    Type
REMARK                         _______ _______ _______ _____ _____    ______ ____
ROOT
ATOM      1  C   UNL     1       4.617   4.433  17.215  0.00  0.00    +0.000 A 
ATOM      2  N   UNL     1       4.041   5.454  17.931  0.00  0.00    +0.000 NA
ATOM      3  C   UNL     1       3.141   4.840  18.667  0.00  0.00    +0.000 A 
ATOM      4  C   UNL     1       2.160   5.274  19.598  0.00  0.00    +0.000 A 
ATOM      5  C   UNL     1       1.452   4.299  20.215  0.00  0.00    +0.000 A 
ATOM      6  N   UNL     1       1.585   2.934  20.013  0.00  0.00    +0.000 NA
ATOM      7  C   UNL     1       2.430   2.541  19.099  0.00  0.00    +0.000 A 
ATOM      8  N   UNL     1       2.593   1.216  18.795  0.00  0.00    +0.000 N 
ATOM      9  N   UNL     1       3.208   3.500  18.422  0.00  0.00    +0.000 N 
ATOM     10  N   UNL     1       4.143   3.207  17.487  0.00  0.00    +0.000 NA
ATOM     11  H   UNL     1       2.277   0.573  19.511  0.00  0.00    +0.000 HD
ATOM     12  H   UNL     1       3.463   0.967  18.329  0.00  0.00    +0.000 HD
ENDROOT
BRANCH   4  13
ATOM     13  C   UNL     1       1.844   6.690  19.805  0.00  0.00    +0.000 A 
ATOM     14  C   UNL     1       1.312   7.176  21.072  0.00  0.00    +0.000 A 
ATOM     15  C   UNL     1       1.052   8.471  21.279  0.00  0.00    +0.000 A 
ATOM     16  C   UNL     1       1.279   9.462  20.196  0.00  0.00    +0.000 A 
ATOM     17  O   UNL     1       1.051  10.648  20.416  0.00  0.00    +0.000 OA
ATOM     18  N   UNL     1       1.733   8.939  18.988  0.00  0.00    +0.000 N 
ATOM     19  C   UNL     1       1.911   9.835  17.856  0.00  0.00    +0.000 C 
ATOM     20  C   UNL     1       2.017   7.591  18.819  0.00  0.00    +0.000 A 
ENDBRANCH   4  13
BRANCH   1  26
ATOM     21  C   UNL     1       7.401   5.800  17.666  0.00  0.00    +0.000 C 
ATOM     22  N   UNL     1       6.856   5.334  16.412  0.00  0.00    +0.000 N 
ATOM     23  N   UNL     1       7.582   5.481  15.281  0.00  0.00    +0.000 NA
ATOM     24  C   UNL     1       6.828   4.904  14.343  0.00  0.00    +0.000 A 
ATOM     25  C   UNL     1       5.627   4.385  14.861  0.00  0.00    +0.000 A 
ATOM     26  C   UNL     1       5.661   4.699  16.202  0.00  0.00    +0.000 A 
ENDBRANCH   1  26
TORSDOF 2
ENDMDL
MODEL 6
REMARK VINA RESULT:      -8.4      0.778      1.298
REMARK  Name = 
REMARK  4 active torsions:
REMARK  status: ('A' for Active; 'I' for Inactive)
REMARK    1  A    between atoms: C_1  and  N_2
REMARK    2  A    between atoms: C_6  and  C_7
REMARK    3  A    between atoms: C_10  and  C_11
REMARK    4  A    between atoms: N_16  and  C_17
REMARK                            x       y       z     vdW  Elec       q    Type
REMARK                         _______ _______ _______ _____ _____    ______ ____
ROOT
ATOM      1  C   UNL     1       2.197   7.079  19.460  0.00  0.00    +0.000 A 
ATOM      2  N   UNL     1       3.086   6.670  18.495  0.00  0.00    +0.000 NA
ATOM      3  C   UNL     1       3.380   5.440  18.853  0.00  0.00    +0.000 A 
ATOM      4  C   UNL     1       4.256   4.444  18.346  0.00  0.00    +0.000 A 
ATOM      5  C   UNL     1       4.222   3.245  18.972  0.00  0.00    +0.000 A 
ATOM      6  N   UNL     1       3.428   2.908  20.058  0.00  0.00    +0.000 NA
ATOM      7  C   UNL     1       2.682   3.847  20.572  0.00  0.00    +0.000 A 
ATOM      8  N   UNL     1       1.902   3.621  21.674  0.00  0.00    +0.000 N 
ATOM      9  N   UNL     1       2.661   5.118  19.967  0.00  0.00    +0.000 N 
ATOM     10  N   UNL     1       1.897   6.154  20.387  0.00  0.00    +0.000 NA
ATOM     11  H   UNL     1       1.699   2.647  21.860  0.00  0.00    +0.000 HD
ATOM     12  H   UNL     1       1.132   4.270  21.819  0.00  0.00    +0.000 HD
ENDROOT
BRANCH   4  13
ATOM     13  C   UNL     1       5.229   4.719  17.284  0.00  0.00    +0.000 A 
ATOM     14  C   UNL     1       6.356   5.619  17.496  0.00  0.00    +0.000 A 
ATOM     15  C   UNL     1       7.265   5.849  16.543  0.00  0.00    +0.000 A 
ATOM     16  C   UNL     1       7.135   5.202  15.213  0.00  0.00    +0.000 A 
ATOM     17  O   UNL     1       7.992   5.414  14.361  0.00  0.00    +0.000 OA
ATOM     18  N   UNL     1       6.011   4.398  15.043  0.00  0.00    +0.000 N 
ATOM     19  C   UNL     1       5.773   3.786  13.745  0.00  0.00    +0.000 C 
ATOM     20  C   UNL     1       5.102   4.162  16.065  0.00  0.00    +0.000 A 
ENDBRANCH   4  13
BRANCH   1  26
ATOM     21  C   UNL     1       1.218   8.719  21.944  0.00  0.00    +0.000 C 
ATOM     22  N   UNL     1       1.191   9.139  20.562  0.00  0.00    +0.000 N 
ATOM     23  N   UNL     1       0.699  10.359  20.251  0.00  0.00    +0.000 NA
ATOM     24  C   UNL     1       0.875  10.444  18.931  0.00  0.00    +0.000 A 
ATOM     25  C   UNL     1       1.479   9.293  18.392  0.00  0.00    +0.000 A 
ATOM     26  C   UNL     1       1.651   8.452  19.469  0.00  0.00    +0.000 A 
ENDBRANCH   1  26
TORSDOF 2
ENDMDL
MODEL 7
REMARK VINA RESULT:      -7.9      0.971      1.863
REMARK  Name = 
REMARK  4 active torsions:
REMARK  status: ('A' for Active; 'I' for Inactive)
REMARK    1  A    between atoms: C_1  and  N_2
REMARK    2  A    between atoms: C_6  and  C_7
REMARK    3  A    between atoms: C_10  and  C_11
REMARK    4  A    between atoms: N_16  and  C_17
REMARK                            x       y       z     vdW  Elec       q    Type
REMARK                         _______ _______ _______ _____ _____    ______ ____
ROOT
ATOM      1  C   UNL     1       2.048   7.027  19.764  0.00  0.00    +0.000 A 
ATOM      2  N   UNL     1       2.951   6.624  18.811  0.00  0.00    +0.000 NA
ATOM      3  C   UNL     1       3.226   5.386  19.156  0.00  0.00    +0.000 A 
ATOM      4  C   UNL     1       4.103   4.389  18.652  0.00  0.00    +0.000 A 
ATOM      5  C   UNL     1       4.045   3.181  19.260  0.00  0.00    +0.000 A 
ATOM      6  N   UNL     1       3.228   2.837  20.325  0.00  0.00    +0.000 NA
ATOM      7  C   UNL     1       2.480   3.776  20.839  0.00  0.00    +0.000 A 
ATOM      8  N   UNL     1       1.678   3.542  21.923  0.00  0.00    +0.000 N 
ATOM      9  N   UNL     1       2.483   5.056  20.252  0.00  0.00    +0.000 N 
ATOM     10  N   UNL     1       1.721   6.093  20.672  0.00  0.00    +0.000 NA
ATOM     11  H   UNL     1       1.462   2.567  22.090  0.00  0.00    +0.000 HD
ATOM     12  H   UNL     1       0.911   4.196  22.062  0.00  0.00    +0.000 HD
ENDROOT
BRANCH   4  13
ATOM     13  C   UNL     1       5.099   4.670  17.613  0.00  0.00    +0.000 A 
ATOM     14  C   UNL     1       5.261   3.797  16.456  0.00  0.00    +0.000 A 
ATOM     15  C   UNL     1       6.143   4.065  15.488  0.00  0.00    +0.000 A 
ATOM     16  C   UNL     1       7.013   5.265  15.580  0.00  0.00    +0.000 A 
ATOM     17  O   UNL     1       7.803   5.499  14.669  0.00  0.00    +0.000 OA
ATOM     18  N   UNL     1       6.860   6.033  16.731  0.00  0.00    +0.000 N 
ATOM     19  C   UNL     1       7.725   7.185  16.929  0.00  0.00    +0.000 C 
ATOM     20  C   UNL     1       5.913   5.738  17.703  0.00  0.00    +0.000 A 
ENDBRANCH   4  13
BRANCH   1  26
ATOM     21  C   UNL     1       1.316   8.750  22.278  0.00  0.00    +0.000 C 
ATOM     22  N   UNL     1       1.164   9.129  20.892  0.00  0.00    +0.000 N 
ATOM     23  N   UNL     1       0.654  10.344  20.592  0.00  0.00    +0.000 NA
ATOM     24  C   UNL     1       0.706  10.389  19.259  0.00  0.00    +0.000 A 
ATOM     25  C   UNL     1       1.249   9.217  18.701  0.00  0.00    +0.000 A 
ATOM     26  C   UNL     1       1.515   8.406  19.783  0.00  0.00    +0.000 A 
ENDBRANCH   1  26
TORSDOF 2
ENDMDL
MODEL 8
REMARK VINA RESULT:      -7.1      3.550      6.639
REMARK  Name = 
REMARK  4 active torsions:
REMARK  status: ('A' for Active; 'I' for Inactive)
REMARK    1  A    between atoms: C_1  and  N_2
REMARK    2  A    between atoms: C_6  and  C_7
REMARK    3  A    between atoms: C_10  and  C_11
REMARK    4  A    between atoms: N_16  and  C_17
REMARK                            x       y       z     vdW  Elec       q    Type
REMARK                         _______ _______ _______ _____ _____    ______ ____
ROOT
ATOM      1  C   UNL     1      -1.788  10.764  18.662  0.00  0.00    +0.000 A 
ATOM      2  N   UNL     1      -0.860   9.751  18.633  0.00  0.00    +0.000 NA
ATOM      3  C   UNL     1      -0.203   9.906  19.761  0.00  0.00    +0.000 A 
ATOM      4  C   UNL     1       0.905   9.250  20.360  0.00  0.00    +0.000 A 
ATOM      5  C   UNL     1       1.250   9.672  21.598  0.00  0.00    +0.000 A 
ATOM      6  N   UNL     1       0.637  10.685  22.321  0.00  0.00    +0.000 NA
ATOM      7  C   UNL     1      -0.330  11.340  21.737  0.00  0.00    +0.000 A 
ATOM      8  N   UNL     1      -0.961  12.387  22.354  0.00  0.00    +0.000 N 
ATOM      9  N   UNL     1      -0.748  10.949  20.451  0.00  0.00    +0.000 N 
ATOM     10  N   UNL     1      -1.764  11.526  19.767  0.00  0.00    +0.000 NA
ATOM     11  H   UNL     1      -0.861  12.411  23.361  0.00  0.00    +0.000 HD
ATOM     12  H   UNL     1      -1.880  12.630  21.993  0.00  0.00    +0.000 HD
ENDROOT
BRANCH   4  13
ATOM     13  C   UNL     1       1.708   8.252  19.646  0.00  0.00    +0.000 A 
ATOM     14  C   UNL     1       2.256   8.519  18.322  0.00  0.00    +0.000 A 
ATOM     15  C   UNL     1       3.016   7.626  17.680  0.00  0.00    +0.000 A 
ATOM     16  C   UNL     1       3.307   6.309  18.298  0.00  0.00    +0.000 A 
ATOM     17  O   UNL     1       4.024   5.513  17.697  0.00  0.00    +0.000 OA
ATOM     18  N   UNL     1       2.714   6.080  19.537  0.00  0.00    +0.000 N 
ATOM     19  C   UNL     1       2.892   4.786  20.175  0.00  0.00    +0.000 C 
ATOM     20  C   UNL     1       1.951   7.042  20.186  0.00  0.00    +0.000 A 
ENDBRANCH   4  13
BRANCH   1  26
ATOM     21  C   UNL     1      -4.720  11.860  18.794  0.00  0.00    +0.000 C 
ATOM     22  N   UNL     1      -4.005  11.435  17.613  0.00  0.00    +0.000 N 
ATOM     23  N   UNL     1      -4.621  11.494  16.412  0.00  0.00    +0.000 NA
ATOM     24  C   UNL     1      -3.680  11.095  15.554  0.00  0.00    +0.000 A 
ATOM     25  C   UNL     1      -2.465  10.786  16.192  0.00  0.00    +0.000 A 
ATOM     26  C   UNL     1      -2.712  10.992  17.531  0.00  0.00    +0.000 A 
ENDBRANCH   1  26
TORSDOF 2
ENDMDL
MODEL 9
REMARK VINA RESULT:      -7.1      2.604      6.468
REMARK  Name = 
REMARK  4 active torsions:
REMARK  status: ('A' for Active; 'I' for Inactive)
REMARK    1  A    between atoms: C_1  and  N_2
REMARK    2  A    between atoms: C_6  and  C_7
REMARK    3  A    between atoms: C_10  and  C_11
REMARK    4  A    between atoms: N_16  and  C_17
REMARK                            x       y       z     vdW  Elec       q    Type
REMARK                         _______ _______ _______ _____ _____    ______ ____
ROOT
ATOM      1  C   UNL     1       4.646   4.426  18.358  0.00  0.00    +0.000 A 
ATOM      2  N   UNL     1       4.018   5.515  18.911  0.00  0.00    +0.000 NA
ATOM      3  C   UNL     1       2.896   5.014  19.379  0.00  0.00    +0.000 A 
ATOM      4  C   UNL     1       1.760   5.566  20.028  0.00  0.00    +0.000 A 
ATOM      5  C   UNL     1       0.814   4.685  20.427  0.00  0.00    +0.000 A 
ATOM      6  N   UNL     1       0.846   3.310  20.250  0.00  0.00    +0.000 NA
ATOM      7  C   UNL     1       1.852   2.812  19.583  0.00  0.00    +0.000 A 
ATOM      8  N   UNL     1       1.944   1.473  19.317  0.00  0.00    +0.000 N 
ATOM      9  N   UNL     1       2.879   3.670  19.144  0.00  0.00    +0.000 N 
ATOM     10  N   UNL     1       3.987   3.263  18.482  0.00  0.00    +0.000 NA
ATOM     11  H   UNL     1       1.385   0.880  19.917  0.00  0.00    +0.000 HD
ATOM     12  H   UNL     1       2.873   1.124  19.090  0.00  0.00    +0.000 HD
ENDROOT
BRANCH   4  13
ATOM     13  C   UNL     1       1.556   7.012  20.162  0.00  0.00    +0.000 A 
ATOM     14  C   UNL     1       1.828   7.926  19.059  0.00  0.00    +0.000 A 
ATOM     15  C   UNL     1       1.612   9.242  19.164  0.00  0.00    +0.000 A 
ATOM     16  C   UNL     1       1.106   9.819  20.434  0.00  0.00    +0.000 A 
ATOM     17  O   UNL     1       0.898  11.027  20.499  0.00  0.00    +0.000 OA
ATOM     18  N   UNL     1       0.917   8.912  21.474  0.00  0.00    +0.000 N 
ATOM     19  C   UNL     1       0.492   9.408  22.773  0.00  0.00    +0.000 C 
ATOM     20  C   UNL     1       1.126   7.548  21.320  0.00  0.00    +0.000 A 
ENDBRANCH   4  13
BRANCH   1  26
ATOM     21  C   UNL     1       5.134   4.471  15.262  0.00  0.00    +0.000 C 
ATOM     22  N   UNL     1       6.137   4.539  16.299  0.00  0.00    +0.000 N 
ATOM     23  N   UNL     1       7.440   4.631  15.952  0.00  0.00    +0.000 NA
ATOM     24  C   UNL     1       8.072   4.733  17.123  0.00  0.00    +0.000 A 
ATOM     25  C   UNL     1       7.188   4.713  18.217  0.00  0.00    +0.000 A 
ATOM     26  C   UNL     1       5.940   4.561  17.655  0.00  0.00    +0.000 A 
ENDBRANCH   1  26
TORSDOF 2
ENDMDL
