MODEL 1
REMARK VINA RESULT:      -7.6      0.000      0.000
REMARK  Name = 
REMARK  6 active torsions:
REMARK  status: ('A' for Active; 'I' for Inactive)
REMARK    1  A    between atoms: C_1  and  C_2
REMARK    2  A    between atoms: C_7  and  N_8
REMARK    3  A    between atoms: N_8  and  C_9
REMARK    4  A    between atoms: C_9  and  N_11
REMARK    5  A    between atoms: C_12  and  C_14
REMARK    6  A    between atoms: C_15  and  C_16
REMARK                            x       y       z     vdW  Elec       q    Type
REMARK                         _______ _______ _______ _____ _____    ______ ____
ROOT
ATOM      1  C   UNL     1       6.511   5.423  16.428  0.00  0.00    +0.000 C 
ATOM      2  S   UNL     1       6.712   4.620  14.971  0.00  0.00    +0.000 S 
ENDROOT
BRANCH   1   3
ATOM      3  N   UNL     1       7.138   6.655  16.557  0.00  0.00    +0.000 N 
ATOM      4  C   UNL     1       7.635   7.165  17.733  0.00  0.00    +0.000 C 
ATOM      5  O   UNL     1       7.929   6.458  18.692  0.00  0.00    +0.000 OA
ATOM      6  H   UNL     1       7.121   7.227  15.724  0.00  0.00    +0.000 HD
BRANCH   4   7
ATOM      7  C   UNL     1       7.840   8.640  17.761  0.00  0.00    +0.000 C 
ATOM      8  C   UNL     1       8.810   9.058  18.587  0.00  0.00    +0.000 C 
BRANCH   8   9
ATOM      9  C   UNL     1       9.065  10.421  18.880  0.00  0.00    +0.000 A 
ATOM     10  C   UNL     1       9.424  10.960  20.113  0.00  0.00    +0.000 A 
ATOM     11  C   UNL     1       9.535  12.359  19.962  0.00  0.00    +0.000 A 
ATOM     12  C   UNL     1       9.240  12.613  18.648  0.00  0.00    +0.000 A 
ATOM     13  O   UNL     1       8.961  11.461  17.987  0.00  0.00    +0.000 OA
ENDBRANCH   8   9
ENDBRANCH   4   7
ENDBRANCH   1   3
BRANCH   1  14
ATOM     14  N   UNL     1       5.788   4.999  17.533  0.00  0.00    +0.000 N 
ATOM     15  H   UNL     1       6.313   5.012  18.408  0.00  0.00    +0.000 HD
BRANCH  14  22
ATOM     16  C   UNL     1       3.614   7.023  17.920  0.00  0.00    +0.000 C 
ATOM     17  C   UNL     1       3.390   5.541  17.771  0.00  0.00    +0.000 A 
ATOM     18  C   UNL     1       2.054   5.093  17.845  0.00  0.00    +0.000 A 
ATOM     19  C   UNL     1       1.734   3.744  17.727  0.00  0.00    +0.000 A 
ATOM     20  C   UNL     1       2.749   2.818  17.540  0.00  0.00    +0.000 A 
ATOM     21  C   UNL     1       4.081   3.240  17.497  0.00  0.00    +0.000 A 
ATOM     22  C   UNL     1       4.430   4.591  17.639  0.00  0.00    +0.000 A 
ENDBRANCH  14  22
ENDBRANCH   1  14
TORSDOF 5
ENDMDL
MODEL 2
REMARK VINA RESULT:      -7.4      4.163      6.686
REMARK  Name = 
REMARK  6 active torsions:
REMARK  status: ('A' for Active; 'I' for Inactive)
REMARK    1  A    between atoms: C_1  and  C_2
REMARK    2  A    between atoms: C_7  and  N_8
REMARK    3  A    between atoms: N_8  and  C_9
REMARK    4  A    between atoms: C_9  and  N_11
REMARK    5  A    between atoms: C_12  and  C_14
REMARK    6  A    between atoms: C_15  and  C_16
REMARK                            x       y       z     vdW  Elec       q    Type
REMARK                         _______ _______ _______ _____ _____    ______ ____
ROOT
ATOM      1  C   UNL     1       6.723   4.552  18.308  0.00  0.00    +0.000 C 
ATOM      2  S   UNL     1       7.718   5.605  19.152  0.00  0.00    +0.000 S 
ENDROOT
BRANCH   1   3
ATOM      3  N   UNL     1       7.061   4.296  16.986  0.00  0.00    +0.000 N 
ATOM      4  C   UNL     1       7.139   5.245  15.995  0.00  0.00    +0.000 C 
ATOM      5  O   UNL     1       7.303   6.439  16.231  0.00  0.00    +0.000 OA
ATOM      6  H   UNL     1       7.152   3.315  16.755  0.00  0.00    +0.000 HD
BRANCH   4   7
ATOM      7  C   UNL     1       7.056   4.732  14.600  0.00  0.00    +0.000 C 
ATOM      8  C   UNL     1       5.860   4.230  14.255  0.00  0.00    +0.000 C 
BRANCH   8   9
ATOM      9  C   UNL     1       5.610   3.554  13.035  0.00  0.00    +0.000 A 
ATOM     10  C   UNL     1       4.476   3.662  12.235  0.00  0.00    +0.000 A 
ATOM     11  C   UNL     1       4.626   2.781  11.142  0.00  0.00    +0.000 A 
ATOM     12  C   UNL     1       5.843   2.176  11.321  0.00  0.00    +0.000 A 
ATOM     13  O   UNL     1       6.444   2.632  12.449  0.00  0.00    +0.000 OA
ENDBRANCH   8   9
ENDBRANCH   4   7
ENDBRANCH   1   3
BRANCH   1  14
ATOM     14  N   UNL     1       5.591   3.903  18.776  0.00  0.00    +0.000 N 
ATOM     15  H   UNL     1       5.770   3.241  19.532  0.00  0.00    +0.000 HD
BRANCH  14  22
ATOM     16  C   UNL     1       3.837   1.495  18.464  0.00  0.00    +0.000 C 
ATOM     17  C   UNL     1       3.378   2.919  18.293  0.00  0.00    +0.000 A 
ATOM     18  C   UNL     1       2.025   3.108  17.939  0.00  0.00    +0.000 A 
ATOM     19  C   UNL     1       1.497   4.382  17.751  0.00  0.00    +0.000 A 
ATOM     20  C   UNL     1       2.317   5.489  17.906  0.00  0.00    +0.000 A 
ATOM     21  C   UNL     1       3.668   5.318  18.224  0.00  0.00    +0.000 A 
ATOM     22  C   UNL     1       4.229   4.044  18.395  0.00  0.00    +0.000 A 
ENDBRANCH  14  22
ENDBRANCH   1  14
TORSDOF 5
ENDMDL
MODEL 3
REMARK VINA RESULT:      -7.3      4.922      6.376
REMARK  Name = 
REMARK  6 active torsions:
REMARK  status: ('A' for Active; 'I' for Inactive)
REMARK    1  A    between atoms: C_1  and  C_2
REMARK    2  A    between atoms: C_7  and  N_8
REMARK    3  A    between atoms: N_8  and  C_9
REMARK    4  A    between atoms: C_9  and  N_11
REMARK    5  A    between atoms: C_12  and  C_14
REMARK    6  A    between atoms: C_15  and  C_16
REMARK                            x       y       z     vdW  Elec       q    Type
REMARK                         _______ _______ _______ _____ _____    ______ ____
ROOT
ATOM      1  C   UNL     1       2.509   4.753  19.815  0.00  0.00    +0.000 C 
ATOM      2  S   UNL     1       1.386   3.851  20.672  0.00  0.00    +0.000 S 
ENDROOT
BRANCH   1   3
ATOM      3  N   UNL     1       3.095   4.142  18.715  0.00  0.00    +0.000 N 
ATOM      4  C   UNL     1       4.449   4.002  18.521  0.00  0.00    +0.000 C 
ATOM      5  O   UNL     1       5.259   4.041  19.443  0.00  0.00    +0.000 OA
ATOM      6  H   UNL     1       2.450   3.884  17.980  0.00  0.00    +0.000 HD
BRANCH   4   7
ATOM      7  C   UNL     1       4.878   3.754  17.117  0.00  0.00    +0.000 C 
ATOM      8  C   UNL     1       5.882   4.534  16.689  0.00  0.00    +0.000 C 
BRANCH   8   9
ATOM      9  C   UNL     1       6.338   4.570  15.348  0.00  0.00    +0.000 A 
ATOM     10  C   UNL     1       5.823   3.857  14.269  0.00  0.00    +0.000 A 
ATOM     11  C   UNL     1       6.604   4.159  13.132  0.00  0.00    +0.000 A 
ATOM     12  C   UNL     1       7.560   5.041  13.565  0.00  0.00    +0.000 A 
ATOM     13  O   UNL     1       7.410   5.299  14.889  0.00  0.00    +0.000 OA
ENDBRANCH   8   9
ENDBRANCH   4   7
ENDBRANCH   1   3
BRANCH   1  14
ATOM     14  N   UNL     1       2.929   6.048  20.077  0.00  0.00    +0.000 N 
ATOM     15  H   UNL     1       3.855   6.111  20.501  0.00  0.00    +0.000 HD
BRANCH  14  22
ATOM     16  C   UNL     1       3.304   7.426  17.445  0.00  0.00    +0.000 C 
ATOM     17  C   UNL     1       2.419   7.926  18.557  0.00  0.00    +0.000 A 
ATOM     18  C   UNL     1       1.745   9.145  18.328  0.00  0.00    +0.000 A 
ATOM     19  C   UNL     1       0.907   9.700  19.290  0.00  0.00    +0.000 A 
ATOM     20  C   UNL     1       0.735   9.048  20.501  0.00  0.00    +0.000 A 
ATOM     21  C   UNL     1       1.421   7.857  20.757  0.00  0.00    +0.000 A 
ATOM     22  C   UNL     1       2.290   7.290  19.814  0.00  0.00    +0.000 A 
ENDBRANCH  14  22
ENDBRANCH   1  14
TORSDOF 5
ENDMDL
MODEL 4
REMARK VINA RESULT:      -7.3      4.752      6.005
REMARK  Name = 
REMARK  6 active torsions:
REMARK  status: ('A' for Active; 'I' for Inactive)
REMARK    1  A    between atoms: C_1  and  C_2
REMARK    2  A    between atoms: C_7  and  N_8
REMARK    3  A    between atoms: N_8  and  C_9
REMARK    4  A    between atoms: C_9  and  N_11
REMARK    5  A    between atoms: C_12  and  C_14
REMARK    6  A    between atoms: C_15  and  C_16
REMARK                            x       y       z     vdW  Elec       q    Type
REMARK                         _______ _______ _______ _____ _____    ______ ____
ROOT
ATOM      1  C   UNL     1       3.428   2.840  18.056  0.00  0.00    +0.000 C 
ATOM      2  S   UNL     1       3.571   1.416  18.928  0.00  0.00    +0.000 S 
ENDROOT
BRANCH   1   3
ATOM      3  N   UNL     1       4.497   3.185  17.239  0.00  0.00    +0.000 N 
ATOM      4  C   UNL     1       5.538   4.004  17.608  0.00  0.00    +0.000 C 
ATOM      5  O   UNL     1       5.843   4.200  18.781  0.00  0.00    +0.000 OA
ATOM      6  H   UNL     1       4.416   2.870  16.282  0.00  0.00    +0.000 HD
BRANCH   4   7
ATOM      7  C   UNL     1       6.310   4.610  16.490  0.00  0.00    +0.000 C 
ATOM      8  C   UNL     1       5.956   4.188  15.266  0.00  0.00    +0.000 C 
BRANCH   8   9
ATOM      9  C   UNL     1       6.659   4.519  14.082  0.00  0.00    +0.000 A 
ATOM     10  C   UNL     1       6.503   3.940  12.825  0.00  0.00    +0.000 A 
ATOM     11  C   UNL     1       7.434   4.540  11.949  0.00  0.00    +0.000 A 
ATOM     12  C   UNL     1       8.115   5.458  12.706  0.00  0.00    +0.000 A 
ATOM     13  O   UNL     1       7.659   5.458  13.984  0.00  0.00    +0.000 OA
ENDBRANCH   8   9
ENDBRANCH   4   7
ENDBRANCH   1   3
BRANCH   1  14
ATOM     14  N   UNL     1       2.361   3.726  18.054  0.00  0.00    +0.000 N 
ATOM     15  H   UNL     1       1.554   3.409  17.516  0.00  0.00    +0.000 HD
BRANCH  14  22
ATOM     16  C   UNL     1       1.335   3.852  20.865  0.00  0.00    +0.000 C 
ATOM     17  C   UNL     1       1.771   5.046  20.056  0.00  0.00    +0.000 A 
ATOM     18  C   UNL     1       1.658   6.307  20.679  0.00  0.00    +0.000 A 
ATOM     19  C   UNL     1       2.026   7.476  20.020  0.00  0.00    +0.000 A 
ATOM     20  C   UNL     1       2.508   7.404  18.722  0.00  0.00    +0.000 A 
ATOM     21  C   UNL     1       2.595   6.166  18.078  0.00  0.00    +0.000 A 
ATOM     22  C   UNL     1       2.206   4.976  18.711  0.00  0.00    +0.000 A 
ENDBRANCH  14  22
ENDBRANCH   1  14
TORSDOF 5
ENDMDL
MODEL 5
REMARK VINA RESULT:      -7.2      4.916      6.326
REMARK  Name = 
REMARK  6 active torsions:
REMARK  status: ('A' for Active; 'I' for Inactive)
REMARK    1  A    between atoms: C_1  and  C_2
REMARK    2  A    between atoms: C_7  and  N_8
REMARK    3  A    between atoms: N_8  and  C_9
REMARK    4  A    between atoms: C_9  and  N_11
REMARK    5  A    between atoms: C_12  and  C_14
REMARK    6  A    between atoms: C_15  and  C_16
REMARK                            x       y       z     vdW  Elec       q    Type
REMARK                         _______ _______ _______ _____ _____    ______ ____
ROOT
ATOM      1  C   UNL     1       2.539   4.838  19.888  0.00  0.00    +0.000 C 
ATOM      2  S   UNL     1       1.456   3.890  20.747  0.00  0.00    +0.000 S 
ENDROOT
BRANCH   1   3
ATOM      3  N   UNL     1       3.221   4.223  18.846  0.00  0.00    +0.000 N 
ATOM      4  C   UNL     1       4.544   4.436  18.537  0.00  0.00    +0.000 C 
ATOM      5  O   UNL     1       5.353   4.873  19.350  0.00  0.00    +0.000 OA
ATOM      6  H   UNL     1       2.643   3.661  18.236  0.00  0.00    +0.000 HD
BRANCH   4   7
ATOM      7  C   UNL     1       4.952   4.061  17.156  0.00  0.00    +0.000 C 
ATOM      8  C   UNL     1       5.947   4.801  16.642  0.00  0.00    +0.000 C 
BRANCH   8   9
ATOM      9  C   UNL     1       6.382   4.714  15.297  0.00  0.00    +0.000 A 
ATOM     10  C   UNL     1       5.782   3.995  14.266  0.00  0.00    +0.000 A 
ATOM     11  C   UNL     1       6.571   4.152  13.106  0.00  0.00    +0.000 A 
ATOM     12  C   UNL     1       7.615   4.960  13.476  0.00  0.00    +0.000 A 
ATOM     13  O   UNL     1       7.512   5.307  14.784  0.00  0.00    +0.000 OA
ENDBRANCH   8   9
ENDBRANCH   4   7
ENDBRANCH   1   3
BRANCH   1  14
ATOM     14  N   UNL     1       2.841   6.176  20.096  0.00  0.00    +0.000 N 
ATOM     15  H   UNL     1       3.577   6.337  20.784  0.00  0.00    +0.000 HD
BRANCH  14  22
ATOM     16  C   UNL     1       1.036   8.026  21.609  0.00  0.00    +0.000 C 
ATOM     17  C   UNL     1       1.503   8.249  20.194  0.00  0.00    +0.000 A 
ATOM     18  C   UNL     1       1.026   9.409  19.546  0.00  0.00    +0.000 A 
ATOM     19  C   UNL     1       1.389   9.709  18.237  0.00  0.00    +0.000 A 
ATOM     20  C   UNL     1       2.232   8.849  17.551  0.00  0.00    +0.000 A 
ATOM     21  C   UNL     1       2.687   7.679  18.166  0.00  0.00    +0.000 A 
ATOM     22  C   UNL     1       2.315   7.341  19.475  0.00  0.00    +0.000 A 
ENDBRANCH  14  22
ENDBRANCH   1  14
TORSDOF 5
ENDMDL
MODEL 6
REMARK VINA RESULT:      -7.1      1.313      1.555
REMARK  Name = 
REMARK  6 active torsions:
REMARK  status: ('A' for Active; 'I' for Inactive)
REMARK    1  A    between atoms: C_1  and  C_2
REMARK    2  A    between atoms: C_7  and  N_8
REMARK    3  A    between atoms: N_8  and  C_9
REMARK    4  A    between atoms: C_9  and  N_11
REMARK    5  A    between atoms: C_12  and  C_14
REMARK    6  A    between atoms: C_15  and  C_16
REMARK                            x       y       z     vdW  Elec       q    Type
REMARK                         _______ _______ _______ _____ _____    ______ ____
ROOT
ATOM      1  C   UNL     1       5.674   6.058  16.134  0.00  0.00    +0.000 C 
ATOM      2  S   UNL     1       6.166   4.935  14.992  0.00  0.00    +0.000 S 
ENDROOT
BRANCH   1   3
ATOM      3  N   UNL     1       6.661   6.863  16.688  0.00  0.00    +0.000 N 
ATOM      4  C   UNL     1       7.475   6.502  17.735  0.00  0.00    +0.000 C 
ATOM      5  O   UNL     1       7.689   5.332  18.036  0.00  0.00    +0.000 OA
ATOM      6  H   UNL     1       6.685   7.809  16.331  0.00  0.00    +0.000 HD
BRANCH   4   7
ATOM      7  C   UNL     1       8.123   7.625  18.466  0.00  0.00    +0.000 C 
ATOM      8  C   UNL     1       8.002   8.825  17.877  0.00  0.00    +0.000 C 
BRANCH   8   9
ATOM      9  C   UNL     1       8.670   9.993  18.319  0.00  0.00    +0.000 A 
ATOM     10  C   UNL     1       9.419  10.140  19.483  0.00  0.00    +0.000 A 
ATOM     11  C   UNL     1       9.864  11.478  19.551  0.00  0.00    +0.000 A 
ATOM     12  C   UNL     1       9.370  12.089  18.428  0.00  0.00    +0.000 A 
ATOM     13  O   UNL     1       8.655  11.211  17.679  0.00  0.00    +0.000 OA
ENDBRANCH   8   9
ENDBRANCH   4   7
ENDBRANCH   1   3
BRANCH   1  14
ATOM     14  N   UNL     1       4.387   6.282  16.599  0.00  0.00    +0.000 N 
ATOM     15  H   UNL     1       3.760   6.701  15.912  0.00  0.00    +0.000 HD
BRANCH  14  22
ATOM     16  C   UNL     1       2.584   8.257  17.949  0.00  0.00    +0.000 C 
ATOM     17  C   UNL     1       2.910   6.886  18.484  0.00  0.00    +0.000 A 
ATOM     18  C   UNL     1       2.331   6.537  19.723  0.00  0.00    +0.000 A 
ATOM     19  C   UNL     1       2.570   5.299  20.311  0.00  0.00    +0.000 A 
ATOM     20  C   UNL     1       3.399   4.391  19.672  0.00  0.00    +0.000 A 
ATOM     21  C   UNL     1       4.008   4.733  18.460  0.00  0.00    +0.000 A 
ATOM     22  C   UNL     1       3.803   5.984  17.860  0.00  0.00    +0.000 A 
ENDBRANCH  14  22
ENDBRANCH   1  14
TORSDOF 5
ENDMDL
MODEL 7
REMARK VINA RESULT:      -7.0      4.128      6.521
REMARK  Name = 
REMARK  6 active torsions:
REMARK  status: ('A' for Active; 'I' for Inactive)
REMARK    1  A    between atoms: C_1  and  C_2
REMARK    2  A    between atoms: C_7  and  N_8
REMARK    3  A    between atoms: N_8  and  C_9
REMARK    4  A    between atoms: C_9  and  N_11
REMARK    5  A    between atoms: C_12  and  C_14
REMARK    6  A    between atoms: C_15  and  C_16
REMARK                            x       y       z     vdW  Elec       q    Type
REMARK                         _______ _______ _______ _____ _____    ______ ____
ROOT
ATOM      1  C   UNL     1       6.788   4.633  18.348  0.00  0.00    +0.000 C 
ATOM      2  S   UNL     1       7.700   5.778  19.165  0.00  0.00    +0.000 S 
ENDROOT
BRANCH   1   3
ATOM      3  N   UNL     1       7.121   4.399  17.020  0.00  0.00    +0.000 N 
ATOM      4  C   UNL     1       6.956   5.301  15.997  0.00  0.00    +0.000 C 
ATOM      5  O   UNL     1       6.871   6.511  16.186  0.00  0.00    +0.000 OA
ATOM      6  H   UNL     1       7.410   3.451  16.818  0.00  0.00    +0.000 HD
BRANCH   4   7
ATOM      7  C   UNL     1       6.930   4.724  14.625  0.00  0.00    +0.000 C 
ATOM      8  C   UNL     1       5.730   4.274  14.226  0.00  0.00    +0.000 C 
BRANCH   8   9
ATOM      9  C   UNL     1       5.517   3.552  13.025  0.00  0.00    +0.000 A 
ATOM     10  C   UNL     1       4.425   3.657  12.167  0.00  0.00    +0.000 A 
ATOM     11  C   UNL     1       4.601   2.726  11.121  0.00  0.00    +0.000 A 
ATOM     12  C   UNL     1       5.789   2.095  11.383  0.00  0.00    +0.000 A 
ATOM     13  O   UNL     1       6.351   2.583  12.518  0.00  0.00    +0.000 OA
ENDBRANCH   8   9
ENDBRANCH   4   7
ENDBRANCH   1   3
BRANCH   1  14
ATOM     14  N   UNL     1       5.730   3.886  18.843  0.00  0.00    +0.000 N 
ATOM     15  H   UNL     1       5.966   3.309  19.650  0.00  0.00    +0.000 HD
BRANCH  14  22
ATOM     16  C   UNL     1       3.990   6.318  19.001  0.00  0.00    +0.000 C 
ATOM     17  C   UNL     1       3.555   4.986  18.449  0.00  0.00    +0.000 A 
ATOM     18  C   UNL     1       2.220   4.894  18.000  0.00  0.00    +0.000 A 
ATOM     19  C   UNL     1       1.712   3.708  17.477  0.00  0.00    +0.000 A 
ATOM     20  C   UNL     1       2.530   2.592  17.401  0.00  0.00    +0.000 A 
ATOM     21  C   UNL     1       3.845   2.657  17.872  0.00  0.00    +0.000 A 
ATOM     22  C   UNL     1       4.372   3.832  18.426  0.00  0.00    +0.000 A 
ENDBRANCH  14  22
ENDBRANCH   1  14
TORSDOF 5
ENDMDL
MODEL 8
REMARK VINA RESULT:      -7.0      1.364      1.694
REMARK  Name = 
REMARK  6 active torsions:
REMARK  status: ('A' for Active; 'I' for Inactive)
REMARK    1  A    between atoms: C_1  and  C_2
REMARK    2  A    between atoms: C_7  and  N_8
REMARK    3  A    between atoms: N_8  and  C_9
REMARK    4  A    between atoms: C_9  and  N_11
REMARK    5  A    between atoms: C_12  and  C_14
REMARK    6  A    between atoms: C_15  and  C_16
REMARK                            x       y       z     vdW  Elec       q    Type
REMARK                         _______ _______ _______ _____ _____    ______ ____
ROOT
ATOM      1  C   UNL     1       5.821   5.229  15.734  0.00  0.00    +0.000 C 
ATOM      2  S   UNL     1       6.538   4.453  14.434  0.00  0.00    +0.000 S 
ENDROOT
BRANCH   1   3
ATOM      3  N   UNL     1       6.588   6.173  16.402  0.00  0.00    +0.000 N 
ATOM      4  C   UNL     1       7.428   5.902  17.457  0.00  0.00    +0.000 C 
ATOM      5  O   UNL     1       7.885   4.784  17.670  0.00  0.00    +0.000 OA
ATOM      6  H   UNL     1       6.415   7.131  16.127  0.00  0.00    +0.000 HD
BRANCH   4   7
ATOM      7  C   UNL     1       7.789   7.067  18.310  0.00  0.00    +0.000 C 
ATOM      8  C   UNL     1       8.002   8.211  17.641  0.00  0.00    +0.000 C 
BRANCH   8   9
ATOM      9  C   UNL     1       8.503   9.394  18.238  0.00  0.00    +0.000 A 
ATOM     10  C   UNL     1       8.483  10.678  17.700  0.00  0.00    +0.000 A 
ATOM     11  C   UNL     1       9.126  11.544  18.611  0.00  0.00    +0.000 A 
ATOM     12  C   UNL     1       9.509  10.754  19.664  0.00  0.00    +0.000 A 
ATOM     13  O   UNL     1       9.139   9.465  19.456  0.00  0.00    +0.000 OA
ENDBRANCH   8   9
ENDBRANCH   4   7
ENDBRANCH   1   3
BRANCH   1  14
ATOM     14  N   UNL     1       4.540   5.037  16.230  0.00  0.00    +0.000 N 
ATOM     15  H   UNL     1       3.821   4.951  15.511  0.00  0.00    +0.000 HD
BRANCH  14  22
ATOM     16  C   UNL     1       3.492   7.410  17.727  0.00  0.00    +0.000 C 
ATOM     17  C   UNL     1       3.542   6.006  18.271  0.00  0.00    +0.000 A 
ATOM     18  C   UNL     1       3.077   5.822  19.591  0.00  0.00    +0.000 A 
ATOM     19  C   UNL     1       3.084   4.568  20.193  0.00  0.00    +0.000 A 
ATOM     20  C   UNL     1       3.564   3.476  19.487  0.00  0.00    +0.000 A 
ATOM     21  C   UNL     1       4.059   3.646  18.190  0.00  0.00    +0.000 A 
ATOM     22  C   UNL     1       4.086   4.904  17.570  0.00  0.00    +0.000 A 
ENDBRANCH  14  22
ENDBRANCH   1  14
TORSDOF 5
ENDMDL
MODEL 9
REMARK VINA RESULT:      -7.0      1.629      2.483
REMARK  Name = 
REMARK  6 active torsions:
REMARK  status: ('A' for Active; 'I' for Inactive)
REMARK    1  A    between atoms: C_1  and  C_2
REMARK    2  A    between atoms: C_7  and  N_8
REMARK    3  A    between atoms: N_8  and  C_9
REMARK    4  A    between atoms: C_9  and  N_11
REMARK    5  A    between atoms: C_12  and  C_14
REMARK    6  A    between atoms: C_15  and  C_16
REMARK                            x       y       z     vdW  Elec       q    Type
REMARK                         _______ _______ _______ _____ _____    ______ ____
ROOT
ATOM      1  C   UNL     1       5.261   4.632  17.116  0.00  0.00    +0.000 C 
ATOM      2  S   UNL     1       5.062   4.273  15.491  0.00  0.00    +0.000 S 
ENDROOT
BRANCH   1   3
ATOM      3  N   UNL     1       6.032   5.745  17.422  0.00  0.00    +0.000 N 
ATOM      4  C   UNL     1       7.346   5.707  17.824  0.00  0.00    +0.000 C 
ATOM      5  O   UNL     1       8.084   4.755  17.588  0.00  0.00    +0.000 OA
ATOM      6  H   UNL     1       5.526   6.621  17.432  0.00  0.00    +0.000 HD
BRANCH   4   7
ATOM      7  C   UNL     1       7.841   6.919  18.532  0.00  0.00    +0.000 C 
ATOM      8  C   UNL     1       7.875   8.034  17.785  0.00  0.00    +0.000 C 
BRANCH   8   9
ATOM      9  C   UNL     1       8.452   9.254  18.213  0.00  0.00    +0.000 A 
ATOM     10  C   UNL     1       8.346  10.495  17.591  0.00  0.00    +0.000 A 
ATOM     11  C   UNL     1       9.111  11.423  18.331  0.00  0.00    +0.000 A 
ATOM     12  C   UNL     1       9.649  10.710  19.371  0.00  0.00    +0.000 A 
ATOM     13  O   UNL     1       9.259   9.411  19.315  0.00  0.00    +0.000 OA
ENDBRANCH   8   9
ENDBRANCH   4   7
ENDBRANCH   1   3
BRANCH   1  14
ATOM     14  N   UNL     1       4.746   3.941  18.203  0.00  0.00    +0.000 N 
ATOM     15  H   UNL     1       5.374   3.233  18.585  0.00  0.00    +0.000 HD
BRANCH  14  22
ATOM     16  C   UNL     1       2.519   1.985  17.773  0.00  0.00    +0.000 C 
ATOM     17  C   UNL     1       2.467   3.149  18.727  0.00  0.00    +0.000 A 
ATOM     18  C   UNL     1       1.264   3.325  19.444  0.00  0.00    +0.000 A 
ATOM     19  C   UNL     1       1.105   4.372  20.347  0.00  0.00    +0.000 A 
ATOM     20  C   UNL     1       2.146   5.265  20.543  0.00  0.00    +0.000 A 
ATOM     21  C   UNL     1       3.333   5.126  19.817  0.00  0.00    +0.000 A 
ATOM     22  C   UNL     1       3.508   4.095  18.883  0.00  0.00    +0.000 A 
ENDBRANCH  14  22
ENDBRANCH   1  14
TORSDOF 5
ENDMDL
