MODEL 1
REMARK VINA RESULT:      -8.4      0.000      0.000
REMARK  Name = 
REMARK  7 active torsions:
REMARK  status: ('A' for Active; 'I' for Inactive)
REMARK    1  A    between atoms: C_1  and  C_2
REMARK    2  A    between atoms: C_2  and  O_3
REMARK    3  A    between atoms: O_3  and  C_4
REMARK    4  A    between atoms: C_7  and  O_8
REMARK    5  A    between atoms: O_8  and  C_9
REMARK    6  A    between atoms: C_9  and  C_10
REMARK    7  A    between atoms: C_11  and  N_12
REMARK                            x       y       z     vdW  Elec       q    Type
REMARK                         _______ _______ _______ _____ _____    ______ ____
ROOT
ATOM      1  N   UNL     1       5.137   3.752  17.956  0.00  0.00    +0.000 N 
ATOM      2  C   UNL     1       4.194   4.468  18.673  0.00  0.00    +0.000 A 
ATOM      3  N   UNL     1       3.926   5.730  18.434  0.00  0.00    +0.000 NA
ATOM      4  C   UNL     1       2.967   6.426  19.203  0.00  0.00    +0.000 A 
ATOM      5  C   UNL     1       2.709   7.764  18.902  0.00  0.00    +0.000 A 
ATOM      6  C   UNL     1       1.721   8.469  19.596  0.00  0.00    +0.000 A 
ATOM      7  C   UNL     1       0.980   7.832  20.594  0.00  0.00    +0.000 A 
ATOM      8 CL   UNL     1      -0.298   8.680  21.375  0.00  0.00    +0.000 Cl
ATOM      9  C   UNL     1       1.250   6.512  20.954  0.00  0.00    +0.000 A 
ATOM     10  C   UNL     1       2.256   5.836  20.265  0.00  0.00    +0.000 A 
ATOM     11  N   UNL     1       2.623   4.522  20.557  0.00  0.00    +0.000 N 
ATOM     12  C   UNL     1       2.330   3.681  21.587  0.00  0.00    +0.000 A 
ATOM     13  N   UNL     1       2.874   2.504  21.357  0.00  0.00    +0.000 NA
ATOM     14  N   UNL     1       3.615   2.598  20.194  0.00  0.00    +0.000 NA
ATOM     15  C   UNL     1       3.499   3.838  19.773  0.00  0.00    +0.000 A 
ATOM     16  H   UNL     1       5.300   2.799  18.242  0.00  0.00    +0.000 HD
ENDROOT
BRANCH   1  21
ATOM     17  C   UNL     1       5.671   4.155  14.301  0.00  0.00    +0.000 A 
ATOM     18  C   UNL     1       6.940   4.724  14.279  0.00  0.00    +0.000 A 
ATOM     19  C   UNL     1       7.613   4.983  15.473  0.00  0.00    +0.000 A 
ATOM     20  C   UNL     1       7.022   4.688  16.708  0.00  0.00    +0.000 A 
ATOM     21  C   UNL     1       5.735   4.125  16.744  0.00  0.00    +0.000 A 
ATOM     22  C   UNL     1       5.059   3.902  15.528  0.00  0.00    +0.000 A 
BRANCH  17  23
ATOM     23  O   UNL     1       5.131   3.875  13.076  0.00  0.00    +0.000 OA
BRANCH  23  25
ATOM     24  C   UNL     1       5.536   2.089  11.543  0.00  0.00    +0.000 C 
ATOM     25  C   UNL     1       6.045   3.416  12.076  0.00  0.00    +0.000 C 
ENDBRANCH  23  25
ENDBRANCH  17  23
BRANCH  20  26
ATOM     26  O   UNL     1       7.833   4.957  17.781  0.00  0.00    +0.000 OA
BRANCH  26  27
ATOM     27  C   UNL     1       7.551   6.129  18.548  0.00  0.00    +0.000 C 
ATOM     28  C   UNL     1       7.518   7.319  17.603  0.00  0.00    +0.000 C 
ENDBRANCH  26  27
ENDBRANCH  20  26
ENDBRANCH   1  21
TORSDOF 5
ENDMDL
MODEL 2
REMARK VINA RESULT:      -8.2      1.257      1.514
REMARK  Name = 
REMARK  7 active torsions:
REMARK  status: ('A' for Active; 'I' for Inactive)
REMARK    1  A    between atoms: C_1  and  C_2
REMARK    2  A    between atoms: C_2  and  O_3
REMARK    3  A    between atoms: O_3  and  C_4
REMARK    4  A    between atoms: C_7  and  O_8
REMARK    5  A    between atoms: O_8  and  C_9
REMARK    6  A    between atoms: C_9  and  C_10
REMARK    7  A    between atoms: C_11  and  N_12
REMARK                            x       y       z     vdW  Elec       q    Type
REMARK                         _______ _______ _______ _____ _____    ______ ____
ROOT
ATOM      1  N   UNL     1       5.322   3.550  16.552  0.00  0.00    +0.000 N 
ATOM      2  C   UNL     1       4.507   4.309  17.373  0.00  0.00    +0.000 A 
ATOM      3  N   UNL     1       4.310   5.593  17.189  0.00  0.00    +0.000 NA
ATOM      4  C   UNL     1       3.482   6.332  18.062  0.00  0.00    +0.000 A 
ATOM      5  C   UNL     1       3.294   7.693  17.817  0.00  0.00    +0.000 A 
ATOM      6  C   UNL     1       2.431   8.446  18.620  0.00  0.00    +0.000 A 
ATOM      7  C   UNL     1       1.745   7.834  19.671  0.00  0.00    +0.000 A 
ATOM      8 CL   UNL     1       0.613   8.747  20.592  0.00  0.00    +0.000 Cl
ATOM      9  C   UNL     1       1.953   6.489  19.975  0.00  0.00    +0.000 A 
ATOM     10  C   UNL     1       2.836   5.764  19.176  0.00  0.00    +0.000 A 
ATOM     11  N   UNL     1       3.133   4.419  19.403  0.00  0.00    +0.000 N 
ATOM     12  C   UNL     1       2.881   3.573  20.438  0.00  0.00    +0.000 A 
ATOM     13  N   UNL     1       3.313   2.367  20.131  0.00  0.00    +0.000 NA
ATOM     14  N   UNL     1       3.944   2.442  18.903  0.00  0.00    +0.000 NA
ATOM     15  C   UNL     1       3.877   3.699  18.522  0.00  0.00    +0.000 A 
ATOM     16  H   UNL     1       5.443   2.580  16.800  0.00  0.00    +0.000 HD
ENDROOT
BRANCH   1  21
ATOM     17  C   UNL     1       5.742   3.694  12.863  0.00  0.00    +0.000 A 
ATOM     18  C   UNL     1       6.872   4.498  12.754  0.00  0.00    +0.000 A 
ATOM     19  C   UNL     1       7.487   4.999  13.902  0.00  0.00    +0.000 A 
ATOM     20  C   UNL     1       6.975   4.714  15.173  0.00  0.00    +0.000 A 
ATOM     21  C   UNL     1       5.826   3.914  15.295  0.00  0.00    +0.000 A 
ATOM     22  C   UNL     1       5.201   3.445  14.123  0.00  0.00    +0.000 A 
BRANCH  17  23
ATOM     23  O   UNL     1       5.260   3.195  11.683  0.00  0.00    +0.000 OA
BRANCH  23  25
ATOM     24  C   UNL     1       3.490   3.721  10.168  0.00  0.00    +0.000 C 
ATOM     25  C   UNL     1       3.836   3.179  11.543  0.00  0.00    +0.000 C 
ENDBRANCH  23  25
ENDBRANCH  17  23
BRANCH  20  26
ATOM     26  O   UNL     1       7.723   5.241  16.195  0.00  0.00    +0.000 OA
BRANCH  26  27
ATOM     27  C   UNL     1       7.359   6.532  16.687  0.00  0.00    +0.000 C 
ATOM     28  C   UNL     1       7.665   6.578  18.174  0.00  0.00    +0.000 C 
ENDBRANCH  26  27
ENDBRANCH  20  26
ENDBRANCH   1  21
TORSDOF 5
ENDMDL
MODEL 3
REMARK VINA RESULT:      -7.7      1.041      1.320
REMARK  Name = 
REMARK  7 active torsions:
REMARK  status: ('A' for Active; 'I' for Inactive)
REMARK    1  A    between atoms: C_1  and  C_2
REMARK    2  A    between atoms: C_2  and  O_3
REMARK    3  A    between atoms: O_3  and  C_4
REMARK    4  A    between atoms: C_7  and  O_8
REMARK    5  A    between atoms: O_8  and  C_9
REMARK    6  A    between atoms: C_9  and  C_10
REMARK    7  A    between atoms: C_11  and  N_12
REMARK                            x       y       z     vdW  Elec       q    Type
REMARK                         _______ _______ _______ _____ _____    ______ ____
ROOT
ATOM      1  N   UNL     1       4.862   4.567  17.798  0.00  0.00    +0.000 N 
ATOM      2  C   UNL     1       3.953   5.499  18.268  0.00  0.00    +0.000 A 
ATOM      3  N   UNL     1       3.838   6.701  17.754  0.00  0.00    +0.000 NA
ATOM      4  C   UNL     1       2.907   7.626  18.276  0.00  0.00    +0.000 A 
ATOM      5  C   UNL     1       2.813   8.888  17.688  0.00  0.00    +0.000 A 
ATOM      6  C   UNL     1       1.860   9.809  18.134  0.00  0.00    +0.000 A 
ATOM      7  C   UNL     1       0.988   9.465  19.170  0.00  0.00    +0.000 A 
ATOM      8 CL   UNL     1      -0.243  10.569  19.645  0.00  0.00    +0.000 Cl
ATOM      9  C   UNL     1       1.093   8.232  19.813  0.00  0.00    +0.000 A 
ATOM     10  C   UNL     1       2.066   7.339  19.368  0.00  0.00    +0.000 A 
ATOM     11  N   UNL     1       2.271   6.089  19.953  0.00  0.00    +0.000 N 
ATOM     12  C   UNL     1       1.821   5.514  21.102  0.00  0.00    +0.000 A 
ATOM     13  N   UNL     1       2.252   4.271  21.166  0.00  0.00    +0.000 NA
ATOM     14  N   UNL     1       3.077   4.052  20.079  0.00  0.00    +0.000 NA
ATOM     15  C   UNL     1       3.122   5.180  19.405  0.00  0.00    +0.000 A 
ATOM     16  H   UNL     1       4.904   3.685  18.285  0.00  0.00    +0.000 HD
ENDROOT
BRANCH   1  21
ATOM     17  C   UNL     1       5.646   4.240  14.180  0.00  0.00    +0.000 A 
ATOM     18  C   UNL     1       6.995   4.577  14.169  0.00  0.00    +0.000 A 
ATOM     19  C   UNL     1       7.642   4.921  15.356  0.00  0.00    +0.000 A 
ATOM     20  C   UNL     1       6.945   4.946  16.571  0.00  0.00    +0.000 A 
ATOM     21  C   UNL     1       5.578   4.620  16.593  0.00  0.00    +0.000 A 
ATOM     22  C   UNL     1       4.937   4.308  15.379  0.00  0.00    +0.000 A 
BRANCH  17  23
ATOM     23  O   UNL     1       5.127   3.849  12.976  0.00  0.00    +0.000 OA
BRANCH  23  25
ATOM     24  C   UNL     1       5.521   2.015  11.497  0.00  0.00    +0.000 C 
ATOM     25  C   UNL     1       6.064   3.330  12.028  0.00  0.00    +0.000 C 
ENDBRANCH  23  25
ENDBRANCH  17  23
BRANCH  20  26
ATOM     26  O   UNL     1       7.735   5.256  17.649  0.00  0.00    +0.000 OA
BRANCH  26  27
ATOM     27  C   UNL     1       7.434   6.451  18.370  0.00  0.00    +0.000 C 
ATOM     28  C   UNL     1       7.548   7.626  17.412  0.00  0.00    +0.000 C 
ENDBRANCH  26  27
ENDBRANCH  20  26
ENDBRANCH   1  21
TORSDOF 5
ENDMDL
MODEL 4
REMARK VINA RESULT:      -7.7      0.954      1.003
REMARK  Name = 
REMARK  7 active torsions:
REMARK  status: ('A' for Active; 'I' for Inactive)
REMARK    1  A    between atoms: C_1  and  C_2
REMARK    2  A    between atoms: C_2  and  O_3
REMARK    3  A    between atoms: O_3  and  C_4
REMARK    4  A    between atoms: C_7  and  O_8
REMARK    5  A    between atoms: O_8  and  C_9
REMARK    6  A    between atoms: C_9  and  C_10
REMARK    7  A    between atoms: C_11  and  N_12
REMARK                            x       y       z     vdW  Elec       q    Type
REMARK                         _______ _______ _______ _____ _____    ______ ____
ROOT
ATOM      1  N   UNL     1       5.149   3.891  17.240  0.00  0.00    +0.000 N 
ATOM      2  C   UNL     1       4.274   4.694  17.950  0.00  0.00    +0.000 A 
ATOM      3  N   UNL     1       4.071   5.957  17.657  0.00  0.00    +0.000 NA
ATOM      4  C   UNL     1       3.179   6.744  18.420  0.00  0.00    +0.000 A 
ATOM      5  C   UNL     1       2.989   8.079  18.062  0.00  0.00    +0.000 A 
ATOM      6  C   UNL     1       2.066   8.873  18.751  0.00  0.00    +0.000 A 
ATOM      7  C   UNL     1       1.324   8.328  19.801  0.00  0.00    +0.000 A 
ATOM      8 CL   UNL     1       0.124   9.286  20.578  0.00  0.00    +0.000 Cl
ATOM      9  C   UNL     1       1.531   7.013  20.217  0.00  0.00    +0.000 A 
ATOM     10  C   UNL     1       2.472   6.248  19.531  0.00  0.00    +0.000 A 
ATOM     11  N   UNL     1       2.773   4.929  19.876  0.00  0.00    +0.000 N 
ATOM     12  C   UNL     1       2.467   4.157  20.954  0.00  0.00    +0.000 A 
ATOM     13  N   UNL     1       2.935   2.940  20.766  0.00  0.00    +0.000 NA
ATOM     14  N   UNL     1       3.641   2.936  19.578  0.00  0.00    +0.000 NA
ATOM     15  C   UNL     1       3.581   4.159  19.100  0.00  0.00    +0.000 A 
ATOM     16  H   UNL     1       5.268   2.945  17.567  0.00  0.00    +0.000 HD
ENDROOT
BRANCH   1  21
ATOM     17  C   UNL     1       5.806   3.760  13.585  0.00  0.00    +0.000 A 
ATOM     18  C   UNL     1       6.923   4.583  13.486  0.00  0.00    +0.000 A 
ATOM     19  C   UNL     1       7.452   5.188  14.626  0.00  0.00    +0.000 A 
ATOM     20  C   UNL     1       6.863   4.989  15.881  0.00  0.00    +0.000 A 
ATOM     21  C   UNL     1       5.727   4.170  15.993  0.00  0.00    +0.000 A 
ATOM     22  C   UNL     1       5.189   3.596  14.824  0.00  0.00    +0.000 A 
BRANCH  17  23
ATOM     23  O   UNL     1       5.413   3.159  12.420  0.00  0.00    +0.000 OA
BRANCH  23  25
ATOM     24  C   UNL     1       6.109   1.211  11.227  0.00  0.00    +0.000 C 
ATOM     25  C   UNL     1       6.461   2.640  11.597  0.00  0.00    +0.000 C 
ENDBRANCH  23  25
ENDBRANCH  17  23
BRANCH  20  26
ATOM     26  O   UNL     1       7.532   5.613  16.904  0.00  0.00    +0.000 OA
BRANCH  26  27
ATOM     27  C   UNL     1       7.872   4.831  18.049  0.00  0.00    +0.000 C 
ATOM     28  C   UNL     1       7.818   5.730  19.273  0.00  0.00    +0.000 C 
ENDBRANCH  26  27
ENDBRANCH  20  26
ENDBRANCH   1  21
TORSDOF 5
ENDMDL
MODEL 5
REMARK VINA RESULT:      -7.3      1.114      1.151
REMARK  Name = 
REMARK  7 active torsions:
REMARK  status: ('A' for Active; 'I' for Inactive)
REMARK    1  A    between atoms: C_1  and  C_2
REMARK    2  A    between atoms: C_2  and  O_3
REMARK    3  A    between atoms: O_3  and  C_4
REMARK    4  A    between atoms: C_7  and  O_8
REMARK    5  A    between atoms: O_8  and  C_9
REMARK    6  A    between atoms: C_9  and  C_10
REMARK    7  A    between atoms: C_11  and  N_12
REMARK                            x       y       z     vdW  Elec       q    Type
REMARK                         _______ _______ _______ _____ _____    ______ ____
ROOT
ATOM      1  N   UNL     1       4.873   3.250  16.929  0.00  0.00    +0.000 N 
ATOM      2  C   UNL     1       3.997   3.892  17.787  0.00  0.00    +0.000 A 
ATOM      3  N   UNL     1       3.981   5.195  17.944  0.00  0.00    +0.000 NA
ATOM      4  C   UNL     1       3.080   5.806  18.843  0.00  0.00    +0.000 A 
ATOM      5  C   UNL     1       3.095   7.196  18.966  0.00  0.00    +0.000 A 
ATOM      6  C   UNL     1       2.175   7.844  19.797  0.00  0.00    +0.000 A 
ATOM      7  C   UNL     1       1.229   7.099  20.505  0.00  0.00    +0.000 A 
ATOM      8 CL   UNL     1       0.041   7.912  21.449  0.00  0.00    +0.000 Cl
ATOM      9  C   UNL     1       1.224   5.706  20.445  0.00  0.00    +0.000 A 
ATOM     10  C   UNL     1       2.165   5.080  19.629  0.00  0.00    +0.000 A 
ATOM     11  N   UNL     1       2.263   3.693  19.511  0.00  0.00    +0.000 N 
ATOM     12  C   UNL     1       1.717   2.660  20.208  0.00  0.00    +0.000 A 
ATOM     13  N   UNL     1       2.068   1.521  19.647  0.00  0.00    +0.000 NA
ATOM     14  N   UNL     1       2.937   1.809  18.611  0.00  0.00    +0.000 NA
ATOM     15  C   UNL     1       3.086   3.115  18.596  0.00  0.00    +0.000 A 
ATOM     16  H   UNL     1       4.835   2.243  16.908  0.00  0.00    +0.000 HD
ENDROOT
BRANCH   1  21
ATOM     17  C   UNL     1       6.192   4.071  13.554  0.00  0.00    +0.000 A 
ATOM     18  C   UNL     1       7.272   4.885  13.881  0.00  0.00    +0.000 A 
ATOM     19  C   UNL     1       7.556   5.169  15.217  0.00  0.00    +0.000 A 
ATOM     20  C   UNL     1       6.757   4.653  16.245  0.00  0.00    +0.000 A 
ATOM     21  C   UNL     1       5.656   3.841  15.927  0.00  0.00    +0.000 A 
ATOM     22  C   UNL     1       5.367   3.594  14.570  0.00  0.00    +0.000 A 
BRANCH  17  23
ATOM     23  O   UNL     1       6.045   3.796  12.222  0.00  0.00    +0.000 OA
BRANCH  23  25
ATOM     24  C   UNL     1       3.998   3.253  11.118  0.00  0.00    +0.000 C 
ATOM     25  C   UNL     1       5.180   2.705  11.897  0.00  0.00    +0.000 C 
ENDBRANCH  23  25
ENDBRANCH  17  23
BRANCH  20  26
ATOM     26  O   UNL     1       7.199   4.986  17.500  0.00  0.00    +0.000 OA
BRANCH  26  27
ATOM     27  C   UNL     1       7.669   6.319  17.706  0.00  0.00    +0.000 C 
ATOM     28  C   UNL     1       6.519   7.275  17.438  0.00  0.00    +0.000 C 
ENDBRANCH  26  27
ENDBRANCH  20  26
ENDBRANCH   1  21
TORSDOF 5
ENDMDL
MODEL 6
REMARK VINA RESULT:      -7.0      3.516      5.864
REMARK  Name = 
REMARK  7 active torsions:
REMARK  status: ('A' for Active; 'I' for Inactive)
REMARK    1  A    between atoms: C_1  and  C_2
REMARK    2  A    between atoms: C_2  and  O_3
REMARK    3  A    between atoms: O_3  and  C_4
REMARK    4  A    between atoms: C_7  and  O_8
REMARK    5  A    between atoms: O_8  and  C_9
REMARK    6  A    between atoms: C_9  and  C_10
REMARK    7  A    between atoms: C_11  and  N_12
REMARK                            x       y       z     vdW  Elec       q    Type
REMARK                         _______ _______ _______ _____ _____    ______ ____
ROOT
ATOM      1  N   UNL     1       2.937   8.098  17.779  0.00  0.00    +0.000 N 
ATOM      2  C   UNL     1       2.187   8.864  18.653  0.00  0.00    +0.000 A 
ATOM      3  N   UNL     1       1.486   8.345  19.633  0.00  0.00    +0.000 NA
ATOM      4  C   UNL     1       0.722   9.166  20.492  0.00  0.00    +0.000 A 
ATOM      5  C   UNL     1       0.002   8.566  21.526  0.00  0.00    +0.000 A 
ATOM      6  C   UNL     1      -0.714   9.349  22.437  0.00  0.00    +0.000 A 
ATOM      7  C   UNL     1      -0.707  10.741  22.319  0.00  0.00    +0.000 A 
ATOM      8 CL   UNL     1      -1.512  11.697  23.501  0.00  0.00    +0.000 Cl
ATOM      9  C   UNL     1      -0.042  11.365  21.265  0.00  0.00    +0.000 A 
ATOM     10  C   UNL     1       0.646  10.564  20.354  0.00  0.00    +0.000 A 
ATOM     11  N   UNL     1       1.327  11.083  19.252  0.00  0.00    +0.000 N 
ATOM     12  C   UNL     1       1.352  12.312  18.669  0.00  0.00    +0.000 A 
ATOM     13  N   UNL     1       2.225  12.308  17.681  0.00  0.00    +0.000 NA
ATOM     14  N   UNL     1       2.718  11.023  17.556  0.00  0.00    +0.000 NA
ATOM     15  C   UNL     1       2.113  10.296  18.469  0.00  0.00    +0.000 A 
ATOM     16  H   UNL     1       3.409   8.586  17.033  0.00  0.00    +0.000 HD
ENDROOT
BRANCH   1  21
ATOM     17  C   UNL     1       2.703   4.501  18.681  0.00  0.00    +0.000 A 
ATOM     18  C   UNL     1       3.993   4.069  18.390  0.00  0.00    +0.000 A 
ATOM     19  C   UNL     1       4.935   4.966  17.887  0.00  0.00    +0.000 A 
ATOM     20  C   UNL     1       4.598   6.305  17.655  0.00  0.00    +0.000 A 
ATOM     21  C   UNL     1       3.295   6.750  17.933  0.00  0.00    +0.000 A 
ATOM     22  C   UNL     1       2.349   5.821  18.409  0.00  0.00    +0.000 A 
BRANCH  17  23
ATOM     23  O   UNL     1       1.880   3.561  19.238  0.00  0.00    +0.000 OA
BRANCH  23  25
ATOM     24  C   UNL     1       2.094   3.432  21.614  0.00  0.00    +0.000 C 
ATOM     25  C   UNL     1       1.240   3.932  20.462  0.00  0.00    +0.000 C 
ENDBRANCH  23  25
ENDBRANCH  17  23
BRANCH  20  26
ATOM     26  O   UNL     1       5.650   7.064  17.206  0.00  0.00    +0.000 OA
BRANCH  26  27
ATOM     27  C   UNL     1       6.959   6.717  17.658  0.00  0.00    +0.000 C 
ATOM     28  C   UNL     1       7.812   7.974  17.654  0.00  0.00    +0.000 C 
ENDBRANCH  26  27
ENDBRANCH  20  26
ENDBRANCH   1  21
TORSDOF 5
ENDMDL
MODEL 7
REMARK VINA RESULT:      -7.0      4.026      6.358
REMARK  Name = 
REMARK  7 active torsions:
REMARK  status: ('A' for Active; 'I' for Inactive)
REMARK    1  A    between atoms: C_1  and  C_2
REMARK    2  A    between atoms: C_2  and  O_3
REMARK    3  A    between atoms: O_3  and  C_4
REMARK    4  A    between atoms: C_7  and  O_8
REMARK    5  A    between atoms: O_8  and  C_9
REMARK    6  A    between atoms: C_9  and  C_10
REMARK    7  A    between atoms: C_11  and  N_12
REMARK                            x       y       z     vdW  Elec       q    Type
REMARK                         _______ _______ _______ _____ _____    ______ ____
ROOT
ATOM      1  N   UNL     1       1.480   7.592  20.765  0.00  0.00    +0.000 N 
ATOM      2  C   UNL     1       1.113   8.916  20.602  0.00  0.00    +0.000 A 
ATOM      3  N   UNL     1       1.565   9.664  19.623  0.00  0.00    +0.000 NA
ATOM      4  C   UNL     1       1.175  11.017  19.505  0.00  0.00    +0.000 A 
ATOM      5  C   UNL     1       1.674  11.767  18.440  0.00  0.00    +0.000 A 
ATOM      6  C   UNL     1       1.262  13.090  18.250  0.00  0.00    +0.000 A 
ATOM      7  C   UNL     1       0.341  13.666  19.127  0.00  0.00    +0.000 A 
ATOM      8 CL   UNL     1      -0.231  15.262  18.830  0.00  0.00    +0.000 Cl
ATOM      9  C   UNL     1      -0.134  12.960  20.232  0.00  0.00    +0.000 A 
ATOM     10  C   UNL     1       0.308  11.651  20.414  0.00  0.00    +0.000 A 
ATOM     11  N   UNL     1      -0.086  10.862  21.496  0.00  0.00    +0.000 N 
ATOM     12  C   UNL     1      -0.741  11.135  22.657  0.00  0.00    +0.000 A 
ATOM     13  N   UNL     1      -0.937  10.014  23.321  0.00  0.00    +0.000 NA
ATOM     14  N   UNL     1      -0.319   8.994  22.624  0.00  0.00    +0.000 NA
ATOM     15  C   UNL     1       0.239   9.543  21.568  0.00  0.00    +0.000 A 
ATOM     16  H   UNL     1       1.111   7.112  21.573  0.00  0.00    +0.000 HD
ENDROOT
BRANCH   1  21
ATOM     17  C   UNL     1       3.564   6.580  17.861  0.00  0.00    +0.000 A 
ATOM     18  C   UNL     1       3.345   5.207  17.841  0.00  0.00    +0.000 A 
ATOM     19  C   UNL     1       2.516   4.616  18.795  0.00  0.00    +0.000 A 
ATOM     20  C   UNL     1       1.903   5.388  19.790  0.00  0.00    +0.000 A 
ATOM     21  C   UNL     1       2.128   6.775  19.828  0.00  0.00    +0.000 A 
ATOM     22  C   UNL     1       2.994   7.347  18.876  0.00  0.00    +0.000 A 
BRANCH  17  23
ATOM     23  O   UNL     1       4.333   7.068  16.839  0.00  0.00    +0.000 OA
BRANCH  23  25
ATOM     24  C   UNL     1       6.672   6.744  17.198  0.00  0.00    +0.000 C 
ATOM     25  C   UNL     1       5.445   6.257  16.449  0.00  0.00    +0.000 C 
ENDBRANCH  23  25
ENDBRANCH  17  23
BRANCH  20  26
ATOM     26  O   UNL     1       1.083   4.664  20.617  0.00  0.00    +0.000 OA
BRANCH  26  27
ATOM     27  C   UNL     1       1.038   3.248  20.432  0.00  0.00    +0.000 C 
ATOM     28  C   UNL     1       1.589   2.588  21.685  0.00  0.00    +0.000 C 
ENDBRANCH  26  27
ENDBRANCH  20  26
ENDBRANCH   1  21
TORSDOF 5
ENDMDL
MODEL 8
REMARK VINA RESULT:      -7.0      3.725      5.811
REMARK  Name = 
REMARK  7 active torsions:
REMARK  status: ('A' for Active; 'I' for Inactive)
REMARK    1  A    between atoms: C_1  and  C_2
REMARK    2  A    between atoms: C_2  and  O_3
REMARK    3  A    between atoms: O_3  and  C_4
REMARK    4  A    between atoms: C_7  and  O_8
REMARK    5  A    between atoms: O_8  and  C_9
REMARK    6  A    between atoms: C_9  and  C_10
REMARK    7  A    between atoms: C_11  and  N_12
REMARK                            x       y       z     vdW  Elec       q    Type
REMARK                         _______ _______ _______ _____ _____    ______ ____
ROOT
ATOM      1  N   UNL     1       2.224   7.512  20.424  0.00  0.00    +0.000 N 
ATOM      2  C   UNL     1       1.211   8.444  20.277  0.00  0.00    +0.000 A 
ATOM      3  N   UNL     1       0.696   8.756  19.111  0.00  0.00    +0.000 NA
ATOM      4  C   UNL     1      -0.326   9.726  19.007  0.00  0.00    +0.000 A 
ATOM      5  C   UNL     1      -0.849  10.015  17.746  0.00  0.00    +0.000 A 
ATOM      6  C   UNL     1      -1.906  10.920  17.607  0.00  0.00    +0.000 A 
ATOM      7  C   UNL     1      -2.449  11.537  18.736  0.00  0.00    +0.000 A 
ATOM      8 CL   UNL     1      -3.810  12.576  18.564  0.00  0.00    +0.000 Cl
ATOM      9  C   UNL     1      -1.912  11.310  20.003  0.00  0.00    +0.000 A 
ATOM     10  C   UNL     1      -0.843  10.422  20.115  0.00  0.00    +0.000 A 
ATOM     11  N   UNL     1      -0.217  10.139  21.329  0.00  0.00    +0.000 N 
ATOM     12  C   UNL     1      -0.280  10.709  22.563  0.00  0.00    +0.000 A 
ATOM     13  N   UNL     1       0.460  10.014  23.403  0.00  0.00    +0.000 NA
ATOM     14  N   UNL     1       1.094   9.017  22.685  0.00  0.00    +0.000 NA
ATOM     15  C   UNL     1       0.719   9.158  21.433  0.00  0.00    +0.000 A 
ATOM     16  H   UNL     1       2.582   7.371  21.356  0.00  0.00    +0.000 HD
ENDROOT
BRANCH   1  21
ATOM     17  C   UNL     1       3.958   6.115  17.450  0.00  0.00    +0.000 A 
ATOM     18  C   UNL     1       3.471   4.812  17.446  0.00  0.00    +0.000 A 
ATOM     19  C   UNL     1       2.578   4.395  18.433  0.00  0.00    +0.000 A 
ATOM     20  C   UNL     1       2.168   5.271  19.446  0.00  0.00    +0.000 A 
ATOM     21  C   UNL     1       2.662   6.585  19.468  0.00  0.00    +0.000 A 
ATOM     22  C   UNL     1       3.589   6.977  18.482  0.00  0.00    +0.000 A 
BRANCH  17  23
ATOM     23  O   UNL     1       4.769   6.443  16.398  0.00  0.00    +0.000 OA
BRANCH  23  25
ATOM     24  C   UNL     1       6.303   5.128  15.124  0.00  0.00    +0.000 C 
ATOM     25  C   UNL     1       6.085   5.884  16.422  0.00  0.00    +0.000 C 
ENDBRANCH  23  25
ENDBRANCH  17  23
BRANCH  20  26
ATOM     26  O   UNL     1       1.252   4.720  20.307  0.00  0.00    +0.000 OA
BRANCH  26  27
ATOM     27  C   UNL     1       1.112   3.299  20.306  0.00  0.00    +0.000 C 
ATOM     28  C   UNL     1       1.677   2.765  21.611  0.00  0.00    +0.000 C 
ENDBRANCH  26  27
ENDBRANCH  20  26
ENDBRANCH   1  21
TORSDOF 5
ENDMDL
MODEL 9
REMARK VINA RESULT:      -6.8      4.415      7.636
REMARK  Name = 
REMARK  7 active torsions:
REMARK  status: ('A' for Active; 'I' for Inactive)
REMARK    1  A    between atoms: C_1  and  C_2
REMARK    2  A    between atoms: C_2  and  O_3
REMARK    3  A    between atoms: O_3  and  C_4
REMARK    4  A    between atoms: C_7  and  O_8
REMARK    5  A    between atoms: O_8  and  C_9
REMARK    6  A    between atoms: C_9  and  C_10
REMARK    7  A    between atoms: C_11  and  N_12
REMARK                            x       y       z     vdW  Elec       q    Type
REMARK                         _______ _______ _______ _____ _____    ______ ____
ROOT
ATOM      1  N   UNL     1       2.077   9.289  17.690  0.00  0.00    +0.000 N 
ATOM      2  C   UNL     1       2.481   8.048  18.151  0.00  0.00    +0.000 A 
ATOM      3  N   UNL     1       1.949   7.473  19.204  0.00  0.00    +0.000 NA
ATOM      4  C   UNL     1       2.405   6.212  19.648  0.00  0.00    +0.000 A 
ATOM      5  C   UNL     1       1.799   5.637  20.766  0.00  0.00    +0.000 A 
ATOM      6  C   UNL     1       2.176   4.361  21.199  0.00  0.00    +0.000 A 
ATOM      7  C   UNL     1       3.160   3.652  20.507  0.00  0.00    +0.000 A 
ATOM      8 CL   UNL     1       3.548   2.047  20.990  0.00  0.00    +0.000 Cl
ATOM      9  C   UNL     1       3.821   4.222  19.419  0.00  0.00    +0.000 A 
ATOM     10  C   UNL     1       3.446   5.504  19.020  0.00  0.00    +0.000 A 
ATOM     11  N   UNL     1       4.055   6.176  17.960  0.00  0.00    +0.000 N 
ATOM     12  C   UNL     1       5.180   5.938  17.231  0.00  0.00    +0.000 A 
ATOM     13  N   UNL     1       5.283   6.843  16.279  0.00  0.00    +0.000 NA
ATOM     14  N   UNL     1       4.251   7.748  16.441  0.00  0.00    +0.000 NA
ATOM     15  C   UNL     1       3.570   7.358  17.496  0.00  0.00    +0.000 A 
ATOM     16  H   UNL     1       2.575   9.665  16.897  0.00  0.00    +0.000 HD
ENDROOT
BRANCH   1  21
ATOM     17  C   UNL     1      -1.509  10.232  17.920  0.00  0.00    +0.000 A 
ATOM     18  C   UNL     1      -1.427  11.418  18.643  0.00  0.00    +0.000 A 
ATOM     19  C   UNL     1      -0.186  11.898  19.062  0.00  0.00    +0.000 A 
ATOM     20  C   UNL     1       0.990  11.193  18.775  0.00  0.00    +0.000 A 
ATOM     21  C   UNL     1       0.918   9.988  18.056  0.00  0.00    +0.000 A 
ATOM     22  C   UNL     1      -0.347   9.504  17.671  0.00  0.00    +0.000 A 
BRANCH  17  23
ATOM     23  O   UNL     1      -2.763   9.889  17.495  0.00  0.00    +0.000 OA
BRANCH  23  25
ATOM     24  C   UNL     1      -2.952  10.522  15.200  0.00  0.00    +0.000 C 
ATOM     25  C   UNL     1      -3.406  10.818  16.618  0.00  0.00    +0.000 C 
ENDBRANCH  23  25
ENDBRANCH  17  23
BRANCH  20  26
ATOM     26  O   UNL     1       2.127  11.824  19.214  0.00  0.00    +0.000 OA
BRANCH  26  27
ATOM     27  C   UNL     1       2.090  13.246  19.336  0.00  0.00    +0.000 C 
ATOM     28  C   UNL     1       2.940  13.841  18.226  0.00  0.00    +0.000 C 
ENDBRANCH  26  27
ENDBRANCH  20  26
ENDBRANCH   1  21
TORSDOF 5
ENDMDL
