MODEL 1
REMARK VINA RESULT:      -7.1      0.000      0.000
REMARK  Name = 
REMARK  12 active torsions:
REMARK  status: ('A' for Active; 'I' for Inactive)
REMARK    1  A    between atoms: C_1  and  O_2
REMARK    2  A    between atoms: O_2  and  C_3
REMARK    3  A    between atoms: C_3  and  C_4
REMARK    4  A    between atoms: C_4  and  C_5
REMARK    5  A    between atoms: C_11  and  C_12
REMARK    6  A    between atoms: C_12  and  O_13
REMARK    7  A    between atoms: O_13  and  C_14
REMARK    8  A    between atoms: C_14  and  C_16
REMARK    9  A    between atoms: C_19  and  C_20
REMARK   10  A    between atoms: C_20  and  C_21
REMARK   11  A    between atoms: C_20  and  C_22
REMARK   12  A    between atoms: C_20  and  C_23
REMARK                            x       y       z     vdW  Elec       q    Type
REMARK                         _______ _______ _______ _____ _____    ______ ____
ROOT
ATOM      1  C   UNL     1       6.896   4.557  13.896  0.00  0.00    +0.000 A 
ATOM      2  N   UNL     1       7.399   5.486  14.646  0.00  0.00    +0.000 NA
ATOM      3  N   UNL     1       6.727   5.502  15.847  0.00  0.00    +0.000 N 
ATOM      4  C   UNL     1       7.050   6.386  16.851  0.00  0.00    +0.000 A 
ATOM      5  O   UNL     1       7.968   7.200  16.846  0.00  0.00    +0.000 OA
ATOM      6  C   UNL     1       6.163   6.285  18.031  0.00  0.00    +0.000 A 
ATOM      7  C   UNL     1       5.183   5.365  18.054  0.00  0.00    +0.000 A 
ATOM      8  N   UNL     1       4.957   4.462  17.032  0.00  0.00    +0.000 NA
ATOM      9  C   UNL     1       5.716   4.590  15.997  0.00  0.00    +0.000 A 
ATOM     10  S   UNL     1       5.595   3.606  14.574  0.00  0.00    +0.000 S 
ENDROOT
BRANCH   1  11
ATOM     11  C   UNL     1       7.351   4.286  12.500  0.00  0.00    +0.000 C 
BRANCH  11  12
ATOM     12  C   UNL     1       6.425   3.287  11.827  0.00  0.00    +0.000 C 
BRANCH  12  14
ATOM     13  C   UNL     1       6.388   1.061  11.060  0.00  0.00    +0.000 C 
ATOM     14  O   UNL     1       7.205   2.183  11.369  0.00  0.00    +0.000 OA
ENDBRANCH  12  14
ENDBRANCH  11  12
ENDBRANCH   1  11
BRANCH   7  15
ATOM     15  C   UNL     1       4.235   5.285  19.236  0.00  0.00    +0.000 C 
BRANCH  15  16
ATOM     16  O   UNL     1       3.113   6.162  19.047  0.00  0.00    +0.000 OA
BRANCH  16  17
ATOM     17  C   UNL     1       2.280   6.260  20.110  0.00  0.00    +0.000 C 
ATOM     18  O   UNL     1       2.049   5.372  20.918  0.00  0.00    +0.000 OA
BRANCH  17  19
ATOM     19  C   UNL     1       1.679   7.618  20.192  0.00  0.00    +0.000 A 
ATOM     20  C   UNL     1       1.765   8.440  19.066  0.00  0.00    +0.000 A 
ATOM     21  C   UNL     1       1.204   9.721  19.075  0.00  0.00    +0.000 A 
ATOM     22  C   UNL     1       0.538  10.224  20.206  0.00  0.00    +0.000 A 
ATOM     23  C   UNL     1       0.475   9.388  21.338  0.00  0.00    +0.000 A 
ATOM     24  C   UNL     1       1.033   8.101  21.333  0.00  0.00    +0.000 A 
BRANCH  22  25
ATOM     25  C   UNL     1      -0.127  11.615  20.216  0.00  0.00    +0.000 C 
ATOM     26  C   UNL     1       0.695  12.692  19.471  0.00  0.00    +0.000 C 
ATOM     27  C   UNL     1      -1.506  11.534  19.524  0.00  0.00    +0.000 C 
ATOM     28  C   UNL     1      -0.325  12.113  21.663  0.00  0.00    +0.000 C 
ENDBRANCH  22  25
ENDBRANCH  17  19
ENDBRANCH  16  17
ENDBRANCH  15  16
ENDBRANCH   7  15
TORSDOF 8
ENDMDL
MODEL 2
REMARK VINA RESULT:      -7.0      5.861     11.167
REMARK  Name = 
REMARK  12 active torsions:
REMARK  status: ('A' for Active; 'I' for Inactive)
REMARK    1  A    between atoms: C_1  and  O_2
REMARK    2  A    between atoms: O_2  and  C_3
REMARK    3  A    between atoms: C_3  and  C_4
REMARK    4  A    between atoms: C_4  and  C_5
REMARK    5  A    between atoms: C_11  and  C_12
REMARK    6  A    between atoms: C_12  and  O_13
REMARK    7  A    between atoms: O_13  and  C_14
REMARK    8  A    between atoms: C_14  and  C_16
REMARK    9  A    between atoms: C_19  and  C_20
REMARK   10  A    between atoms: C_20  and  C_21
REMARK   11  A    between atoms: C_20  and  C_22
REMARK   12  A    between atoms: C_20  and  C_23
REMARK                            x       y       z     vdW  Elec       q    Type
REMARK                         _______ _______ _______ _____ _____    ______ ____
ROOT
ATOM      1  C   UNL     1      -2.624  12.219  22.946  0.00  0.00    +0.000 A 
ATOM      2  N   UNL     1      -1.725  11.360  23.310  0.00  0.00    +0.000 NA
ATOM      3  N   UNL     1      -0.940  11.051  22.222  0.00  0.00    +0.000 N 
ATOM      4  C   UNL     1       0.109  10.164  22.309  0.00  0.00    +0.000 A 
ATOM      5  O   UNL     1       0.510   9.597  23.320  0.00  0.00    +0.000 OA
ATOM      6  C   UNL     1       0.780   9.919  21.013  0.00  0.00    +0.000 A 
ATOM      7  C   UNL     1       0.367  10.570  19.912  0.00  0.00    +0.000 A 
ATOM      8  N   UNL     1      -0.655  11.501  19.912  0.00  0.00    +0.000 NA
ATOM      9  C   UNL     1      -1.253  11.673  21.042  0.00  0.00    +0.000 A 
ATOM     10  S   UNL     1      -2.590  12.751  21.282  0.00  0.00    +0.000 S 
ENDROOT
BRANCH   1  11
ATOM     11  C   UNL     1      -3.682  12.743  23.862  0.00  0.00    +0.000 C 
BRANCH  11  12
ATOM     12  C   UNL     1      -3.317  14.137  24.346  0.00  0.00    +0.000 C 
BRANCH  12  14
ATOM     13  C   UNL     1      -5.515  14.518  23.594  0.00  0.00    +0.000 C 
ATOM     14  O   UNL     1      -4.215  15.072  23.751  0.00  0.00    +0.000 OA
ENDBRANCH  12  14
ENDBRANCH  11  12
ENDBRANCH   1  11
BRANCH   7  15
ATOM     15  C   UNL     1       1.014  10.290  18.568  0.00  0.00    +0.000 C 
BRANCH  15  16
ATOM     16  O   UNL     1       1.075   8.877  18.319  0.00  0.00    +0.000 OA
BRANCH  16  17
ATOM     17  C   UNL     1       2.324   8.377  18.173  0.00  0.00    +0.000 C 
ATOM     18  O   UNL     1       3.280   8.976  17.700  0.00  0.00    +0.000 OA
BRANCH  17  19
ATOM     19  C   UNL     1       2.403   6.983  18.685  0.00  0.00    +0.000 A 
ATOM     20  C   UNL     1       2.874   5.993  17.819  0.00  0.00    +0.000 A 
ATOM     21  C   UNL     1       2.987   4.667  18.248  0.00  0.00    +0.000 A 
ATOM     22  C   UNL     1       2.636   4.284  19.554  0.00  0.00    +0.000 A 
ATOM     23  C   UNL     1       2.147   5.292  20.409  0.00  0.00    +0.000 A 
ATOM     24  C   UNL     1       2.036   6.624  19.985  0.00  0.00    +0.000 A 
BRANCH  22  25
ATOM     25  C   UNL     1       2.800   2.836  20.057  0.00  0.00    +0.000 C 
ATOM     26  C   UNL     1       4.232   2.282  19.870  0.00  0.00    +0.000 C 
ATOM     27  C   UNL     1       2.481   2.775  21.567  0.00  0.00    +0.000 C 
ATOM     28  C   UNL     1       1.843   1.887  19.307  0.00  0.00    +0.000 C 
ENDBRANCH  22  25
ENDBRANCH  17  19
ENDBRANCH  16  17
ENDBRANCH  15  16
ENDBRANCH   7  15
TORSDOF 8
ENDMDL
MODEL 3
REMARK VINA RESULT:      -7.0      3.089      4.917
REMARK  Name = 
REMARK  12 active torsions:
REMARK  status: ('A' for Active; 'I' for Inactive)
REMARK    1  A    between atoms: C_1  and  O_2
REMARK    2  A    between atoms: O_2  and  C_3
REMARK    3  A    between atoms: C_3  and  C_4
REMARK    4  A    between atoms: C_4  and  C_5
REMARK    5  A    between atoms: C_11  and  C_12
REMARK    6  A    between atoms: C_12  and  O_13
REMARK    7  A    between atoms: O_13  and  C_14
REMARK    8  A    between atoms: C_14  and  C_16
REMARK    9  A    between atoms: C_19  and  C_20
REMARK   10  A    between atoms: C_20  and  C_21
REMARK   11  A    between atoms: C_20  and  C_22
REMARK   12  A    between atoms: C_20  and  C_23
REMARK                            x       y       z     vdW  Elec       q    Type
REMARK                         _______ _______ _______ _____ _____    ______ ____
ROOT
ATOM      1  C   UNL     1       4.874   4.535  17.516  0.00  0.00    +0.000 A 
ATOM      2  N   UNL     1       4.371   3.804  18.460  0.00  0.00    +0.000 NA
ATOM      3  N   UNL     1       3.455   4.554  19.162  0.00  0.00    +0.000 N 
ATOM      4  C   UNL     1       2.751   4.036  20.225  0.00  0.00    +0.000 A 
ATOM      5  O   UNL     1       2.791   2.882  20.640  0.00  0.00    +0.000 OA
ATOM      6  C   UNL     1       1.870   5.025  20.885  0.00  0.00    +0.000 A 
ATOM      7  C   UNL     1       1.794   6.278  20.405  0.00  0.00    +0.000 A 
ATOM      8  N   UNL     1       2.484   6.713  19.288  0.00  0.00    +0.000 NA
ATOM      9  C   UNL     1       3.275   5.848  18.749  0.00  0.00    +0.000 A 
ATOM     10  S   UNL     1       4.275   6.170  17.370  0.00  0.00    +0.000 S 
ENDROOT
BRANCH   1  11
ATOM     11  C   UNL     1       5.940   4.058  16.583  0.00  0.00    +0.000 C 
BRANCH  11  12
ATOM     12  C   UNL     1       7.237   4.807  16.838  0.00  0.00    +0.000 C 
BRANCH  12  14
ATOM     13  C   UNL     1       7.853   5.686  18.933  0.00  0.00    +0.000 C 
ATOM     14  O   UNL     1       7.683   4.506  18.158  0.00  0.00    +0.000 OA
ENDBRANCH  12  14
ENDBRANCH  11  12
ENDBRANCH   1  11
BRANCH   7  15
ATOM     15  C   UNL     1       0.934   7.316  21.103  0.00  0.00    +0.000 C 
BRANCH  15  16
ATOM     16  O   UNL     1       1.548   8.612  21.036  0.00  0.00    +0.000 OA
BRANCH  16  17
ATOM     17  C   UNL     1       1.321   9.406  22.109  0.00  0.00    +0.000 C 
ATOM     18  O   UNL     1       1.977   9.414  23.141  0.00  0.00    +0.000 OA
BRANCH  17  19
ATOM     19  C   UNL     1       0.158  10.303  21.871  0.00  0.00    +0.000 A 
ATOM     20  C   UNL     1      -0.609  10.686  22.973  0.00  0.00    +0.000 A 
ATOM     21  C   UNL     1      -1.704  11.542  22.816  0.00  0.00    +0.000 A 
ATOM     22  C   UNL     1      -2.071  12.042  21.555  0.00  0.00    +0.000 A 
ATOM     23  C   UNL     1      -1.297  11.631  20.451  0.00  0.00    +0.000 A 
ATOM     24  C   UNL     1      -0.194  10.777  20.605  0.00  0.00    +0.000 A 
BRANCH  22  25
ATOM     25  C   UNL     1      -3.245  13.023  21.370  0.00  0.00    +0.000 C 
ATOM     26  C   UNL     1      -4.236  13.021  22.558  0.00  0.00    +0.000 C 
ATOM     27  C   UNL     1      -2.701  14.462  21.232  0.00  0.00    +0.000 C 
ATOM     28  C   UNL     1      -4.054  12.673  20.104  0.00  0.00    +0.000 C 
ENDBRANCH  22  25
ENDBRANCH  17  19
ENDBRANCH  16  17
ENDBRANCH  15  16
ENDBRANCH   7  15
TORSDOF 8
ENDMDL
MODEL 4
REMARK VINA RESULT:      -6.9      6.247     11.034
REMARK  Name = 
REMARK  12 active torsions:
REMARK  status: ('A' for Active; 'I' for Inactive)
REMARK    1  A    between atoms: C_1  and  O_2
REMARK    2  A    between atoms: O_2  and  C_3
REMARK    3  A    between atoms: C_3  and  C_4
REMARK    4  A    between atoms: C_4  and  C_5
REMARK    5  A    between atoms: C_11  and  C_12
REMARK    6  A    between atoms: C_12  and  O_13
REMARK    7  A    between atoms: O_13  and  C_14
REMARK    8  A    between atoms: C_14  and  C_16
REMARK    9  A    between atoms: C_19  and  C_20
REMARK   10  A    between atoms: C_20  and  C_21
REMARK   11  A    between atoms: C_20  and  C_22
REMARK   12  A    between atoms: C_20  and  C_23
REMARK                            x       y       z     vdW  Elec       q    Type
REMARK                         _______ _______ _______ _____ _____    ______ ____
ROOT
ATOM      1  C   UNL     1      -5.520  12.253  17.475  0.00  0.00    +0.000 A 
ATOM      2  N   UNL     1      -4.738  11.555  16.714  0.00  0.00    +0.000 NA
ATOM      3  N   UNL     1      -3.595  11.244  17.417  0.00  0.00    +0.000 N 
ATOM      4  C   UNL     1      -2.580  10.499  16.863  0.00  0.00    +0.000 A 
ATOM      5  O   UNL     1      -2.569   9.984  15.750  0.00  0.00    +0.000 OA
ATOM      6  C   UNL     1      -1.414  10.337  17.760  0.00  0.00    +0.000 A 
ATOM      7  C   UNL     1      -1.441  10.866  18.995  0.00  0.00    +0.000 A 
ATOM      8  N   UNL     1      -2.527  11.549  19.511  0.00  0.00    +0.000 NA
ATOM      9  C   UNL     1      -3.518  11.713  18.702  0.00  0.00    +0.000 A 
ATOM     10  S   UNL     1      -4.970  12.573  19.103  0.00  0.00    +0.000 S 
ENDROOT
BRANCH   1  11
ATOM     11  C   UNL     1      -6.832  12.806  17.023  0.00  0.00    +0.000 C 
BRANCH  11  12
ATOM     12  C   UNL     1      -7.356  13.814  18.032  0.00  0.00    +0.000 C 
BRANCH  12  14
ATOM     13  C   UNL     1      -7.462  16.122  18.488  0.00  0.00    +0.000 C 
ATOM     14  O   UNL     1      -6.937  15.117  17.629  0.00  0.00    +0.000 OA
ENDBRANCH  12  14
ENDBRANCH  11  12
ENDBRANCH   1  11
BRANCH   7  15
ATOM     15  C   UNL     1      -0.233  10.751  19.906  0.00  0.00    +0.000 C 
BRANCH  15  16
ATOM     16  O   UNL     1      -0.218   9.478  20.572  0.00  0.00    +0.000 OA
BRANCH  16  17
ATOM     17  C   UNL     1       0.980   9.122  21.092  0.00  0.00    +0.000 C 
ATOM     18  O   UNL     1       1.539   9.669  22.032  0.00  0.00    +0.000 OA
BRANCH  17  19
ATOM     19  C   UNL     1       1.542   7.944  20.378  0.00  0.00    +0.000 A 
ATOM     20  C   UNL     1       2.075   8.145  19.103  0.00  0.00    +0.000 A 
ATOM     21  C   UNL     1       2.632   7.080  18.388  0.00  0.00    +0.000 A 
ATOM     22  C   UNL     1       2.678   5.780  18.921  0.00  0.00    +0.000 A 
ATOM     23  C   UNL     1       2.120   5.592  20.201  0.00  0.00    +0.000 A 
ATOM     24  C   UNL     1       1.564   6.658  20.924  0.00  0.00    +0.000 A 
BRANCH  22  25
ATOM     25  C   UNL     1       3.331   4.606  18.167  0.00  0.00    +0.000 C 
ATOM     26  C   UNL     1       4.259   5.059  17.016  0.00  0.00    +0.000 C 
ATOM     27  C   UNL     1       4.191   3.777  19.146  0.00  0.00    +0.000 C 
ATOM     28  C   UNL     1       2.256   3.688  17.549  0.00  0.00    +0.000 C 
ENDBRANCH  22  25
ENDBRANCH  17  19
ENDBRANCH  16  17
ENDBRANCH  15  16
ENDBRANCH   7  15
TORSDOF 8
ENDMDL
MODEL 5
REMARK VINA RESULT:      -6.9      0.613      1.392
REMARK  Name = 
REMARK  12 active torsions:
REMARK  status: ('A' for Active; 'I' for Inactive)
REMARK    1  A    between atoms: C_1  and  O_2
REMARK    2  A    between atoms: O_2  and  C_3
REMARK    3  A    between atoms: C_3  and  C_4
REMARK    4  A    between atoms: C_4  and  C_5
REMARK    5  A    between atoms: C_11  and  C_12
REMARK    6  A    between atoms: C_12  and  O_13
REMARK    7  A    between atoms: O_13  and  C_14
REMARK    8  A    between atoms: C_14  and  C_16
REMARK    9  A    between atoms: C_19  and  C_20
REMARK   10  A    between atoms: C_20  and  C_21
REMARK   11  A    between atoms: C_20  and  C_22
REMARK   12  A    between atoms: C_20  and  C_23
REMARK                            x       y       z     vdW  Elec       q    Type
REMARK                         _______ _______ _______ _____ _____    ______ ____
ROOT
ATOM      1  C   UNL     1       6.394   4.210  13.811  0.00  0.00    +0.000 A 
ATOM      2  N   UNL     1       7.018   5.152  14.445  0.00  0.00    +0.000 NA
ATOM      3  N   UNL     1       6.484   5.267  15.708  0.00  0.00    +0.000 N 
ATOM      4  C   UNL     1       6.955   6.188  16.617  0.00  0.00    +0.000 A 
ATOM      5  O   UNL     1       7.901   6.954  16.464  0.00  0.00    +0.000 OA
ATOM      6  C   UNL     1       6.200   6.196  17.889  0.00  0.00    +0.000 A 
ATOM      7  C   UNL     1       5.189   5.329  18.073  0.00  0.00    +0.000 A 
ATOM      8  N   UNL     1       4.812   4.384  17.138  0.00  0.00    +0.000 NA
ATOM      9  C   UNL     1       5.457   4.417  16.021  0.00  0.00    +0.000 A 
ATOM     10  S   UNL     1       5.136   3.364  14.680  0.00  0.00    +0.000 S 
ENDROOT
BRANCH   1  11
ATOM     11  C   UNL     1       6.680   3.841  12.392  0.00  0.00    +0.000 C 
BRANCH  11  12
ATOM     12  C   UNL     1       5.503   3.089  11.795  0.00  0.00    +0.000 C 
BRANCH  12  14
ATOM     13  C   UNL     1       7.301   1.710  11.155  0.00  0.00    +0.000 C 
ATOM     14  O   UNL     1       5.920   1.758  11.494  0.00  0.00    +0.000 OA
ENDBRANCH  12  14
ENDBRANCH  11  12
ENDBRANCH   1  11
BRANCH   7  15
ATOM     15  C   UNL     1       4.374   5.362  19.353  0.00  0.00    +0.000 C 
BRANCH  15  16
ATOM     16  O   UNL     1       2.989   5.613  19.067  0.00  0.00    +0.000 OA
BRANCH  16  17
ATOM     17  C   UNL     1       2.245   5.983  20.136  0.00  0.00    +0.000 C 
ATOM     18  O   UNL     1       2.001   5.285  21.110  0.00  0.00    +0.000 OA
BRANCH  17  19
ATOM     19  C   UNL     1       1.760   7.381  19.989  0.00  0.00    +0.000 A 
ATOM     20  C   UNL     1       1.116   7.969  21.081  0.00  0.00    +0.000 A 
ATOM     21  C   UNL     1       0.653   9.286  21.009  0.00  0.00    +0.000 A 
ATOM     22  C   UNL     1       0.816  10.062  19.849  0.00  0.00    +0.000 A 
ATOM     23  C   UNL     1       1.452   9.448  18.751  0.00  0.00    +0.000 A 
ATOM     24  C   UNL     1       1.923   8.128  18.819  0.00  0.00    +0.000 A 
BRANCH  22  25
ATOM     25  C   UNL     1       0.355  11.530  19.770  0.00  0.00    +0.000 C 
ATOM     26  C   UNL     1      -0.205  12.068  21.108  0.00  0.00    +0.000 C 
ATOM     27  C   UNL     1       1.550  12.428  19.382  0.00  0.00    +0.000 C 
ATOM     28  C   UNL     1      -0.757  11.696  18.713  0.00  0.00    +0.000 C 
ENDBRANCH  22  25
ENDBRANCH  17  19
ENDBRANCH  16  17
ENDBRANCH  15  16
ENDBRANCH   7  15
TORSDOF 8
ENDMDL
MODEL 6
REMARK VINA RESULT:      -6.8      2.840      4.536
REMARK  Name = 
REMARK  12 active torsions:
REMARK  status: ('A' for Active; 'I' for Inactive)
REMARK    1  A    between atoms: C_1  and  O_2
REMARK    2  A    between atoms: O_2  and  C_3
REMARK    3  A    between atoms: C_3  and  C_4
REMARK    4  A    between atoms: C_4  and  C_5
REMARK    5  A    between atoms: C_11  and  C_12
REMARK    6  A    between atoms: C_12  and  O_13
REMARK    7  A    between atoms: O_13  and  C_14
REMARK    8  A    between atoms: C_14  and  C_16
REMARK    9  A    between atoms: C_19  and  C_20
REMARK   10  A    between atoms: C_20  and  C_21
REMARK   11  A    between atoms: C_20  and  C_22
REMARK   12  A    between atoms: C_20  and  C_23
REMARK                            x       y       z     vdW  Elec       q    Type
REMARK                         _______ _______ _______ _____ _____    ______ ____
ROOT
ATOM      1  C   UNL     1       4.479   5.087  16.688  0.00  0.00    +0.000 A 
ATOM      2  N   UNL     1       3.686   4.217  17.229  0.00  0.00    +0.000 NA
ATOM      3  N   UNL     1       2.984   4.826  18.244  0.00  0.00    +0.000 N 
ATOM      4  C   UNL     1       2.056   4.145  18.998  0.00  0.00    +0.000 A 
ATOM      5  O   UNL     1       1.697   2.982  18.848  0.00  0.00    +0.000 OA
ATOM      6  C   UNL     1       1.465   4.962  20.081  0.00  0.00    +0.000 A 
ATOM      7  C   UNL     1       1.827   6.249  20.222  0.00  0.00    +0.000 A 
ATOM      8  N   UNL     1       2.721   6.888  19.383  0.00  0.00    +0.000 NA
ATOM      9  C   UNL     1       3.253   6.150  18.469  0.00  0.00    +0.000 A 
ATOM     10  S   UNL     1       4.432   6.713  17.328  0.00  0.00    +0.000 S 
ENDROOT
BRANCH   1  11
ATOM     11  C   UNL     1       5.429   4.761  15.582  0.00  0.00    +0.000 C 
BRANCH  11  12
ATOM     12  C   UNL     1       6.788   5.384  15.853  0.00  0.00    +0.000 C 
BRANCH  12  14
ATOM     13  C   UNL     1       7.738   4.632  17.873  0.00  0.00    +0.000 C 
ATOM     14  O   UNL     1       7.619   4.404  16.474  0.00  0.00    +0.000 OA
ENDBRANCH  12  14
ENDBRANCH  11  12
ENDBRANCH   1  11
BRANCH   7  15
ATOM     15  C   UNL     1       1.268   7.083  21.360  0.00  0.00    +0.000 C 
BRANCH  15  16
ATOM     16  O   UNL     1       1.007   8.427  20.924  0.00  0.00    +0.000 OA
BRANCH  16  17
ATOM     17  C   UNL     1       1.151   9.374  21.881  0.00  0.00    +0.000 C 
ATOM     18  O   UNL     1       2.089   9.461  22.660  0.00  0.00    +0.000 OA
BRANCH  17  19
ATOM     19  C   UNL     1       0.012  10.330  21.858  0.00  0.00    +0.000 A 
ATOM     20  C   UNL     1      -0.294  10.955  20.647  0.00  0.00    +0.000 A 
ATOM     21  C   UNL     1      -1.364  11.851  20.559  0.00  0.00    +0.000 A 
ATOM     22  C   UNL     1      -2.164  12.154  21.674  0.00  0.00    +0.000 A 
ATOM     23  C   UNL     1      -1.830  11.528  22.892  0.00  0.00    +0.000 A 
ATOM     24  C   UNL     1      -0.761  10.625  22.985  0.00  0.00    +0.000 A 
BRANCH  22  25
ATOM     25  C   UNL     1      -3.375  13.102  21.583  0.00  0.00    +0.000 C 
ATOM     26  C   UNL     1      -2.979  14.594  21.499  0.00  0.00    +0.000 C 
ATOM     27  C   UNL     1      -4.193  12.775  20.314  0.00  0.00    +0.000 C 
ATOM     28  C   UNL     1      -4.287  12.942  22.818  0.00  0.00    +0.000 C 
ENDBRANCH  22  25
ENDBRANCH  17  19
ENDBRANCH  16  17
ENDBRANCH  15  16
ENDBRANCH   7  15
TORSDOF 8
ENDMDL
MODEL 7
REMARK VINA RESULT:      -6.8      6.328     11.717
REMARK  Name = 
REMARK  12 active torsions:
REMARK  status: ('A' for Active; 'I' for Inactive)
REMARK    1  A    between atoms: C_1  and  O_2
REMARK    2  A    between atoms: O_2  and  C_3
REMARK    3  A    between atoms: C_3  and  C_4
REMARK    4  A    between atoms: C_4  and  C_5
REMARK    5  A    between atoms: C_11  and  C_12
REMARK    6  A    between atoms: C_12  and  O_13
REMARK    7  A    between atoms: O_13  and  C_14
REMARK    8  A    between atoms: C_14  and  C_16
REMARK    9  A    between atoms: C_19  and  C_20
REMARK   10  A    between atoms: C_20  and  C_21
REMARK   11  A    between atoms: C_20  and  C_22
REMARK   12  A    between atoms: C_20  and  C_23
REMARK                            x       y       z     vdW  Elec       q    Type
REMARK                         _______ _______ _______ _____ _____    ______ ____
ROOT
ATOM      1  C   UNL     1      -3.813  12.724  23.347  0.00  0.00    +0.000 A 
ATOM      2  N   UNL     1      -2.761  12.012  23.602  0.00  0.00    +0.000 NA
ATOM      3  N   UNL     1      -2.087  11.777  22.424  0.00  0.00    +0.000 N 
ATOM      4  C   UNL     1      -0.920  11.049  22.385  0.00  0.00    +0.000 A 
ATOM      5  O   UNL     1      -0.315  10.580  23.344  0.00  0.00    +0.000 OA
ATOM      6  C   UNL     1      -0.394  10.854  21.016  0.00  0.00    +0.000 A 
ATOM      7  C   UNL     1      -1.035  11.403  19.969  0.00  0.00    +0.000 A 
ATOM      8  N   UNL     1      -2.171  12.181  20.090  0.00  0.00    +0.000 NA
ATOM      9  C   UNL     1      -2.636  12.308  21.287  0.00  0.00    +0.000 A 
ATOM     10  S   UNL     1      -4.071  13.197  21.684  0.00  0.00    +0.000 S 
ENDROOT
BRANCH   1  11
ATOM     11  C   UNL     1      -4.807  13.128  24.387  0.00  0.00    +0.000 C 
BRANCH  11  12
ATOM     12  C   UNL     1      -6.098  13.588  23.731  0.00  0.00    +0.000 C 
BRANCH  12  14
ATOM     13  C   UNL     1      -7.771  12.068  23.070  0.00  0.00    +0.000 C 
ATOM     14  O   UNL     1      -7.156  12.735  24.165  0.00  0.00    +0.000 OA
ENDBRANCH  12  14
ENDBRANCH  11  12
ENDBRANCH   1  11
BRANCH   7  15
ATOM     15  C   UNL     1      -0.535  11.168  18.556  0.00  0.00    +0.000 C 
BRANCH  15  16
ATOM     16  O   UNL     1       0.127   9.897  18.456  0.00  0.00    +0.000 OA
BRANCH  16  17
ATOM     17  C   UNL     1       1.473   9.964  18.327  0.00  0.00    +0.000 C 
ATOM     18  O   UNL     1       2.123  10.987  18.168  0.00  0.00    +0.000 OA
BRANCH  17  19
ATOM     19  C   UNL     1       2.084   8.611  18.422  0.00  0.00    +0.000 A 
ATOM     20  C   UNL     1       1.893   7.888  19.601  0.00  0.00    +0.000 A 
ATOM     21  C   UNL     1       2.428   6.603  19.744  0.00  0.00    +0.000 A 
ATOM     22  C   UNL     1       3.171   5.998  18.716  0.00  0.00    +0.000 A 
ATOM     23  C   UNL     1       3.370   6.749  17.540  0.00  0.00    +0.000 A 
ATOM     24  C   UNL     1       2.831   8.035  17.390  0.00  0.00    +0.000 A 
BRANCH  22  25
ATOM     25  C   UNL     1       3.728   4.566  18.838  0.00  0.00    +0.000 C 
ATOM     26  C   UNL     1       3.734   3.796  17.497  0.00  0.00    +0.000 C 
ATOM     27  C   UNL     1       5.187   4.619  19.340  0.00  0.00    +0.000 C 
ATOM     28  C   UNL     1       2.888   3.738  19.833  0.00  0.00    +0.000 C 
ENDBRANCH  22  25
ENDBRANCH  17  19
ENDBRANCH  16  17
ENDBRANCH  15  16
ENDBRANCH   7  15
TORSDOF 8
ENDMDL
MODEL 8
REMARK VINA RESULT:      -6.8      4.365      9.152
REMARK  Name = 
REMARK  12 active torsions:
REMARK  status: ('A' for Active; 'I' for Inactive)
REMARK    1  A    between atoms: C_1  and  O_2
REMARK    2  A    between atoms: O_2  and  C_3
REMARK    3  A    between atoms: C_3  and  C_4
REMARK    4  A    between atoms: C_4  and  C_5
REMARK    5  A    between atoms: C_11  and  C_12
REMARK    6  A    between atoms: C_12  and  O_13
REMARK    7  A    between atoms: O_13  and  C_14
REMARK    8  A    between atoms: C_14  and  C_16
REMARK    9  A    between atoms: C_19  and  C_20
REMARK   10  A    between atoms: C_20  and  C_21
REMARK   11  A    between atoms: C_20  and  C_22
REMARK   12  A    between atoms: C_20  and  C_23
REMARK                            x       y       z     vdW  Elec       q    Type
REMARK                         _______ _______ _______ _____ _____    ______ ____
ROOT
ATOM      1  C   UNL     1       0.230  11.263  20.325  0.00  0.00    +0.000 A 
ATOM      2  N   UNL     1       0.863  10.763  19.312  0.00  0.00    +0.000 NA
ATOM      3  N   UNL     1       1.171   9.449  19.585  0.00  0.00    +0.000 N 
ATOM      4  C   UNL     1       1.843   8.656  18.683  0.00  0.00    +0.000 A 
ATOM      5  O   UNL     1       2.192   8.967  17.549  0.00  0.00    +0.000 OA
ATOM      6  C   UNL     1       2.136   7.300  19.197  0.00  0.00    +0.000 A 
ATOM      7  C   UNL     1       1.717   6.945  20.424  0.00  0.00    +0.000 A 
ATOM      8  N   UNL     1       0.987   7.776  21.254  0.00  0.00    +0.000 NA
ATOM      9  C   UNL     1       0.775   8.966  20.804  0.00  0.00    +0.000 A 
ATOM     10  S   UNL     1      -0.076  10.199  21.678  0.00  0.00    +0.000 S 
ENDROOT
BRANCH   1  11
ATOM     11  C   UNL     1      -0.219  12.687  20.397  0.00  0.00    +0.000 C 
BRANCH  11  12
ATOM     12  C   UNL     1       0.832  13.602  19.792  0.00  0.00    +0.000 C 
BRANCH  12  14
ATOM     13  C   UNL     1       0.031  15.552  18.744  0.00  0.00    +0.000 C 
ATOM     14  O   UNL     1       0.307  14.165  18.591  0.00  0.00    +0.000 OA
ENDBRANCH  12  14
ENDBRANCH  11  12
ENDBRANCH   1  11
BRANCH   7  15
ATOM     15  C   UNL     1       2.056   5.575  20.983  0.00  0.00    +0.000 C 
BRANCH  15  16
ATOM     16  O   UNL     1       1.204   4.569  20.413  0.00  0.00    +0.000 OA
BRANCH  16  17
ATOM     17  C   UNL     1       1.841   3.447  20.004  0.00  0.00    +0.000 C 
ATOM     18  O   UNL     1       1.620   2.315  20.410  0.00  0.00    +0.000 OA
BRANCH  17  19
ATOM     19  C   UNL     1       2.857   3.761  18.964  0.00  0.00    +0.000 A 
ATOM     20  C   UNL     1       4.180   3.941  19.374  0.00  0.00    +0.000 A 
ATOM     21  C   UNL     1       5.183   4.221  18.441  0.00  0.00    +0.000 A 
ATOM     22  C   UNL     1       4.901   4.331  17.069  0.00  0.00    +0.000 A 
ATOM     23  C   UNL     1       3.558   4.163  16.674  0.00  0.00    +0.000 A 
ATOM     24  C   UNL     1       2.549   3.878  17.606  0.00  0.00    +0.000 A 
BRANCH  22  25
ATOM     25  C   UNL     1       6.002   4.592  16.022  0.00  0.00    +0.000 C 
ATOM     26  C   UNL     1       5.870   5.967  15.325  0.00  0.00    +0.000 C 
ATOM     27  C   UNL     1       7.385   4.559  16.707  0.00  0.00    +0.000 C 
ATOM     28  C   UNL     1       5.968   3.517  14.916  0.00  0.00    +0.000 C 
ENDBRANCH  22  25
ENDBRANCH  17  19
ENDBRANCH  16  17
ENDBRANCH  15  16
ENDBRANCH   7  15
TORSDOF 8
ENDMDL
MODEL 9
REMARK VINA RESULT:      -6.7      4.292      9.234
REMARK  Name = 
REMARK  12 active torsions:
REMARK  status: ('A' for Active; 'I' for Inactive)
REMARK    1  A    between atoms: C_1  and  O_2
REMARK    2  A    between atoms: O_2  and  C_3
REMARK    3  A    between atoms: C_3  and  C_4
REMARK    4  A    between atoms: C_4  and  C_5
REMARK    5  A    between atoms: C_11  and  C_12
REMARK    6  A    between atoms: C_12  and  O_13
REMARK    7  A    between atoms: O_13  and  C_14
REMARK    8  A    between atoms: C_14  and  C_16
REMARK    9  A    between atoms: C_19  and  C_20
REMARK   10  A    between atoms: C_20  and  C_21
REMARK   11  A    between atoms: C_20  and  C_22
REMARK   12  A    between atoms: C_20  and  C_23
REMARK                            x       y       z     vdW  Elec       q    Type
REMARK                         _______ _______ _______ _____ _____    ______ ____
ROOT
ATOM      1  C   UNL     1       0.616  11.393  19.964  0.00  0.00    +0.000 A 
ATOM      2  N   UNL     1       1.198  10.768  18.990  0.00  0.00    +0.000 NA
ATOM      3  N   UNL     1       1.375   9.451  19.350  0.00  0.00    +0.000 N 
ATOM      4  C   UNL     1       1.966   8.539  18.505  0.00  0.00    +0.000 A 
ATOM      5  O   UNL     1       2.345   8.739  17.356  0.00  0.00    +0.000 OA
ATOM      6  C   UNL     1       2.124   7.197  19.108  0.00  0.00    +0.000 A 
ATOM      7  C   UNL     1       1.672   6.965  20.353  0.00  0.00    +0.000 A 
ATOM      8  N   UNL     1       1.027   7.916  21.122  0.00  0.00    +0.000 NA
ATOM      9  C   UNL     1       0.932   9.089  20.594  0.00  0.00    +0.000 A 
ATOM     10  S   UNL     1       0.206  10.454  21.380  0.00  0.00    +0.000 S 
ENDROOT
BRANCH   1  11
ATOM     11  C   UNL     1       0.309  12.855  19.940  0.00  0.00    +0.000 C 
BRANCH  11  12
ATOM     12  C   UNL     1       0.618  13.481  21.290  0.00  0.00    +0.000 C 
BRANCH  12  14
ATOM     13  C   UNL     1       1.495  15.576  21.910  0.00  0.00    +0.000 C 
ATOM     14  O   UNL     1       1.691  14.407  21.124  0.00  0.00    +0.000 OA
ENDBRANCH  12  14
ENDBRANCH  11  12
ENDBRANCH   1  11
BRANCH   7  15
ATOM     15  C   UNL     1       1.874   5.608  21.001  0.00  0.00    +0.000 C 
BRANCH  15  16
ATOM     16  O   UNL     1       1.066   4.611  20.357  0.00  0.00    +0.000 OA
BRANCH  16  17
ATOM     17  C   UNL     1       1.729   3.490  19.989  0.00  0.00    +0.000 C 
ATOM     18  O   UNL     1       1.491   2.359  20.387  0.00  0.00    +0.000 OA
BRANCH  17  19
ATOM     19  C   UNL     1       2.799   3.804  19.004  0.00  0.00    +0.000 A 
ATOM     20  C   UNL     1       4.109   3.916  19.474  0.00  0.00    +0.000 A 
ATOM     21  C   UNL     1       5.160   4.192  18.594  0.00  0.00    +0.000 A 
ATOM     22  C   UNL     1       4.941   4.365  17.217  0.00  0.00    +0.000 A 
ATOM     23  C   UNL     1       3.611   4.266  16.762  0.00  0.00    +0.000 A 
ATOM     24  C   UNL     1       2.553   3.984  17.640  0.00  0.00    +0.000 A 
BRANCH  22  25
ATOM     25  C   UNL     1       6.094   4.623  16.227  0.00  0.00    +0.000 C 
ATOM     26  C   UNL     1       6.101   3.644  15.030  0.00  0.00    +0.000 C 
ATOM     27  C   UNL     1       5.970   6.050  15.649  0.00  0.00    +0.000 C 
ATOM     28  C   UNL     1       7.459   4.488  16.933  0.00  0.00    +0.000 C 
ENDBRANCH  22  25
ENDBRANCH  17  19
ENDBRANCH  16  17
ENDBRANCH  15  16
ENDBRANCH   7  15
TORSDOF 8
ENDMDL
