MODEL 1
REMARK VINA RESULT:      -6.7      0.000      0.000
REMARK  Name = 
REMARK  11 active torsions:
REMARK  status: ('A' for Active; 'I' for Inactive)
REMARK    1  A    between atoms: C_1  and  O_2
REMARK    2  A    between atoms: O_2  and  C_3
REMARK    3  A    between atoms: C_5  and  C_6
REMARK    4  A    between atoms: C_6  and  N_7
REMARK    5  A    between atoms: N_7  and  C_8
REMARK    6  A    between atoms: C_8  and  C_9
REMARK    7  A    between atoms: C_8  and  C_10
REMARK    8  A    between atoms: C_10  and  C_11
REMARK    9  A    between atoms: C_10  and  N_17
REMARK   10  A    between atoms: N_17  and  C_18
REMARK   11  A    between atoms: N_17  and  C_19
REMARK                            x       y       z     vdW  Elec       q    Type
REMARK                         _______ _______ _______ _____ _____    ______ ____
ROOT
ATOM      1  C   UNL     1       3.718   6.013  18.258  0.00  0.00    +0.000 C 
ATOM      2  C   UNL     1       4.073   7.170  17.313  0.00  0.00    +0.000 C 
ENDROOT
BRANCH   1   3
ATOM      3  N   UNL     1       3.851   4.711  17.550  0.00  0.00    +0.000 NA
ATOM      4  H   UNL     1       3.168   4.057  17.931  0.00  0.00    +0.000 HD
BRANCH   3   5
ATOM      5  C   UNL     1       5.177   4.096  17.625  0.00  0.00    +0.000 C 
BRANCH   5   8
ATOM      6  C   UNL     1       6.701   4.386  14.187  0.00  0.00    +0.000 A 
ATOM      7  C   UNL     1       5.748   3.835  15.091  0.00  0.00    +0.000 A 
ATOM      8  C   UNL     1       5.932   4.358  16.361  0.00  0.00    +0.000 A 
ATOM      9  S   UNL     1       7.239   5.457  16.300  0.00  0.00    +0.000 S 
ATOM     10  N   UNL     1       7.556   5.266  14.688  0.00  0.00    +0.000 NA
BRANCH   6  12
ATOM     11  C   UNL     1       5.882   3.317  12.283  0.00  0.00    +0.000 C 
ATOM     12  O   UNL     1       6.872   4.150  12.864  0.00  0.00    +0.000 OA
ENDBRANCH   6  12
ENDBRANCH   5   8
ENDBRANCH   3   5
ENDBRANCH   1   3
BRANCH   1  13
ATOM     13  C   UNL     1       2.334   6.220  19.013  0.00  0.00    +0.000 C 
BRANCH  13  14
ATOM     14  C   UNL     1       1.976   4.972  19.833  0.00  0.00    +0.000 A 
ATOM     15  C   UNL     1       2.616   4.664  21.045  0.00  0.00    +0.000 A 
ATOM     16  C   UNL     1       2.282   3.516  21.765  0.00  0.00    +0.000 A 
ATOM     17  C   UNL     1       1.325   2.636  21.269  0.00  0.00    +0.000 A 
ATOM     18  C   UNL     1       0.691   2.911  20.060  0.00  0.00    +0.000 A 
ATOM     19  C   UNL     1       1.007   4.074  19.352  0.00  0.00    +0.000 A 
ENDBRANCH  13  14
BRANCH  13  20
ATOM     20  N   UNL     1       2.190   7.514  19.743  0.00  0.00    +0.000 NA
ATOM     21  C   UNL     1       1.764   8.606  18.866  0.00  0.00    +0.000 C 
ATOM     22  C   UNL     1       1.378   7.492  20.953  0.00  0.00    +0.000 C 
ENDBRANCH  13  20
ENDBRANCH   1  13
TORSDOF 7
ENDMDL
MODEL 2
REMARK VINA RESULT:      -6.7      3.746      6.922
REMARK  Name = 
REMARK  11 active torsions:
REMARK  status: ('A' for Active; 'I' for Inactive)
REMARK    1  A    between atoms: C_1  and  O_2
REMARK    2  A    between atoms: O_2  and  C_3
REMARK    3  A    between atoms: C_5  and  C_6
REMARK    4  A    between atoms: C_6  and  N_7
REMARK    5  A    between atoms: N_7  and  C_8
REMARK    6  A    between atoms: C_8  and  C_9
REMARK    7  A    between atoms: C_8  and  C_10
REMARK    8  A    between atoms: C_10  and  C_11
REMARK    9  A    between atoms: C_10  and  N_17
REMARK   10  A    between atoms: N_17  and  C_18
REMARK   11  A    between atoms: N_17  and  C_19
REMARK                            x       y       z     vdW  Elec       q    Type
REMARK                         _______ _______ _______ _____ _____    ______ ____
ROOT
ATOM      1  C   UNL     1       3.003   4.776  19.914  0.00  0.00    +0.000 C 
ATOM      2  C   UNL     1       1.525   4.357  19.922  0.00  0.00    +0.000 C 
ENDROOT
BRANCH   1   3
ATOM      3  N   UNL     1       3.118   6.257  20.019  0.00  0.00    +0.000 NA
ATOM      4  H   UNL     1       3.893   6.484  20.639  0.00  0.00    +0.000 HD
BRANCH   3   5
ATOM      5  C   UNL     1       1.917   6.940  20.505  0.00  0.00    +0.000 C 
BRANCH   5   8
ATOM      6  C   UNL     1       1.013  10.248  18.935  0.00  0.00    +0.000 A 
ATOM      7  C   UNL     1       0.984   9.330  20.024  0.00  0.00    +0.000 A 
ATOM      8  C   UNL     1       1.668   8.170  19.693  0.00  0.00    +0.000 A 
ATOM      9  S   UNL     1       2.263   8.339  18.101  0.00  0.00    +0.000 S 
ATOM     10  N   UNL     1       1.661   9.858  17.846  0.00  0.00    +0.000 NA
BRANCH   6  12
ATOM     11  C   UNL     1      -0.743  11.656  19.546  0.00  0.00    +0.000 C 
ATOM     12  O   UNL     1       0.473  11.486  18.836  0.00  0.00    +0.000 OA
ENDBRANCH   6  12
ENDBRANCH   5   8
ENDBRANCH   3   5
ENDBRANCH   1   3
BRANCH   1  13
ATOM     13  C   UNL     1       3.833   4.129  18.723  0.00  0.00    +0.000 C 
BRANCH  13  14
ATOM     14  C   UNL     1       5.006   5.039  18.327  0.00  0.00    +0.000 A 
ATOM     15  C   UNL     1       6.181   5.120  19.094  0.00  0.00    +0.000 A 
ATOM     16  C   UNL     1       7.227   5.964  18.721  0.00  0.00    +0.000 A 
ATOM     17  C   UNL     1       7.105   6.769  17.593  0.00  0.00    +0.000 A 
ATOM     18  C   UNL     1       5.941   6.720  16.829  0.00  0.00    +0.000 A 
ATOM     19  C   UNL     1       4.904   5.855  17.188  0.00  0.00    +0.000 A 
ENDBRANCH  13  14
BRANCH  13  20
ATOM     20  N   UNL     1       4.186   2.690  18.897  0.00  0.00    +0.000 NA
ATOM     21  C   UNL     1       4.265   2.300  20.307  0.00  0.00    +0.000 C 
ATOM     22  C   UNL     1       3.385   1.728  18.152  0.00  0.00    +0.000 C 
ENDBRANCH  13  20
ENDBRANCH   1  13
TORSDOF 7
ENDMDL
MODEL 3
REMARK VINA RESULT:      -6.7      1.569      1.820
REMARK  Name = 
REMARK  11 active torsions:
REMARK  status: ('A' for Active; 'I' for Inactive)
REMARK    1  A    between atoms: C_1  and  O_2
REMARK    2  A    between atoms: O_2  and  C_3
REMARK    3  A    between atoms: C_5  and  C_6
REMARK    4  A    between atoms: C_6  and  N_7
REMARK    5  A    between atoms: N_7  and  C_8
REMARK    6  A    between atoms: C_8  and  C_9
REMARK    7  A    between atoms: C_8  and  C_10
REMARK    8  A    between atoms: C_10  and  C_11
REMARK    9  A    between atoms: C_10  and  N_17
REMARK   10  A    between atoms: N_17  and  C_18
REMARK   11  A    between atoms: N_17  and  C_19
REMARK                            x       y       z     vdW  Elec       q    Type
REMARK                         _______ _______ _______ _____ _____    ______ ____
ROOT
ATOM      1  C   UNL     1       4.576   5.221  17.602  0.00  0.00    +0.000 C 
ATOM      2  C   UNL     1       5.671   5.562  18.623  0.00  0.00    +0.000 C 
ENDROOT
BRANCH   1   3
ATOM      3  N   UNL     1       4.984   5.667  16.242  0.00  0.00    +0.000 NA
ATOM      4  H   UNL     1       4.359   5.247  15.555  0.00  0.00    +0.000 HD
BRANCH   3   5
ATOM      5  C   UNL     1       6.364   5.346  15.871  0.00  0.00    +0.000 C 
BRANCH   5   8
ATOM      6  C   UNL     1       5.937   3.458  12.634  0.00  0.00    +0.000 A 
ATOM      7  C   UNL     1       5.522   3.783  13.958  0.00  0.00    +0.000 A 
ATOM      8  C   UNL     1       6.391   4.703  14.521  0.00  0.00    +0.000 A 
ATOM      9  S   UNL     1       7.604   5.063  13.373  0.00  0.00    +0.000 S 
ATOM     10  N   UNL     1       7.027   4.066  12.186  0.00  0.00    +0.000 NA
BRANCH   6  12
ATOM     11  C   UNL     1       4.174   3.081  11.154  0.00  0.00    +0.000 C 
ATOM     12  O   UNL     1       5.378   2.610  11.738  0.00  0.00    +0.000 OA
ENDBRANCH   6  12
ENDBRANCH   5   8
ENDBRANCH   3   5
ENDBRANCH   1   3
BRANCH   1  13
ATOM     13  C   UNL     1       3.128   5.699  18.050  0.00  0.00    +0.000 C 
BRANCH  13  14
ATOM     14  C   UNL     1       2.435   4.610  18.884  0.00  0.00    +0.000 A 
ATOM     15  C   UNL     1       2.797   4.345  20.215  0.00  0.00    +0.000 A 
ATOM     16  C   UNL     1       2.162   3.342  20.948  0.00  0.00    +0.000 A 
ATOM     17  C   UNL     1       1.176   2.561  20.352  0.00  0.00    +0.000 A 
ATOM     18  C   UNL     1       0.816   2.793  19.027  0.00  0.00    +0.000 A 
ATOM     19  C   UNL     1       1.433   3.816  18.302  0.00  0.00    +0.000 A 
ENDBRANCH  13  14
BRANCH  13  20
ATOM     20  N   UNL     1       3.058   7.073  18.630  0.00  0.00    +0.000 NA
ATOM     21  C   UNL     1       2.784   8.094  17.615  0.00  0.00    +0.000 C 
ATOM     22  C   UNL     1       2.178   7.252  19.777  0.00  0.00    +0.000 C 
ENDBRANCH  13  20
ENDBRANCH   1  13
TORSDOF 7
ENDMDL
MODEL 4
REMARK VINA RESULT:      -6.6      1.702      3.527
REMARK  Name = 
REMARK  11 active torsions:
REMARK  status: ('A' for Active; 'I' for Inactive)
REMARK    1  A    between atoms: C_1  and  O_2
REMARK    2  A    between atoms: O_2  and  C_3
REMARK    3  A    between atoms: C_5  and  C_6
REMARK    4  A    between atoms: C_6  and  N_7
REMARK    5  A    between atoms: N_7  and  C_8
REMARK    6  A    between atoms: C_8  and  C_9
REMARK    7  A    between atoms: C_8  and  C_10
REMARK    8  A    between atoms: C_10  and  C_11
REMARK    9  A    between atoms: C_10  and  N_17
REMARK   10  A    between atoms: N_17  and  C_18
REMARK   11  A    between atoms: N_17  and  C_19
REMARK                            x       y       z     vdW  Elec       q    Type
REMARK                         _______ _______ _______ _____ _____    ______ ____
ROOT
ATOM      1  C   UNL     1       4.084   3.760  19.206  0.00  0.00    +0.000 C 
ATOM      2  C   UNL     1       4.520   2.603  20.118  0.00  0.00    +0.000 C 
ENDROOT
BRANCH   1   3
ATOM      3  N   UNL     1       4.957   4.945  19.427  0.00  0.00    +0.000 NA
ATOM      4  H   UNL     1       4.481   5.775  19.076  0.00  0.00    +0.000 HD
BRANCH   3   5
ATOM      5  C   UNL     1       6.278   4.868  18.802  0.00  0.00    +0.000 C 
BRANCH   5   8
ATOM      6  C   UNL     1       6.026   4.355  15.073  0.00  0.00    +0.000 A 
ATOM      7  C   UNL     1       6.252   3.865  16.392  0.00  0.00    +0.000 A 
ATOM      8  C   UNL     1       6.139   4.894  17.312  0.00  0.00    +0.000 A 
ATOM      9  S   UNL     1       5.771   6.331  16.464  0.00  0.00    +0.000 S 
ATOM     10  N   UNL     1       5.754   5.648  14.958  0.00  0.00    +0.000 NA
BRANCH   6  12
ATOM     11  C   UNL     1       6.819   4.311  12.880  0.00  0.00    +0.000 C 
ATOM     12  O   UNL     1       6.040   3.692  13.892  0.00  0.00    +0.000 OA
ENDBRANCH   6  12
ENDBRANCH   5   8
ENDBRANCH   3   5
ENDBRANCH   1   3
BRANCH   1  13
ATOM     13  C   UNL     1       2.525   4.061  19.276  0.00  0.00    +0.000 C 
BRANCH  13  14
ATOM     14  C   UNL     1       2.270   5.576  19.303  0.00  0.00    +0.000 A 
ATOM     15  C   UNL     1       2.452   6.385  18.169  0.00  0.00    +0.000 A 
ATOM     16  C   UNL     1       2.227   7.761  18.222  0.00  0.00    +0.000 A 
ATOM     17  C   UNL     1       1.848   8.360  19.420  0.00  0.00    +0.000 A 
ATOM     18  C   UNL     1       1.681   7.580  20.562  0.00  0.00    +0.000 A 
ATOM     19  C   UNL     1       1.881   6.198  20.502  0.00  0.00    +0.000 A 
ENDBRANCH  13  14
BRANCH  13  20
ATOM     20  N   UNL     1       1.681   3.300  18.309  0.00  0.00    +0.000 NA
ATOM     21  C   UNL     1       2.482   2.593  17.306  0.00  0.00    +0.000 C 
ATOM     22  C   UNL     1       0.682   2.406  18.879  0.00  0.00    +0.000 C 
ENDBRANCH  13  20
ENDBRANCH   1  13
TORSDOF 7
ENDMDL
MODEL 5
REMARK VINA RESULT:      -6.6      4.132      7.428
REMARK  Name = 
REMARK  11 active torsions:
REMARK  status: ('A' for Active; 'I' for Inactive)
REMARK    1  A    between atoms: C_1  and  O_2
REMARK    2  A    between atoms: O_2  and  C_3
REMARK    3  A    between atoms: C_5  and  C_6
REMARK    4  A    between atoms: C_6  and  N_7
REMARK    5  A    between atoms: N_7  and  C_8
REMARK    6  A    between atoms: C_8  and  C_9
REMARK    7  A    between atoms: C_8  and  C_10
REMARK    8  A    between atoms: C_10  and  C_11
REMARK    9  A    between atoms: C_10  and  N_17
REMARK   10  A    between atoms: N_17  and  C_18
REMARK   11  A    between atoms: N_17  and  C_19
REMARK                            x       y       z     vdW  Elec       q    Type
REMARK                         _______ _______ _______ _____ _____    ______ ____
ROOT
ATOM      1  C   UNL     1       2.818   5.149  20.146  0.00  0.00    +0.000 C 
ATOM      2  C   UNL     1       1.398   4.831  20.638  0.00  0.00    +0.000 C 
ENDROOT
BRANCH   1   3
ATOM      3  N   UNL     1       3.010   6.622  20.051  0.00  0.00    +0.000 NA
ATOM      4  H   UNL     1       2.889   7.031  20.976  0.00  0.00    +0.000 HD
BRANCH   3   5
ATOM      5  C   UNL     1       2.114   7.307  19.118  0.00  0.00    +0.000 C 
BRANCH   5   8
ATOM      6  C   UNL     1       0.709  10.069  21.268  0.00  0.00    +0.000 A 
ATOM      7  C   UNL     1       1.252   8.762  21.106  0.00  0.00    +0.000 A 
ATOM      8  C   UNL     1       1.529   8.519  19.770  0.00  0.00    +0.000 A 
ATOM      9  S   UNL     1       1.099   9.909  18.875  0.00  0.00    +0.000 S 
ATOM     10  N   UNL     1       0.574  10.797  20.168  0.00  0.00    +0.000 NA
BRANCH   6  12
ATOM     11  C   UNL     1      -0.692  10.012  23.131  0.00  0.00    +0.000 C 
ATOM     12  O   UNL     1       0.304  10.702  22.395  0.00  0.00    +0.000 OA
ENDBRANCH   6  12
ENDBRANCH   5   8
ENDBRANCH   3   5
ENDBRANCH   1   3
BRANCH   1  13
ATOM     13  C   UNL     1       3.225   4.341  18.840  0.00  0.00    +0.000 C 
BRANCH  13  14
ATOM     14  C   UNL     1       4.571   4.843  18.294  0.00  0.00    +0.000 A 
ATOM     15  C   UNL     1       5.688   5.039  19.124  0.00  0.00    +0.000 A 
ATOM     16  C   UNL     1       6.896   5.509  18.607  0.00  0.00    +0.000 A 
ATOM     17  C   UNL     1       7.000   5.823  17.256  0.00  0.00    +0.000 A 
ATOM     18  C   UNL     1       5.900   5.654  16.418  0.00  0.00    +0.000 A 
ATOM     19  C   UNL     1       4.699   5.159  16.931  0.00  0.00    +0.000 A 
ENDBRANCH  13  14
BRANCH  13  20
ATOM     20  N   UNL     1       3.103   2.857  18.941  0.00  0.00    +0.000 NA
ATOM     21  C   UNL     1       2.713   2.241  17.671  0.00  0.00    +0.000 C 
ATOM     22  C   UNL     1       4.238   2.148  19.519  0.00  0.00    +0.000 C 
ENDBRANCH  13  20
ENDBRANCH   1  13
TORSDOF 7
ENDMDL
MODEL 6
REMARK VINA RESULT:      -6.6      3.958      7.267
REMARK  Name = 
REMARK  11 active torsions:
REMARK  status: ('A' for Active; 'I' for Inactive)
REMARK    1  A    between atoms: C_1  and  O_2
REMARK    2  A    between atoms: O_2  and  C_3
REMARK    3  A    between atoms: C_5  and  C_6
REMARK    4  A    between atoms: C_6  and  N_7
REMARK    5  A    between atoms: N_7  and  C_8
REMARK    6  A    between atoms: C_8  and  C_9
REMARK    7  A    between atoms: C_8  and  C_10
REMARK    8  A    between atoms: C_10  and  C_11
REMARK    9  A    between atoms: C_10  and  N_17
REMARK   10  A    between atoms: N_17  and  C_18
REMARK   11  A    between atoms: N_17  and  C_19
REMARK                            x       y       z     vdW  Elec       q    Type
REMARK                         _______ _______ _______ _____ _____    ______ ____
ROOT
ATOM      1  C   UNL     1       2.475   4.843  19.028  0.00  0.00    +0.000 C 
ATOM      2  C   UNL     1       1.580   4.856  17.779  0.00  0.00    +0.000 C 
ENDROOT
BRANCH   1   3
ATOM      3  N   UNL     1       3.027   6.202  19.279  0.00  0.00    +0.000 NA
ATOM      4  H   UNL     1       3.016   6.382  20.282  0.00  0.00    +0.000 HD
BRANCH   3   5
ATOM      5  C   UNL     1       2.322   7.293  18.603  0.00  0.00    +0.000 C 
BRANCH   5   8
ATOM      6  C   UNL     1       1.014   9.245  21.553  0.00  0.00    +0.000 A 
ATOM      7  C   UNL     1       1.638   8.094  20.991  0.00  0.00    +0.000 A 
ATOM      8  C   UNL     1       1.737   8.226  19.615  0.00  0.00    +0.000 A 
ATOM      9  S   UNL     1       1.064   9.732  19.174  0.00  0.00    +0.000 S 
ATOM     10  N   UNL     1       0.658  10.201  20.707  0.00  0.00    +0.000 NA
BRANCH   6  12
ATOM     11  C   UNL     1      -0.589  10.014  23.063  0.00  0.00    +0.000 C 
ATOM     12  O   UNL     1       0.725   9.525  22.847  0.00  0.00    +0.000 OA
ENDBRANCH   6  12
ENDBRANCH   5   8
ENDBRANCH   3   5
ENDBRANCH   1   3
BRANCH   1  13
ATOM     13  C   UNL     1       3.558   3.679  19.012  0.00  0.00    +0.000 C 
BRANCH  13  14
ATOM     14  C   UNL     1       4.810   4.120  18.238  0.00  0.00    +0.000 A 
ATOM     15  C   UNL     1       5.884   4.774  18.865  0.00  0.00    +0.000 A 
ATOM     16  C   UNL     1       7.005   5.176  18.138  0.00  0.00    +0.000 A 
ATOM     17  C   UNL     1       7.059   4.963  16.765  0.00  0.00    +0.000 A 
ATOM     18  C   UNL     1       5.997   4.334  16.119  0.00  0.00    +0.000 A 
ATOM     19  C   UNL     1       4.886   3.907  16.851  0.00  0.00    +0.000 A 
ENDBRANCH  13  14
BRANCH  13  20
ATOM     20  N   UNL     1       3.828   3.038  20.332  0.00  0.00    +0.000 NA
ATOM     21  C   UNL     1       2.617   2.897  21.143  0.00  0.00    +0.000 C 
ATOM     22  C   UNL     1       4.569   1.784  20.308  0.00  0.00    +0.000 C 
ENDBRANCH  13  20
ENDBRANCH   1  13
TORSDOF 7
ENDMDL
MODEL 7
REMARK VINA RESULT:      -6.6      3.891      7.059
REMARK  Name = 
REMARK  11 active torsions:
REMARK  status: ('A' for Active; 'I' for Inactive)
REMARK    1  A    between atoms: C_1  and  O_2
REMARK    2  A    between atoms: O_2  and  C_3
REMARK    3  A    between atoms: C_5  and  C_6
REMARK    4  A    between atoms: C_6  and  N_7
REMARK    5  A    between atoms: N_7  and  C_8
REMARK    6  A    between atoms: C_8  and  C_9
REMARK    7  A    between atoms: C_8  and  C_10
REMARK    8  A    between atoms: C_10  and  C_11
REMARK    9  A    between atoms: C_10  and  N_17
REMARK   10  A    between atoms: N_17  and  C_18
REMARK   11  A    between atoms: N_17  and  C_19
REMARK                            x       y       z     vdW  Elec       q    Type
REMARK                         _______ _______ _______ _____ _____    ______ ____
ROOT
ATOM      1  C   UNL     1       2.551   4.698  18.482  0.00  0.00    +0.000 C 
ATOM      2  C   UNL     1       1.358   4.365  17.572  0.00  0.00    +0.000 C 
ENDROOT
BRANCH   1   3
ATOM      3  N   UNL     1       2.791   6.167  18.498  0.00  0.00    +0.000 NA
ATOM      4  H   UNL     1       3.771   6.343  18.285  0.00  0.00    +0.000 HD
BRANCH   3   5
ATOM      5  C   UNL     1       2.461   6.836  19.757  0.00  0.00    +0.000 C 
BRANCH   5   8
ATOM      6  C   UNL     1       0.670  10.153  19.616  0.00  0.00    +0.000 A 
ATOM      7  C   UNL     1       1.071   8.975  20.311  0.00  0.00    +0.000 A 
ATOM      8  C   UNL     1       1.818   8.158  19.478  0.00  0.00    +0.000 A 
ATOM      9  S   UNL     1       1.943   8.921  17.955  0.00  0.00    +0.000 S 
ATOM     10  N   UNL     1       1.065  10.263  18.356  0.00  0.00    +0.000 NA
BRANCH   6  12
ATOM     11  C   UNL     1      -0.082  12.315  19.171  0.00  0.00    +0.000 C 
ATOM     12  O   UNL     1      -0.065  11.205  20.053  0.00  0.00    +0.000 OA
ENDBRANCH   6  12
ENDBRANCH   5   8
ENDBRANCH   3   5
ENDBRANCH   1   3
BRANCH   1  13
ATOM     13  C   UNL     1       3.839   3.819  18.176  0.00  0.00    +0.000 C 
BRANCH  13  14
ATOM     14  C   UNL     1       5.079   4.713  18.031  0.00  0.00    +0.000 A 
ATOM     15  C   UNL     1       5.442   5.296  16.805  0.00  0.00    +0.000 A 
ATOM     16  C   UNL     1       6.582   6.094  16.697  0.00  0.00    +0.000 A 
ATOM     17  C   UNL     1       7.399   6.297  17.804  0.00  0.00    +0.000 A 
ATOM     18  C   UNL     1       7.069   5.713  19.025  0.00  0.00    +0.000 A 
ATOM     19  C   UNL     1       5.914   4.935  19.140  0.00  0.00    +0.000 A 
ENDBRANCH  13  14
BRANCH  13  20
ATOM     20  N   UNL     1       4.023   2.626  19.054  0.00  0.00    +0.000 NA
ATOM     21  C   UNL     1       3.334   2.767  20.339  0.00  0.00    +0.000 C 
ATOM     22  C   UNL     1       3.726   1.329  18.462  0.00  0.00    +0.000 C 
ENDBRANCH  13  20
ENDBRANCH   1  13
TORSDOF 7
ENDMDL
MODEL 8
REMARK VINA RESULT:      -6.6      2.484      4.323
REMARK  Name = 
REMARK  11 active torsions:
REMARK  status: ('A' for Active; 'I' for Inactive)
REMARK    1  A    between atoms: C_1  and  O_2
REMARK    2  A    between atoms: O_2  and  C_3
REMARK    3  A    between atoms: C_5  and  C_6
REMARK    4  A    between atoms: C_6  and  N_7
REMARK    5  A    between atoms: N_7  and  C_8
REMARK    6  A    between atoms: C_8  and  C_9
REMARK    7  A    between atoms: C_8  and  C_10
REMARK    8  A    between atoms: C_10  and  C_11
REMARK    9  A    between atoms: C_10  and  N_17
REMARK   10  A    between atoms: N_17  and  C_18
REMARK   11  A    between atoms: N_17  and  C_19
REMARK                            x       y       z     vdW  Elec       q    Type
REMARK                         _______ _______ _______ _____ _____    ______ ____
ROOT
ATOM      1  C   UNL     1       3.295   3.830  18.059  0.00  0.00    +0.000 C 
ATOM      2  C   UNL     1       2.279   2.710  17.794  0.00  0.00    +0.000 C 
ENDROOT
BRANCH   1   3
ATOM      3  N   UNL     1       4.676   3.346  17.787  0.00  0.00    +0.000 NA
ATOM      4  H   UNL     1       5.251   3.507  18.612  0.00  0.00    +0.000 HD
BRANCH   3   5
ATOM      5  C   UNL     1       5.335   3.964  16.634  0.00  0.00    +0.000 C 
BRANCH   5   8
ATOM      6  C   UNL     1       7.102   7.217  17.361  0.00  0.00    +0.000 A 
ATOM      7  C   UNL     1       6.162   6.440  16.623  0.00  0.00    +0.000 A 
ATOM      8  C   UNL     1       6.154   5.133  17.082  0.00  0.00    +0.000 A 
ATOM      9  S   UNL     1       7.288   5.008  18.355  0.00  0.00    +0.000 S 
ATOM     10  N   UNL     1       7.772   6.589  18.317  0.00  0.00    +0.000 NA
BRANCH   6  12
ATOM     11  C   UNL     1       8.394   8.983  18.166  0.00  0.00    +0.000 C 
ATOM     12  O   UNL     1       7.423   8.527  17.239  0.00  0.00    +0.000 OA
ENDBRANCH   6  12
ENDBRANCH   5   8
ENDBRANCH   3   5
ENDBRANCH   1   3
BRANCH   1  13
ATOM     13  C   UNL     1       3.104   4.531  19.472  0.00  0.00    +0.000 C 
BRANCH  13  14
ATOM     14  C   UNL     1       2.620   5.978  19.295  0.00  0.00    +0.000 A 
ATOM     15  C   UNL     1       2.736   6.660  18.073  0.00  0.00    +0.000 A 
ATOM     16  C   UNL     1       2.301   7.980  17.940  0.00  0.00    +0.000 A 
ATOM     17  C   UNL     1       1.773   8.653  19.037  0.00  0.00    +0.000 A 
ATOM     18  C   UNL     1       1.667   8.002  20.265  0.00  0.00    +0.000 A 
ATOM     19  C   UNL     1       2.078   6.673  20.390  0.00  0.00    +0.000 A 
ENDBRANCH  13  14
BRANCH  13  20
ATOM     20  N   UNL     1       2.348   3.735  20.484  0.00  0.00    +0.000 NA
ATOM     21  C   UNL     1       0.975   3.451  20.058  0.00  0.00    +0.000 C 
ATOM     22  C   UNL     1       2.988   2.519  20.968  0.00  0.00    +0.000 C 
ENDBRANCH  13  20
ENDBRANCH   1  13
TORSDOF 7
ENDMDL
MODEL 9
REMARK VINA RESULT:      -6.5      3.676      6.982
REMARK  Name = 
REMARK  11 active torsions:
REMARK  status: ('A' for Active; 'I' for Inactive)
REMARK    1  A    between atoms: C_1  and  O_2
REMARK    2  A    between atoms: O_2  and  C_3
REMARK    3  A    between atoms: C_5  and  C_6
REMARK    4  A    between atoms: C_6  and  N_7
REMARK    5  A    between atoms: N_7  and  C_8
REMARK    6  A    between atoms: C_8  and  C_9
REMARK    7  A    between atoms: C_8  and  C_10
REMARK    8  A    between atoms: C_10  and  C_11
REMARK    9  A    between atoms: C_10  and  N_17
REMARK   10  A    between atoms: N_17  and  C_18
REMARK   11  A    between atoms: N_17  and  C_19
REMARK                            x       y       z     vdW  Elec       q    Type
REMARK                         _______ _______ _______ _____ _____    ______ ____
ROOT
ATOM      1  C   UNL     1       2.347   4.532  18.626  0.00  0.00    +0.000 C 
ATOM      2  C   UNL     1       1.387   4.185  17.478  0.00  0.00    +0.000 C 
ENDROOT
BRANCH   1   3
ATOM      3  N   UNL     1       2.752   5.962  18.542  0.00  0.00    +0.000 NA
ATOM      4  H   UNL     1       3.731   6.011  18.265  0.00  0.00    +0.000 HD
BRANCH   3   5
ATOM      5  C   UNL     1       2.579   6.730  19.776  0.00  0.00    +0.000 C 
BRANCH   5   8
ATOM      6  C   UNL     1       0.727  10.010  19.583  0.00  0.00    +0.000 A 
ATOM      7  C   UNL     1       1.161   8.858  20.300  0.00  0.00    +0.000 A 
ATOM      8  C   UNL     1       1.908   8.032  19.475  0.00  0.00    +0.000 A 
ATOM      9  S   UNL     1       1.994   8.758  17.931  0.00  0.00    +0.000 S 
ATOM     10  N   UNL     1       1.099  10.095  18.313  0.00  0.00    +0.000 NA
BRANCH   6  12
ATOM     11  C   UNL     1       0.652  11.935  20.897  0.00  0.00    +0.000 C 
ATOM     12  O   UNL     1      -0.019  11.060  20.005  0.00  0.00    +0.000 OA
ENDBRANCH   6  12
ENDBRANCH   5   8
ENDBRANCH   3   5
ENDBRANCH   1   3
BRANCH   1  13
ATOM     13  C   UNL     1       3.554   3.507  18.766  0.00  0.00    +0.000 C 
BRANCH  13  14
ATOM     14  C   UNL     1       4.776   4.004  17.978  0.00  0.00    +0.000 A 
ATOM     15  C   UNL     1       4.902   3.808  16.593  0.00  0.00    +0.000 A 
ATOM     16  C   UNL     1       6.028   4.256  15.901  0.00  0.00    +0.000 A 
ATOM     17  C   UNL     1       7.066   4.879  16.588  0.00  0.00    +0.000 A 
ATOM     18  C   UNL     1       6.971   5.066  17.965  0.00  0.00    +0.000 A 
ATOM     19  C   UNL     1       5.831   4.641  18.653  0.00  0.00    +0.000 A 
ENDBRANCH  13  14
BRANCH  13  20
ATOM     20  N   UNL     1       3.847   3.049  20.156  0.00  0.00    +0.000 NA
ATOM     21  C   UNL     1       2.647   3.010  20.995  0.00  0.00    +0.000 C 
ATOM     22  C   UNL     1       4.597   1.807  20.288  0.00  0.00    +0.000 C 
ENDBRANCH  13  20
ENDBRANCH   1  13
TORSDOF 7
ENDMDL
