MODEL 1
REMARK VINA RESULT:      -5.9      0.000      0.000
REMARK  Name = 
REMARK  6 active torsions:
REMARK  status: ('A' for Active; 'I' for Inactive)
REMARK    1  A    between atoms: C_1  and  S_2
REMARK    2  A    between atoms: S_2  and  C_3
REMARK    3  A    between atoms: C_3  and  N_5
REMARK    4  A    between atoms: N_5  and  N_6
REMARK    5  A    between atoms: C_7  and  C_8
REMARK    6  A    between atoms: C_7  and  C_9
REMARK                            x       y       z     vdW  Elec       q    Type
REMARK                         _______ _______ _______ _____ _____    ______ ____
ROOT
ATOM      1  N   UNL     1       4.261   5.313  17.185  0.00  0.00    +0.000 NA
ATOM      2  C   UNL     1       3.289   5.802  17.903  0.00  0.00    +0.000 C 
ATOM      3  C   UNL     1       2.989   7.277  18.083  0.00  0.00    +0.000 C 
ENDROOT
BRANCH   2   4
ATOM      4  C   UNL     1       2.381   4.827  18.616  0.00  0.00    +0.000 A 
ATOM      5  C   UNL     1       1.923   3.689  17.935  0.00  0.00    +0.000 A 
ATOM      6  C   UNL     1       1.075   2.776  18.568  0.00  0.00    +0.000 A 
ATOM      7  C   UNL     1       0.677   2.988  19.886  0.00  0.00    +0.000 A 
ATOM      8  C   UNL     1       1.126   4.113  20.572  0.00  0.00    +0.000 A 
ATOM      9  C   UNL     1       1.973   5.029  19.941  0.00  0.00    +0.000 A 
ENDBRANCH   2   4
BRANCH   1  10
ATOM     10  N   UNL     1       5.102   6.127  16.498  0.00  0.00    +0.000 N 
ATOM     11  H   UNL     1       4.765   6.718  15.750  0.00  0.00    +0.000 HD
BRANCH  10  12
ATOM     12  C   UNL     1       6.467   6.136  16.711  0.00  0.00    +0.000 C 
ATOM     13  S   UNL     1       7.350   7.363  17.423  0.00  0.00    +0.000 S 
BRANCH  12  15
ATOM     14  C   UNL     1       6.572   4.532  14.432  0.00  0.00    +0.000 C 
ATOM     15  S   UNL     1       7.102   4.587  16.158  0.00  0.00    +0.000 S 
ENDBRANCH  12  15
ENDBRANCH  10  12
ENDBRANCH   1  10
TORSDOF 4
ENDMDL
MODEL 2
REMARK VINA RESULT:      -5.9      0.972      1.667
REMARK  Name = 
REMARK  6 active torsions:
REMARK  status: ('A' for Active; 'I' for Inactive)
REMARK    1  A    between atoms: C_1  and  S_2
REMARK    2  A    between atoms: S_2  and  C_3
REMARK    3  A    between atoms: C_3  and  N_5
REMARK    4  A    between atoms: N_5  and  N_6
REMARK    5  A    between atoms: C_7  and  C_8
REMARK    6  A    between atoms: C_7  and  C_9
REMARK                            x       y       z     vdW  Elec       q    Type
REMARK                         _______ _______ _______ _____ _____    ______ ____
ROOT
ATOM      1  N   UNL     1       4.204   4.844  16.945  0.00  0.00    +0.000 NA
ATOM      2  C   UNL     1       3.424   5.469  17.780  0.00  0.00    +0.000 C 
ATOM      3  C   UNL     1       3.393   6.971  17.994  0.00  0.00    +0.000 C 
ENDROOT
BRANCH   2   4
ATOM      4  C   UNL     1       2.469   4.641  18.608  0.00  0.00    +0.000 A 
ATOM      5  C   UNL     1       1.877   3.503  18.040  0.00  0.00    +0.000 A 
ATOM      6  C   UNL     1       0.983   2.723  18.780  0.00  0.00    +0.000 A 
ATOM      7  C   UNL     1       0.673   3.070  20.092  0.00  0.00    +0.000 A 
ATOM      8  C   UNL     1       1.255   4.197  20.666  0.00  0.00    +0.000 A 
ATOM      9  C   UNL     1       2.148   4.979  19.928  0.00  0.00    +0.000 A 
ENDBRANCH   2   4
BRANCH   1  10
ATOM     10  N   UNL     1       5.072   5.525  16.152  0.00  0.00    +0.000 N 
ATOM     11  H   UNL     1       4.807   6.395  15.711  0.00  0.00    +0.000 HD
BRANCH  10  12
ATOM     12  C   UNL     1       6.322   5.036  15.829  0.00  0.00    +0.000 C 
ATOM     13  S   UNL     1       6.882   4.684  14.295  0.00  0.00    +0.000 S 
BRANCH  12  15
ATOM     14  C   UNL     1       7.371   6.634  17.861  0.00  0.00    +0.000 C 
ATOM     15  S   UNL     1       7.249   4.914  17.324  0.00  0.00    +0.000 S 
ENDBRANCH  12  15
ENDBRANCH  10  12
ENDBRANCH   1  10
TORSDOF 4
ENDMDL
MODEL 3
REMARK VINA RESULT:      -5.9      0.732      2.118
REMARK  Name = 
REMARK  6 active torsions:
REMARK  status: ('A' for Active; 'I' for Inactive)
REMARK    1  A    between atoms: C_1  and  S_2
REMARK    2  A    between atoms: S_2  and  C_3
REMARK    3  A    between atoms: C_3  and  N_5
REMARK    4  A    between atoms: N_5  and  N_6
REMARK    5  A    between atoms: C_7  and  C_8
REMARK    6  A    between atoms: C_7  and  C_9
REMARK                            x       y       z     vdW  Elec       q    Type
REMARK                         _______ _______ _______ _____ _____    ______ ____
ROOT
ATOM      1  N   UNL     1       4.147   5.365  17.141  0.00  0.00    +0.000 NA
ATOM      2  C   UNL     1       3.200   5.843  17.897  0.00  0.00    +0.000 C 
ATOM      3  C   UNL     1       2.902   7.315  18.103  0.00  0.00    +0.000 C 
ENDROOT
BRANCH   2   4
ATOM      4  C   UNL     1       2.321   4.858  18.633  0.00  0.00    +0.000 A 
ATOM      5  C   UNL     1       1.995   5.098  19.976  0.00  0.00    +0.000 A 
ATOM      6  C   UNL     1       1.190   4.199  20.683  0.00  0.00    +0.000 A 
ATOM      7  C   UNL     1       0.704   3.054  20.058  0.00  0.00    +0.000 A 
ATOM      8  C   UNL     1       1.021   2.806  18.725  0.00  0.00    +0.000 A 
ATOM      9  C   UNL     1       1.827   3.702  18.016  0.00  0.00    +0.000 A 
ENDBRANCH   2   4
BRANCH   1  10
ATOM     10  N   UNL     1       4.961   6.189  16.432  0.00  0.00    +0.000 N 
ATOM     11  H   UNL     1       4.593   6.989  15.935  0.00  0.00    +0.000 HD
BRANCH  10  12
ATOM     12  C   UNL     1       6.310   5.942  16.271  0.00  0.00    +0.000 C 
ATOM     13  S   UNL     1       7.005   4.962  15.110  0.00  0.00    +0.000 S 
BRANCH  12  15
ATOM     14  C   UNL     1       7.601   5.676  18.728  0.00  0.00    +0.000 C 
ATOM     15  S   UNL     1       7.174   6.901  17.471  0.00  0.00    +0.000 S 
ENDBRANCH  12  15
ENDBRANCH  10  12
ENDBRANCH   1  10
TORSDOF 4
ENDMDL
MODEL 4
REMARK VINA RESULT:      -5.8      1.057      1.101
REMARK  Name = 
REMARK  6 active torsions:
REMARK  status: ('A' for Active; 'I' for Inactive)
REMARK    1  A    between atoms: C_1  and  S_2
REMARK    2  A    between atoms: S_2  and  C_3
REMARK    3  A    between atoms: C_3  and  N_5
REMARK    4  A    between atoms: N_5  and  N_6
REMARK    5  A    between atoms: C_7  and  C_8
REMARK    6  A    between atoms: C_7  and  C_9
REMARK                            x       y       z     vdW  Elec       q    Type
REMARK                         _______ _______ _______ _____ _____    ______ ____
ROOT
ATOM      1  N   UNL     1       4.221   4.585  16.805  0.00  0.00    +0.000 NA
ATOM      2  C   UNL     1       3.511   5.289  17.639  0.00  0.00    +0.000 C 
ATOM      3  C   UNL     1       3.592   6.795  17.804  0.00  0.00    +0.000 C 
ENDROOT
BRANCH   2   4
ATOM      4  C   UNL     1       2.522   4.557  18.516  0.00  0.00    +0.000 A 
ATOM      5  C   UNL     1       1.931   3.374  18.047  0.00  0.00    +0.000 A 
ATOM      6  C   UNL     1       1.007   2.681  18.835  0.00  0.00    +0.000 A 
ATOM      7  C   UNL     1       0.665   3.160  20.097  0.00  0.00    +0.000 A 
ATOM      8  C   UNL     1       1.245   4.333  20.573  0.00  0.00    +0.000 A 
ATOM      9  C   UNL     1       2.169   5.029  19.787  0.00  0.00    +0.000 A 
ENDBRANCH   2   4
BRANCH   1  10
ATOM     10  N   UNL     1       5.113   5.177  15.969  0.00  0.00    +0.000 N 
ATOM     11  H   UNL     1       4.805   5.756  15.200  0.00  0.00    +0.000 HD
BRANCH  10  12
ATOM     12  C   UNL     1       6.473   4.958  16.058  0.00  0.00    +0.000 C 
ATOM     13  S   UNL     1       7.347   4.720  17.463  0.00  0.00    +0.000 S 
BRANCH  12  15
ATOM     14  C   UNL     1       5.964   3.800  13.573  0.00  0.00    +0.000 C 
ATOM     15  S   UNL     1       7.114   4.907  14.417  0.00  0.00    +0.000 S 
ENDBRANCH  12  15
ENDBRANCH  10  12
ENDBRANCH   1  10
TORSDOF 4
ENDMDL
MODEL 5
REMARK VINA RESULT:      -5.8      1.174      1.709
REMARK  Name = 
REMARK  6 active torsions:
REMARK  status: ('A' for Active; 'I' for Inactive)
REMARK    1  A    between atoms: C_1  and  S_2
REMARK    2  A    between atoms: S_2  and  C_3
REMARK    3  A    between atoms: C_3  and  N_5
REMARK    4  A    between atoms: N_5  and  N_6
REMARK    5  A    between atoms: C_7  and  C_8
REMARK    6  A    between atoms: C_7  and  C_9
REMARK                            x       y       z     vdW  Elec       q    Type
REMARK                         _______ _______ _______ _____ _____    ______ ____
ROOT
ATOM      1  N   UNL     1       4.286   4.424  17.112  0.00  0.00    +0.000 NA
ATOM      2  C   UNL     1       3.533   5.144  17.895  0.00  0.00    +0.000 C 
ATOM      3  C   UNL     1       3.487   6.659  17.916  0.00  0.00    +0.000 C 
ENDROOT
BRANCH   2   4
ATOM      4  C   UNL     1       2.628   4.418  18.863  0.00  0.00    +0.000 A 
ATOM      5  C   UNL     1       2.757   4.661  20.239  0.00  0.00    +0.000 A 
ATOM      6  C   UNL     1       1.938   3.998  21.158  0.00  0.00    +0.000 A 
ATOM      7  C   UNL     1       0.983   3.087  20.713  0.00  0.00    +0.000 A 
ATOM      8  C   UNL     1       0.846   2.838  19.350  0.00  0.00    +0.000 A 
ATOM      9  C   UNL     1       1.664   3.499  18.429  0.00  0.00    +0.000 A 
ENDBRANCH   2   4
BRANCH   1  10
ATOM     10  N   UNL     1       5.108   5.007  16.201  0.00  0.00    +0.000 N 
ATOM     11  H   UNL     1       4.737   5.513  15.409  0.00  0.00    +0.000 HD
BRANCH  10  12
ATOM     12  C   UNL     1       6.481   4.872  16.246  0.00  0.00    +0.000 C 
ATOM     13  S   UNL     1       7.420   4.764  17.624  0.00  0.00    +0.000 S 
BRANCH  12  15
ATOM     14  C   UNL     1       5.714   3.908  13.745  0.00  0.00    +0.000 C 
ATOM     15  S   UNL     1       7.062   4.766  14.585  0.00  0.00    +0.000 S 
ENDBRANCH  12  15
ENDBRANCH  10  12
ENDBRANCH   1  10
TORSDOF 4
ENDMDL
MODEL 6
REMARK VINA RESULT:      -5.8      1.994      2.414
REMARK  Name = 
REMARK  6 active torsions:
REMARK  status: ('A' for Active; 'I' for Inactive)
REMARK    1  A    between atoms: C_1  and  S_2
REMARK    2  A    between atoms: S_2  and  C_3
REMARK    3  A    between atoms: C_3  and  N_5
REMARK    4  A    between atoms: N_5  and  N_6
REMARK    5  A    between atoms: C_7  and  C_8
REMARK    6  A    between atoms: C_7  and  C_9
REMARK                            x       y       z     vdW  Elec       q    Type
REMARK                         _______ _______ _______ _____ _____    ______ ____
ROOT
ATOM      1  N   UNL     1       5.531   3.957  19.008  0.00  0.00    +0.000 NA
ATOM      2  C   UNL     1       4.375   3.548  18.567  0.00  0.00    +0.000 C 
ATOM      3  C   UNL     1       4.059   3.205  17.124  0.00  0.00    +0.000 C 
ENDROOT
BRANCH   2   4
ATOM      4  C   UNL     1       3.253   3.397  19.567  0.00  0.00    +0.000 A 
ATOM      5  C   UNL     1       2.034   4.053  19.337  0.00  0.00    +0.000 A 
ATOM      6  C   UNL     1       0.982   3.938  20.250  0.00  0.00    +0.000 A 
ATOM      7  C   UNL     1       1.135   3.168  21.400  0.00  0.00    +0.000 A 
ATOM      8  C   UNL     1       2.339   2.513  21.639  0.00  0.00    +0.000 A 
ATOM      9  C   UNL     1       3.394   2.627  20.729  0.00  0.00    +0.000 A 
ENDBRANCH   2   4
BRANCH   1  10
ATOM     10  N   UNL     1       6.592   4.093  18.171  0.00  0.00    +0.000 N 
ATOM     11  H   UNL     1       7.118   3.289  17.856  0.00  0.00    +0.000 HD
BRANCH  10  12
ATOM     12  C   UNL     1       7.070   5.326  17.773  0.00  0.00    +0.000 C 
ATOM     13  S   UNL     1       7.878   6.431  18.731  0.00  0.00    +0.000 S 
BRANCH  12  15
ATOM     14  C   UNL     1       5.219   6.481  16.036  0.00  0.00    +0.000 C 
ATOM     15  S   UNL     1       6.734   5.497  16.051  0.00  0.00    +0.000 S 
ENDBRANCH  12  15
ENDBRANCH  10  12
ENDBRANCH   1  10
TORSDOF 4
ENDMDL
MODEL 7
REMARK VINA RESULT:      -5.7      0.966      1.849
REMARK  Name = 
REMARK  6 active torsions:
REMARK  status: ('A' for Active; 'I' for Inactive)
REMARK    1  A    between atoms: C_1  and  S_2
REMARK    2  A    between atoms: S_2  and  C_3
REMARK    3  A    between atoms: C_3  and  N_5
REMARK    4  A    between atoms: N_5  and  N_6
REMARK    5  A    between atoms: C_7  and  C_8
REMARK    6  A    between atoms: C_7  and  C_9
REMARK                            x       y       z     vdW  Elec       q    Type
REMARK                         _______ _______ _______ _____ _____    ______ ____
ROOT
ATOM      1  N   UNL     1       4.305   5.389  17.747  0.00  0.00    +0.000 NA
ATOM      2  C   UNL     1       3.179   5.769  18.282  0.00  0.00    +0.000 C 
ATOM      3  C   UNL     1       2.534   7.128  18.094  0.00  0.00    +0.000 C 
ENDROOT
BRANCH   2   4
ATOM      4  C   UNL     1       2.448   4.781  19.161  0.00  0.00    +0.000 A 
ATOM      5  C   UNL     1       1.523   3.899  18.582  0.00  0.00    +0.000 A 
ATOM      6  C   UNL     1       0.826   2.980  19.373  0.00  0.00    +0.000 A 
ATOM      7  C   UNL     1       1.046   2.932  20.747  0.00  0.00    +0.000 A 
ATOM      8  C   UNL     1       1.962   3.802  21.333  0.00  0.00    +0.000 A 
ATOM      9  C   UNL     1       2.659   4.723  20.544  0.00  0.00    +0.000 A 
ENDBRANCH   2   4
BRANCH   1  10
ATOM     10  N   UNL     1       5.005   6.215  16.928  0.00  0.00    +0.000 N 
ATOM     11  H   UNL     1       4.573   7.025  16.505  0.00  0.00    +0.000 HD
BRANCH  10  12
ATOM     12  C   UNL     1       6.309   5.957  16.552  0.00  0.00    +0.000 C 
ATOM     13  S   UNL     1       6.804   4.911  15.347  0.00  0.00    +0.000 S 
BRANCH  12  15
ATOM     14  C   UNL     1       7.737   5.931  18.947  0.00  0.00    +0.000 C 
ATOM     15  S   UNL     1       7.358   6.983  17.530  0.00  0.00    +0.000 S 
ENDBRANCH  12  15
ENDBRANCH  10  12
ENDBRANCH   1  10
TORSDOF 4
ENDMDL
MODEL 8
REMARK VINA RESULT:      -5.7      1.967      2.299
REMARK  Name = 
REMARK  6 active torsions:
REMARK  status: ('A' for Active; 'I' for Inactive)
REMARK    1  A    between atoms: C_1  and  S_2
REMARK    2  A    between atoms: S_2  and  C_3
REMARK    3  A    between atoms: C_3  and  N_5
REMARK    4  A    between atoms: N_5  and  N_6
REMARK    5  A    between atoms: C_7  and  C_8
REMARK    6  A    between atoms: C_7  and  C_9
REMARK                            x       y       z     vdW  Elec       q    Type
REMARK                         _______ _______ _______ _____ _____    ______ ____
ROOT
ATOM      1  N   UNL     1       5.411   3.744  18.893  0.00  0.00    +0.000 NA
ATOM      2  C   UNL     1       4.168   3.849  18.519  0.00  0.00    +0.000 C 
ATOM      3  C   UNL     1       3.700   4.293  17.147  0.00  0.00    +0.000 C 
ENDROOT
BRANCH   2   4
ATOM      4  C   UNL     1       3.098   3.500  19.527  0.00  0.00    +0.000 A 
ATOM      5  C   UNL     1       3.459   2.848  20.715  0.00  0.00    +0.000 A 
ATOM      6  C   UNL     1       2.487   2.506  21.661  0.00  0.00    +0.000 A 
ATOM      7  C   UNL     1       1.149   2.813  21.432  0.00  0.00    +0.000 A 
ATOM      8  C   UNL     1       0.779   3.461  20.256  0.00  0.00    +0.000 A 
ATOM      9  C   UNL     1       1.747   3.803  19.308  0.00  0.00    +0.000 A 
ENDBRANCH   2   4
BRANCH   1  10
ATOM     10  N   UNL     1       6.427   4.018  18.033  0.00  0.00    +0.000 N 
ATOM     11  H   UNL     1       6.750   3.330  17.367  0.00  0.00    +0.000 HD
BRANCH  10  12
ATOM     12  C   UNL     1       7.133   5.204  18.073  0.00  0.00    +0.000 C 
ATOM     13  S   UNL     1       7.960   5.821  19.388  0.00  0.00    +0.000 S 
BRANCH  12  15
ATOM     14  C   UNL     1       6.935   4.475  15.389  0.00  0.00    +0.000 C 
ATOM     15  S   UNL     1       7.062   5.921  16.464  0.00  0.00    +0.000 S 
ENDBRANCH  12  15
ENDBRANCH  10  12
ENDBRANCH   1  10
TORSDOF 4
ENDMDL
MODEL 9
REMARK VINA RESULT:      -5.7      1.371      2.116
REMARK  Name = 
REMARK  6 active torsions:
REMARK  status: ('A' for Active; 'I' for Inactive)
REMARK    1  A    between atoms: C_1  and  S_2
REMARK    2  A    between atoms: S_2  and  C_3
REMARK    3  A    between atoms: C_3  and  N_5
REMARK    4  A    between atoms: N_5  and  N_6
REMARK    5  A    between atoms: C_7  and  C_8
REMARK    6  A    between atoms: C_7  and  C_9
REMARK                            x       y       z     vdW  Elec       q    Type
REMARK                         _______ _______ _______ _____ _____    ______ ____
ROOT
ATOM      1  N   UNL     1       4.597   6.067  17.766  0.00  0.00    +0.000 NA
ATOM      2  C   UNL     1       3.368   6.390  18.051  0.00  0.00    +0.000 C 
ATOM      3  C   UNL     1       2.748   7.757  17.834  0.00  0.00    +0.000 C 
ENDROOT
BRANCH   2   4
ATOM      4  C   UNL     1       2.478   5.324  18.647  0.00  0.00    +0.000 A 
ATOM      5  C   UNL     1       2.134   5.395  20.005  0.00  0.00    +0.000 A 
ATOM      6  C   UNL     1       1.319   4.417  20.584  0.00  0.00    +0.000 A 
ATOM      7  C   UNL     1       0.840   3.360  19.814  0.00  0.00    +0.000 A 
ATOM      8  C   UNL     1       1.175   3.279  18.465  0.00  0.00    +0.000 A 
ATOM      9  C   UNL     1       1.991   4.255  17.884  0.00  0.00    +0.000 A 
ENDBRANCH   2   4
BRANCH   1  10
ATOM     10  N   UNL     1       5.447   6.966  17.207  0.00  0.00    +0.000 N 
ATOM     11  H   UNL     1       5.135   7.607  16.490  0.00  0.00    +0.000 HD
BRANCH  10  12
ATOM     12  C   UNL     1       6.793   7.006  17.513  0.00  0.00    +0.000 C 
ATOM     13  S   UNL     1       7.748   8.373  17.602  0.00  0.00    +0.000 S 
BRANCH  12  15
ATOM     14  C   UNL     1       7.957   5.485  19.540  0.00  0.00    +0.000 C 
ATOM     15  S   UNL     1       7.309   5.356  17.860  0.00  0.00    +0.000 S 
ENDBRANCH  12  15
ENDBRANCH  10  12
ENDBRANCH   1  10
TORSDOF 4
ENDMDL
