MODEL 1
REMARK VINA RESULT:      -7.2      0.000      0.000
REMARK  Name = 
REMARK  4 active torsions:
REMARK  status: ('A' for Active; 'I' for Inactive)
REMARK    1  A    between atoms: C_1  and  C_2
REMARK    2  A    between atoms: C_6  and  C_7
REMARK    3  A    between atoms: N_9  and  N_10
REMARK    4  A    between atoms: N_10  and  C_11
REMARK                            x       y       z     vdW  Elec       q    Type
REMARK                         _______ _______ _______ _____ _____    ______ ____
ROOT
ATOM      1  C   UNL     1       6.345   4.616  16.087  0.00  0.00    +0.000 C 
ATOM      2 CL   UNL     1       7.028   5.908  17.042  0.00  0.00    +0.000 Cl
ATOM      3  N   UNL     1       5.552   3.749  16.653  0.00  0.00    +0.000 NA
ENDROOT
BRANCH   1   9
ATOM      4  C   UNL     1       5.297   2.552  11.618  0.00  0.00    +0.000 C 
ATOM      5  C   UNL     1       6.107   3.510  12.444  0.00  0.00    +0.000 A 
ATOM      6  C   UNL     1       7.083   4.315  11.849  0.00  0.00    +0.000 A 
ATOM      7  C   UNL     1       7.831   5.200  12.626  0.00  0.00    +0.000 A 
ATOM      8  C   UNL     1       7.610   5.287  14.001  0.00  0.00    +0.000 A 
ATOM      9  C   UNL     1       6.632   4.497  14.617  0.00  0.00    +0.000 A 
ATOM     10  C   UNL     1       5.886   3.606  13.827  0.00  0.00    +0.000 A 
ENDBRANCH   1   9
BRANCH   3  11
ATOM     11  N   UNL     1       5.241   3.912  17.969  0.00  0.00    +0.000 N 
ATOM     12  H   UNL     1       5.968   3.934  18.681  0.00  0.00    +0.000 HD
BRANCH  11  13
ATOM     13  C   UNL     1       3.911   3.772  18.397  0.00  0.00    +0.000 A 
ATOM     14  C   UNL     1       3.594   3.146  19.611  0.00  0.00    +0.000 A 
ATOM     15  C   UNL     1       2.268   2.971  20.011  0.00  0.00    +0.000 A 
ATOM     16  C   UNL     1       1.232   3.415  19.197  0.00  0.00    +0.000 A 
ATOM     17  C   UNL     1       1.523   4.023  17.977  0.00  0.00    +0.000 A 
ATOM     18  C   UNL     1       2.855   4.191  17.576  0.00  0.00    +0.000 A 
ENDBRANCH  11  13
ENDBRANCH   3  11
TORSDOF 3
ENDMDL
MODEL 2
REMARK VINA RESULT:      -7.1      1.133      1.163
REMARK  Name = 
REMARK  4 active torsions:
REMARK  status: ('A' for Active; 'I' for Inactive)
REMARK    1  A    between atoms: C_1  and  C_2
REMARK    2  A    between atoms: C_6  and  C_7
REMARK    3  A    between atoms: N_9  and  N_10
REMARK    4  A    between atoms: N_10  and  C_11
REMARK                            x       y       z     vdW  Elec       q    Type
REMARK                         _______ _______ _______ _____ _____    ______ ____
ROOT
ATOM      1  C   UNL     1       6.077   4.970  16.068  0.00  0.00    +0.000 C 
ATOM      2 CL   UNL     1       7.121   4.518  17.393  0.00  0.00    +0.000 Cl
ATOM      3  N   UNL     1       4.951   5.579  16.318  0.00  0.00    +0.000 NA
ENDROOT
BRANCH   1   9
ATOM      4  C   UNL     1       5.196   2.583  11.726  0.00  0.00    +0.000 C 
ATOM      5  C   UNL     1       6.019   3.551  12.528  0.00  0.00    +0.000 A 
ATOM      6  C   UNL     1       7.098   4.222  11.946  0.00  0.00    +0.000 A 
ATOM      7  C   UNL     1       7.857   5.117  12.701  0.00  0.00    +0.000 A 
ATOM      8  C   UNL     1       7.543   5.348  14.041  0.00  0.00    +0.000 A 
ATOM      9  C   UNL     1       6.461   4.693  14.643  0.00  0.00    +0.000 A 
ATOM     10  C   UNL     1       5.705   3.791  13.875  0.00  0.00    +0.000 A 
ENDBRANCH   1   9
BRANCH   3  11
ATOM     11  N   UNL     1       4.649   5.890  17.609  0.00  0.00    +0.000 N 
ATOM     12  H   UNL     1       5.313   6.389  18.197  0.00  0.00    +0.000 HD
BRANCH  11  13
ATOM     13  C   UNL     1       3.544   5.290  18.233  0.00  0.00    +0.000 A 
ATOM     14  C   UNL     1       3.273   5.492  19.594  0.00  0.00    +0.000 A 
ATOM     15  C   UNL     1       2.197   4.860  20.220  0.00  0.00    +0.000 A 
ATOM     16  C   UNL     1       1.374   4.005  19.493  0.00  0.00    +0.000 A 
ATOM     17  C   UNL     1       1.637   3.775  18.144  0.00  0.00    +0.000 A 
ATOM     18  C   UNL     1       2.721   4.407  17.521  0.00  0.00    +0.000 A 
ENDBRANCH  11  13
ENDBRANCH   3  11
TORSDOF 3
ENDMDL
MODEL 3
REMARK VINA RESULT:      -7.1      1.147      1.480
REMARK  Name = 
REMARK  4 active torsions:
REMARK  status: ('A' for Active; 'I' for Inactive)
REMARK    1  A    between atoms: C_1  and  C_2
REMARK    2  A    between atoms: C_6  and  C_7
REMARK    3  A    between atoms: N_9  and  N_10
REMARK    4  A    between atoms: N_10  and  C_11
REMARK                            x       y       z     vdW  Elec       q    Type
REMARK                         _______ _______ _______ _____ _____    ______ ____
ROOT
ATOM      1  C   UNL     1       5.892   4.966  16.151  0.00  0.00    +0.000 C 
ATOM      2 CL   UNL     1       6.973   4.614  17.475  0.00  0.00    +0.000 Cl
ATOM      3  N   UNL     1       4.729   5.502  16.397  0.00  0.00    +0.000 NA
ENDROOT
BRANCH   1   9
ATOM      4  C   UNL     1       4.839   2.878  11.694  0.00  0.00    +0.000 C 
ATOM      5  C   UNL     1       5.761   3.691  12.558  0.00  0.00    +0.000 A 
ATOM      6  C   UNL     1       6.944   4.220  12.036  0.00  0.00    +0.000 A 
ATOM      7  C   UNL     1       7.795   4.971  12.848  0.00  0.00    +0.000 A 
ATOM      8  C   UNL     1       7.468   5.199  14.186  0.00  0.00    +0.000 A 
ATOM      9  C   UNL     1       6.284   4.685  14.728  0.00  0.00    +0.000 A 
ATOM     10  C   UNL     1       5.436   3.928  13.903  0.00  0.00    +0.000 A 
ENDBRANCH   1   9
BRANCH   3  11
ATOM     11  N   UNL     1       4.416   5.819  17.684  0.00  0.00    +0.000 N 
ATOM     12  H   UNL     1       5.045   6.381  18.254  0.00  0.00    +0.000 HD
BRANCH  11  13
ATOM     13  C   UNL     1       3.366   5.151  18.334  0.00  0.00    +0.000 A 
ATOM     14  C   UNL     1       2.494   4.303  17.637  0.00  0.00    +0.000 A 
ATOM     15  C   UNL     1       1.425   3.676  18.280  0.00  0.00    +0.000 A 
ATOM     16  C   UNL     1       1.205   3.893  19.637  0.00  0.00    +0.000 A 
ATOM     17  C   UNL     1       2.048   4.747  20.345  0.00  0.00    +0.000 A 
ATOM     18  C   UNL     1       3.116   5.380  19.694  0.00  0.00    +0.000 A 
ENDBRANCH  11  13
ENDBRANCH   3  11
TORSDOF 3
ENDMDL
MODEL 4
REMARK VINA RESULT:      -7.1      3.319      6.756
REMARK  Name = 
REMARK  4 active torsions:
REMARK  status: ('A' for Active; 'I' for Inactive)
REMARK    1  A    between atoms: C_1  and  C_2
REMARK    2  A    between atoms: C_6  and  C_7
REMARK    3  A    between atoms: N_9  and  N_10
REMARK    4  A    between atoms: N_10  and  C_11
REMARK                            x       y       z     vdW  Elec       q    Type
REMARK                         _______ _______ _______ _____ _____    ______ ____
ROOT
ATOM      1  C   UNL     1       4.685   3.684  17.963  0.00  0.00    +0.000 C 
ATOM      2 CL   UNL     1       4.961   3.647  16.240  0.00  0.00    +0.000 Cl
ATOM      3  N   UNL     1       5.677   3.954  18.766  0.00  0.00    +0.000 NA
ENDROOT
BRANCH   1   9
ATOM      4  C   UNL     1       1.787   2.633  21.941  0.00  0.00    +0.000 C 
ATOM      5  C   UNL     1       1.913   2.946  20.477  0.00  0.00    +0.000 A 
ATOM      6  C   UNL     1       0.777   3.049  19.670  0.00  0.00    +0.000 A 
ATOM      7  C   UNL     1       0.905   3.338  18.311  0.00  0.00    +0.000 A 
ATOM      8  C   UNL     1       2.170   3.524  17.750  0.00  0.00    +0.000 A 
ATOM      9  C   UNL     1       3.321   3.433  18.540  0.00  0.00    +0.000 A 
ATOM     10  C   UNL     1       3.182   3.139  19.907  0.00  0.00    +0.000 A 
ENDBRANCH   1   9
BRANCH   3  11
ATOM     11  N   UNL     1       6.891   4.252  18.226  0.00  0.00    +0.000 N 
ATOM     12  H   UNL     1       7.596   3.530  18.090  0.00  0.00    +0.000 HD
BRANCH  11  13
ATOM     13  C   UNL     1       7.296   5.591  18.108  0.00  0.00    +0.000 A 
ATOM     14  C   UNL     1       8.108   6.199  19.075  0.00  0.00    +0.000 A 
ATOM     15  C   UNL     1       8.472   7.543  18.974  0.00  0.00    +0.000 A 
ATOM     16  C   UNL     1       8.022   8.307  17.902  0.00  0.00    +0.000 A 
ATOM     17  C   UNL     1       7.198   7.728  16.939  0.00  0.00    +0.000 A 
ATOM     18  C   UNL     1       6.829   6.380  17.048  0.00  0.00    +0.000 A 
ENDBRANCH  11  13
ENDBRANCH   3  11
TORSDOF 3
ENDMDL
MODEL 5
REMARK VINA RESULT:      -7.1      3.333      6.875
REMARK  Name = 
REMARK  4 active torsions:
REMARK  status: ('A' for Active; 'I' for Inactive)
REMARK    1  A    between atoms: C_1  and  C_2
REMARK    2  A    between atoms: C_6  and  C_7
REMARK    3  A    between atoms: N_9  and  N_10
REMARK    4  A    between atoms: N_10  and  C_11
REMARK                            x       y       z     vdW  Elec       q    Type
REMARK                         _______ _______ _______ _____ _____    ______ ____
ROOT
ATOM      1  C   UNL     1       4.604   3.717  17.978  0.00  0.00    +0.000 C 
ATOM      2 CL   UNL     1       4.859   3.757  16.252  0.00  0.00    +0.000 Cl
ATOM      3  N   UNL     1       5.606   3.948  18.781  0.00  0.00    +0.000 NA
ENDROOT
BRANCH   1   9
ATOM      4  C   UNL     1       1.744   2.556  21.953  0.00  0.00    +0.000 C 
ATOM      5  C   UNL     1       1.857   2.903  20.496  0.00  0.00    +0.000 A 
ATOM      6  C   UNL     1       0.714   3.017  19.700  0.00  0.00    +0.000 A 
ATOM      7  C   UNL     1       0.829   3.337  18.347  0.00  0.00    +0.000 A 
ATOM      8  C   UNL     1       2.088   3.545  17.781  0.00  0.00    +0.000 A 
ATOM      9  C   UNL     1       3.247   3.444  18.560  0.00  0.00    +0.000 A 
ATOM     10  C   UNL     1       3.119   3.118  19.921  0.00  0.00    +0.000 A 
ENDBRANCH   1   9
BRANCH   3  11
ATOM     11  N   UNL     1       6.815   4.267  18.240  0.00  0.00    +0.000 N 
ATOM     12  H   UNL     1       7.525   3.554  18.087  0.00  0.00    +0.000 HD
BRANCH  11  13
ATOM     13  C   UNL     1       7.207   5.612  18.143  0.00  0.00    +0.000 A 
ATOM     14  C   UNL     1       6.829   6.408  17.054  0.00  0.00    +0.000 A 
ATOM     15  C   UNL     1       7.257   7.732  16.941  0.00  0.00    +0.000 A 
ATOM     16  C   UNL     1       8.080   8.282  17.919  0.00  0.00    +0.000 A 
ATOM     17  C   UNL     1       8.483   7.502  19.001  0.00  0.00    +0.000 A 
ATOM     18  C   UNL     1       8.057   6.172  19.107  0.00  0.00    +0.000 A 
ENDBRANCH  11  13
ENDBRANCH   3  11
TORSDOF 3
ENDMDL
MODEL 6
REMARK VINA RESULT:      -7.1      0.340      1.210
REMARK  Name = 
REMARK  4 active torsions:
REMARK  status: ('A' for Active; 'I' for Inactive)
REMARK    1  A    between atoms: C_1  and  C_2
REMARK    2  A    between atoms: C_6  and  C_7
REMARK    3  A    between atoms: N_9  and  N_10
REMARK    4  A    between atoms: N_10  and  C_11
REMARK                            x       y       z     vdW  Elec       q    Type
REMARK                         _______ _______ _______ _____ _____    ______ ____
ROOT
ATOM      1  C   UNL     1       6.041   4.810  16.001  0.00  0.00    +0.000 C 
ATOM      2 CL   UNL     1       5.989   6.414  16.686  0.00  0.00    +0.000 Cl
ATOM      3  N   UNL     1       5.716   3.785  16.740  0.00  0.00    +0.000 NA
ENDROOT
BRANCH   1   9
ATOM      4  C   UNL     1       5.196   2.552  11.583  0.00  0.00    +0.000 C 
ATOM      5  C   UNL     1       6.003   3.506  12.416  0.00  0.00    +0.000 A 
ATOM      6  C   UNL     1       7.071   4.213  11.856  0.00  0.00    +0.000 A 
ATOM      7  C   UNL     1       7.815   5.095  12.639  0.00  0.00    +0.000 A 
ATOM      8  C   UNL     1       7.498   5.277  13.987  0.00  0.00    +0.000 A 
ATOM      9  C   UNL     1       6.428   4.586  14.567  0.00  0.00    +0.000 A 
ATOM     10  C   UNL     1       5.686   3.697  13.771  0.00  0.00    +0.000 A 
ENDBRANCH   1   9
BRANCH   3  11
ATOM     11  N   UNL     1       5.296   4.009  18.016  0.00  0.00    +0.000 N 
ATOM     12  H   UNL     1       5.964   4.133  18.774  0.00  0.00    +0.000 HD
BRANCH  11  13
ATOM     13  C   UNL     1       3.951   3.796  18.358  0.00  0.00    +0.000 A 
ATOM     14  C   UNL     1       2.912   4.098  17.468  0.00  0.00    +0.000 A 
ATOM     15  C   UNL     1       1.575   3.924  17.829  0.00  0.00    +0.000 A 
ATOM     16  C   UNL     1       1.253   3.450  19.097  0.00  0.00    +0.000 A 
ATOM     17  C   UNL     1       2.269   3.161  20.005  0.00  0.00    +0.000 A 
ATOM     18  C   UNL     1       3.610   3.343  19.640  0.00  0.00    +0.000 A 
ENDBRANCH  11  13
ENDBRANCH   3  11
TORSDOF 3
ENDMDL
MODEL 7
REMARK VINA RESULT:      -7.0      0.896      6.912
REMARK  Name = 
REMARK  4 active torsions:
REMARK  status: ('A' for Active; 'I' for Inactive)
REMARK    1  A    between atoms: C_1  and  C_2
REMARK    2  A    between atoms: C_6  and  C_7
REMARK    3  A    between atoms: N_9  and  N_10
REMARK    4  A    between atoms: N_10  and  C_11
REMARK                            x       y       z     vdW  Elec       q    Type
REMARK                         _______ _______ _______ _____ _____    ______ ____
ROOT
ATOM      1  C   UNL     1       4.848   4.396  17.793  0.00  0.00    +0.000 C 
ATOM      2 CL   UNL     1       6.126   5.004  18.814  0.00  0.00    +0.000 Cl
ATOM      3  N   UNL     1       5.046   4.295  16.508  0.00  0.00    +0.000 NA
ENDROOT
BRANCH   1   9
ATOM      4  C   UNL     1       2.105   2.992  21.772  0.00  0.00    +0.000 C 
ATOM      5  C   UNL     1       2.194   3.304  20.306  0.00  0.00    +0.000 A 
ATOM      6  C   UNL     1       1.058   3.239  19.493  0.00  0.00    +0.000 A 
ATOM      7  C   UNL     1       1.151   3.528  18.132  0.00  0.00    +0.000 A 
ATOM      8  C   UNL     1       2.380   3.884  17.573  0.00  0.00    +0.000 A 
ATOM      9  C   UNL     1       3.529   3.963  18.369  0.00  0.00    +0.000 A 
ATOM     10  C   UNL     1       3.425   3.667  19.738  0.00  0.00    +0.000 A 
ENDBRANCH   1   9
BRANCH   3  11
ATOM     11  N   UNL     1       6.270   4.621  16.009  0.00  0.00    +0.000 N 
ATOM     12  H   UNL     1       6.948   5.129  16.573  0.00  0.00    +0.000 HD
BRANCH  11  13
ATOM     13  C   UNL     1       6.516   4.514  14.631  0.00  0.00    +0.000 A 
ATOM     14  C   UNL     1       5.811   3.605  13.830  0.00  0.00    +0.000 A 
ATOM     15  C   UNL     1       6.090   3.472  12.468  0.00  0.00    +0.000 A 
ATOM     16  C   UNL     1       7.088   4.246  11.883  0.00  0.00    +0.000 A 
ATOM     17  C   UNL     1       7.813   5.142  12.665  0.00  0.00    +0.000 A 
ATOM     18  C   UNL     1       7.535   5.267  14.033  0.00  0.00    +0.000 A 
ENDBRANCH  11  13
ENDBRANCH   3  11
TORSDOF 3
ENDMDL
MODEL 8
REMARK VINA RESULT:      -6.9      0.947      6.875
REMARK  Name = 
REMARK  4 active torsions:
REMARK  status: ('A' for Active; 'I' for Inactive)
REMARK    1  A    between atoms: C_1  and  C_2
REMARK    2  A    between atoms: C_6  and  C_7
REMARK    3  A    between atoms: N_9  and  N_10
REMARK    4  A    between atoms: N_10  and  C_11
REMARK                            x       y       z     vdW  Elec       q    Type
REMARK                         _______ _______ _______ _____ _____    ______ ____
ROOT
ATOM      1  C   UNL     1       4.852   4.497  17.730  0.00  0.00    +0.000 C 
ATOM      2 CL   UNL     1       6.255   4.800  18.724  0.00  0.00    +0.000 Cl
ATOM      3  N   UNL     1       4.925   4.689  16.442  0.00  0.00    +0.000 NA
ENDROOT
BRANCH   1   9
ATOM      4  C   UNL     1       2.282   2.842  21.728  0.00  0.00    +0.000 C 
ATOM      5  C   UNL     1       2.315   3.214  20.274  0.00  0.00    +0.000 A 
ATOM      6  C   UNL     1       1.158   3.141  19.493  0.00  0.00    +0.000 A 
ATOM      7  C   UNL     1       1.200   3.487  18.142  0.00  0.00    +0.000 A 
ATOM      8  C   UNL     1       2.398   3.908  17.562  0.00  0.00    +0.000 A 
ATOM      9  C   UNL     1       3.568   3.996  18.326  0.00  0.00    +0.000 A 
ATOM     10  C   UNL     1       3.516   3.642  19.685  0.00  0.00    +0.000 A 
ENDBRANCH   1   9
BRANCH   3  11
ATOM     11  N   UNL     1       6.116   5.073  15.906  0.00  0.00    +0.000 N 
ATOM     12  H   UNL     1       6.693   5.778  16.360  0.00  0.00    +0.000 HD
BRANCH  11  13
ATOM     13  C   UNL     1       6.438   4.715  14.587  0.00  0.00    +0.000 A 
ATOM     14  C   UNL     1       7.506   5.315  13.905  0.00  0.00    +0.000 A 
ATOM     15  C   UNL     1       7.795   4.986  12.579  0.00  0.00    +0.000 A 
ATOM     16  C   UNL     1       7.012   4.052  11.908  0.00  0.00    +0.000 A 
ATOM     17  C   UNL     1       5.934   3.457  12.560  0.00  0.00    +0.000 A 
ATOM     18  C   UNL     1       5.644   3.795  13.889  0.00  0.00    +0.000 A 
ENDBRANCH  11  13
ENDBRANCH   3  11
TORSDOF 3
ENDMDL
MODEL 9
REMARK VINA RESULT:      -6.9      1.270      6.811
REMARK  Name = 
REMARK  4 active torsions:
REMARK  status: ('A' for Active; 'I' for Inactive)
REMARK    1  A    between atoms: C_1  and  C_2
REMARK    2  A    between atoms: C_6  and  C_7
REMARK    3  A    between atoms: N_9  and  N_10
REMARK    4  A    between atoms: N_10  and  C_11
REMARK                            x       y       z     vdW  Elec       q    Type
REMARK                         _______ _______ _______ _____ _____    ______ ____
ROOT
ATOM      1  C   UNL     1       4.615   4.972  16.954  0.00  0.00    +0.000 C 
ATOM      2 CL   UNL     1       4.743   6.675  16.596  0.00  0.00    +0.000 Cl
ATOM      3  N   UNL     1       5.543   4.156  16.536  0.00  0.00    +0.000 NA
ENDROOT
BRANCH   1   9
ATOM      4  C   UNL     1       1.420   5.431  20.816  0.00  0.00    +0.000 C 
ATOM      5  C   UNL     1       1.902   4.663  19.619  0.00  0.00    +0.000 A 
ATOM      6  C   UNL     1       1.265   3.483  19.225  0.00  0.00    +0.000 A 
ATOM      7  C   UNL     1       1.722   2.776  18.113  0.00  0.00    +0.000 A 
ATOM      8  C   UNL     1       2.819   3.244  17.386  0.00  0.00    +0.000 A 
ATOM      9  C   UNL     1       3.468   4.427  17.757  0.00  0.00    +0.000 A 
ATOM     10  C   UNL     1       3.001   5.130  18.880  0.00  0.00    +0.000 A 
ENDBRANCH   1   9
BRANCH   3  11
ATOM     11  N   UNL     1       6.615   4.673  15.874  0.00  0.00    +0.000 N 
ATOM     12  H   UNL     1       7.246   5.330  16.328  0.00  0.00    +0.000 HD
BRANCH  11  13
ATOM     13  C   UNL     1       6.712   4.530  14.480  0.00  0.00    +0.000 A 
ATOM     14  C   UNL     1       5.950   3.580  13.786  0.00  0.00    +0.000 A 
ATOM     15  C   UNL     1       6.082   3.413  12.406  0.00  0.00    +0.000 A 
ATOM     16  C   UNL     1       6.989   4.193  11.695  0.00  0.00    +0.000 A 
ATOM     17  C   UNL     1       7.771   5.130  12.368  0.00  0.00    +0.000 A 
ATOM     18  C   UNL     1       7.639   5.290  13.754  0.00  0.00    +0.000 A 
ENDBRANCH  11  13
ENDBRANCH   3  11
TORSDOF 3
ENDMDL
