MODEL 1
REMARK VINA RESULT:      -8.6      0.000      0.000
REMARK  Name = 
REMARK  9 active torsions:
REMARK  status: ('A' for Active; 'I' for Inactive)
REMARK    1  A    between atoms: C_1  and  C_2
REMARK    2  A    between atoms: C_2  and  N_3
REMARK    3  A    between atoms: C_2  and  C_12
REMARK    4  A    between atoms: C_4  and  C_6
REMARK    5  A    between atoms: C_15  and  C_16
REMARK    6  A    between atoms: C_16  and  N_17
REMARK    7  A    between atoms: C_22  and  O_23
REMARK    8  A    between atoms: O_23  and  C_24
REMARK    9  A    between atoms: C_24  and  C_25
REMARK                            x       y       z     vdW  Elec       q    Type
REMARK                         _______ _______ _______ _____ _____    ______ ____
ROOT
ATOM      1  C   UNL     1       1.972   7.433  19.383  0.00  0.00    +0.000 A 
ATOM      2  C   UNL     1       1.331   8.196  20.374  0.00  0.00    +0.000 A 
ATOM      3  C   UNL     1       0.984   9.533  20.145  0.00  0.00    +0.000 A 
ATOM      4  C   UNL     1       1.262  10.127  18.911  0.00  0.00    +0.000 A 
ATOM      5  C   UNL     1       1.956   9.392  17.946  0.00  0.00    +0.000 A 
ATOM      6  C   UNL     1       2.294   8.059  18.170  0.00  0.00    +0.000 A 
ENDROOT
BRANCH   1   8
ATOM      7  C   UNL     1       1.668   5.440  20.972  0.00  0.00    +0.000 C 
ATOM      8  C   UNL     1       2.200   5.949  19.627  0.00  0.00    +0.000 C 
BRANCH   8   9
ATOM      9  N   UNL     1       3.626   5.665  19.508  0.00  0.00    +0.000 N 
ATOM     10  C   UNL     1       4.091   4.580  18.801  0.00  0.00    +0.000 C 
ATOM     11  O   UNL     1       3.341   3.813  18.198  0.00  0.00    +0.000 OA
ATOM     12  H   UNL     1       4.267   6.273  20.000  0.00  0.00    +0.000 HD
BRANCH  10  13
ATOM     13  C   UNL     1       5.608   4.340  18.885  0.00  0.00    +0.000 C 
ATOM     14  C   UNL     1       6.437   5.555  19.275  0.00  0.00    +0.000 C 
ATOM     15  C   UNL     1       7.733   5.410  18.477  0.00  0.00    +0.000 C 
ATOM     16  C   UNL     1       7.299   4.620  17.274  0.00  0.00    +0.000 C 
ATOM     17  O   UNL     1       7.899   4.523  16.219  0.00  0.00    +0.000 OA
ATOM     18  N   UNL     1       6.125   3.983  17.589  0.00  0.00    +0.000 N 
ATOM     19  H   UNL     1       5.598   3.457  16.898  0.00  0.00    +0.000 HD
ENDBRANCH  10  13
ENDBRANCH   8   9
ENDBRANCH   1   8
BRANCH   4  20
ATOM     20  C   UNL     1       0.745  11.493  18.547  0.00  0.00    +0.000 C 
BRANCH  20  21
ATOM     21  N   UNL     1      -0.664  11.745  18.719  0.00  0.00    +0.000 NA
ATOM     22  C   UNL     1      -1.624  11.231  17.750  0.00  0.00    +0.000 C 
ATOM     23  C   UNL     1      -3.076  11.517  18.132  0.00  0.00    +0.000 A 
ATOM     24  C   UNL     1      -4.116  11.175  17.259  0.00  0.00    +0.000 A 
ATOM     25  C   UNL     1      -5.438  11.518  17.566  0.00  0.00    +0.000 A 
ATOM     26  C   UNL     1      -5.743  12.185  18.755  0.00  0.00    +0.000 A 
ATOM     27  C   UNL     1      -4.729  12.452  19.669  0.00  0.00    +0.000 A 
ATOM     28  C   UNL     1      -3.398  12.171  19.341  0.00  0.00    +0.000 A 
ATOM     29  C   UNL     1      -2.293  12.635  20.258  0.00  0.00    +0.000 C 
ATOM     30  F   UNL     1      -1.960  11.693  21.190  0.00  0.00    +0.000 F 
ATOM     31  C   UNL     1      -1.057  12.965  19.404  0.00  0.00    +0.000 C 
BRANCH  26  32
ATOM     32  O   UNL     1      -7.051  12.552  18.913  0.00  0.00    +0.000 OA
BRANCH  32  33
ATOM     33  C   UNL     1      -7.566  13.455  17.929  0.00  0.00    +0.000 C 
BRANCH  33  34
ATOM     34  C   UNL     1      -7.009  14.819  18.198  0.00  0.00    +0.000 C 
ATOM     35  C   UNL     1      -6.936  15.853  17.105  0.00  0.00    +0.000 C 
ATOM     36  C   UNL     1      -7.913  16.025  18.234  0.00  0.00    +0.000 C 
ENDBRANCH  33  34
ENDBRANCH  32  33
ENDBRANCH  26  32
ENDBRANCH  20  21
ENDBRANCH   4  20
TORSDOF 8
ENDMDL
MODEL 2
REMARK VINA RESULT:      -8.1      2.500      3.096
REMARK  Name = 
REMARK  9 active torsions:
REMARK  status: ('A' for Active; 'I' for Inactive)
REMARK    1  A    between atoms: C_1  and  C_2
REMARK    2  A    between atoms: C_2  and  N_3
REMARK    3  A    between atoms: C_2  and  C_12
REMARK    4  A    between atoms: C_4  and  C_6
REMARK    5  A    between atoms: C_15  and  C_16
REMARK    6  A    between atoms: C_16  and  N_17
REMARK    7  A    between atoms: C_22  and  O_23
REMARK    8  A    between atoms: O_23  and  C_24
REMARK    9  A    between atoms: C_24  and  C_25
REMARK                            x       y       z     vdW  Elec       q    Type
REMARK                         _______ _______ _______ _____ _____    ______ ____
ROOT
ATOM      1  C   UNL     1       1.898   6.751  19.783  0.00  0.00    +0.000 A 
ATOM      2  C   UNL     1       2.102   7.498  18.609  0.00  0.00    +0.000 A 
ATOM      3  C   UNL     1       1.748   8.850  18.542  0.00  0.00    +0.000 A 
ATOM      4  C   UNL     1       1.193   9.485  19.656  0.00  0.00    +0.000 A 
ATOM      5  C   UNL     1       0.930   8.732  20.804  0.00  0.00    +0.000 A 
ATOM      6  C   UNL     1       1.290   7.388  20.874  0.00  0.00    +0.000 A 
ENDROOT
BRANCH   1   8
ATOM      7  C   UNL     1       2.248   4.652  21.217  0.00  0.00    +0.000 C 
ATOM      8  C   UNL     1       2.427   5.328  19.853  0.00  0.00    +0.000 C 
BRANCH   8   9
ATOM      9  N   UNL     1       3.836   5.329  19.473  0.00  0.00    +0.000 N 
ATOM     10  C   UNL     1       4.387   4.308  18.734  0.00  0.00    +0.000 C 
ATOM     11  O   UNL     1       3.723   3.358  18.319  0.00  0.00    +0.000 OA
ATOM     12  H   UNL     1       4.410   6.092  19.807  0.00  0.00    +0.000 HD
BRANCH  10  13
ATOM     13  C   UNL     1       5.911   4.387  18.533  0.00  0.00    +0.000 C 
ATOM     14  C   UNL     1       6.570   5.652  19.064  0.00  0.00    +0.000 C 
ATOM     15  C   UNL     1       7.693   5.947  18.069  0.00  0.00    +0.000 C 
ATOM     16  C   UNL     1       7.184   5.331  16.796  0.00  0.00    +0.000 C 
ATOM     17  O   UNL     1       7.578   5.573  15.669  0.00  0.00    +0.000 OA
ATOM     18  N   UNL     1       6.225   4.409  17.128  0.00  0.00    +0.000 N 
ATOM     19  H   UNL     1       5.676   3.926  16.421  0.00  0.00    +0.000 HD
ENDBRANCH  10  13
ENDBRANCH   8   9
ENDBRANCH   1   8
BRANCH   4  20
ATOM     20  C   UNL     1       0.972  10.974  19.700  0.00  0.00    +0.000 C 
BRANCH  20  21
ATOM     21  N   UNL     1      -0.140  11.464  20.476  0.00  0.00    +0.000 NA
ATOM     22  C   UNL     1      -1.381  11.850  19.816  0.00  0.00    +0.000 C 
ATOM     23  C   UNL     1      -2.479  12.263  20.795  0.00  0.00    +0.000 A 
ATOM     24  C   UNL     1      -3.701  12.755  20.319  0.00  0.00    +0.000 A 
ATOM     25  C   UNL     1      -4.673  13.219  21.213  0.00  0.00    +0.000 A 
ATOM     26  C   UNL     1      -4.449  13.180  22.591  0.00  0.00    +0.000 A 
ATOM     27  C   UNL     1      -3.275  12.614  23.078  0.00  0.00    +0.000 A 
ATOM     28  C   UNL     1      -2.273  12.208  22.191  0.00  0.00    +0.000 A 
ATOM     29  C   UNL     1      -0.934  11.772  22.732  0.00  0.00    +0.000 C 
ATOM     30  F   UNL     1      -0.877  10.426  22.959  0.00  0.00    +0.000 F 
ATOM     31  C   UNL     1       0.153  12.162  21.717  0.00  0.00    +0.000 C 
BRANCH  26  32
ATOM     32  O   UNL     1      -5.424  13.741  23.369  0.00  0.00    +0.000 OA
BRANCH  32  33
ATOM     33  C   UNL     1      -6.066  14.898  22.822  0.00  0.00    +0.000 C 
BRANCH  33  34
ATOM     34  C   UNL     1      -6.035  15.989  23.848  0.00  0.00    +0.000 C 
ATOM     35  C   UNL     1      -4.750  16.364  24.540  0.00  0.00    +0.000 C 
ATOM     36  C   UNL     1      -5.370  17.308  23.548  0.00  0.00    +0.000 C 
ENDBRANCH  33  34
ENDBRANCH  32  33
ENDBRANCH  26  32
ENDBRANCH  20  21
ENDBRANCH   4  20
TORSDOF 8
ENDMDL
MODEL 3
REMARK VINA RESULT:      -8.1      1.587      2.198
REMARK  Name = 
REMARK  9 active torsions:
REMARK  status: ('A' for Active; 'I' for Inactive)
REMARK    1  A    between atoms: C_1  and  C_2
REMARK    2  A    between atoms: C_2  and  N_3
REMARK    3  A    between atoms: C_2  and  C_12
REMARK    4  A    between atoms: C_4  and  C_6
REMARK    5  A    between atoms: C_15  and  C_16
REMARK    6  A    between atoms: C_16  and  N_17
REMARK    7  A    between atoms: C_22  and  O_23
REMARK    8  A    between atoms: O_23  and  C_24
REMARK    9  A    between atoms: C_24  and  C_25
REMARK                            x       y       z     vdW  Elec       q    Type
REMARK                         _______ _______ _______ _____ _____    ______ ____
ROOT
ATOM      1  C   UNL     1       2.002   6.936  19.331  0.00  0.00    +0.000 A 
ATOM      2  C   UNL     1       1.944   7.554  18.070  0.00  0.00    +0.000 A 
ATOM      3  C   UNL     1       1.553   8.892  17.938  0.00  0.00    +0.000 A 
ATOM      4  C   UNL     1       1.223   9.640  19.071  0.00  0.00    +0.000 A 
ATOM      5  C   UNL     1       1.217   9.012  20.320  0.00  0.00    +0.000 A 
ATOM      6  C   UNL     1       1.615   7.683  20.453  0.00  0.00    +0.000 A 
ENDROOT
BRANCH   1   8
ATOM      7  C   UNL     1       2.362   4.864  20.803  0.00  0.00    +0.000 C 
ATOM      8  C   UNL     1       2.568   5.529  19.437  0.00  0.00    +0.000 C 
BRANCH   8   9
ATOM      9  N   UNL     1       3.989   5.565  19.104  0.00  0.00    +0.000 N 
ATOM     10  C   UNL     1       4.607   4.520  18.456  0.00  0.00    +0.000 C 
ATOM     11  O   UNL     1       3.997   3.517  18.088  0.00  0.00    +0.000 OA
ATOM     12  H   UNL     1       4.519   6.373  19.402  0.00  0.00    +0.000 HD
BRANCH  10  13
ATOM     13  C   UNL     1       6.132   4.652  18.300  0.00  0.00    +0.000 C 
ATOM     14  C   UNL     1       6.848   5.319  19.466  0.00  0.00    +0.000 C 
ATOM     15  C   UNL     1       7.981   6.114  18.816  0.00  0.00    +0.000 C 
ATOM     16  C   UNL     1       7.443   6.407  17.444  0.00  0.00    +0.000 C 
ATOM     17  O   UNL     1       7.844   7.265  16.679  0.00  0.00    +0.000 OA
ATOM     18  N   UNL     1       6.443   5.504  17.182  0.00  0.00    +0.000 N 
ATOM     19  H   UNL     1       5.872   5.565  16.343  0.00  0.00    +0.000 HD
ENDBRANCH  10  13
ENDBRANCH   8   9
ENDBRANCH   1   8
BRANCH   4  20
ATOM     20  C   UNL     1       0.980  11.124  19.006  0.00  0.00    +0.000 C 
BRANCH  20  21
ATOM     21  N   UNL     1      -0.357  11.597  19.265  0.00  0.00    +0.000 NA
ATOM     22  C   UNL     1      -1.460  11.180  18.409  0.00  0.00    +0.000 C 
ATOM     23  C   UNL     1      -2.817  11.705  18.877  0.00  0.00    +0.000 A 
ATOM     24  C   UNL     1      -3.966  11.476  18.110  0.00  0.00    +0.000 A 
ATOM     25  C   UNL     1      -5.193  12.033  18.490  0.00  0.00    +0.000 A 
ATOM     26  C   UNL     1      -5.295  12.807  19.649  0.00  0.00    +0.000 A 
ATOM     27  C   UNL     1      -4.179  12.969  20.464  0.00  0.00    +0.000 A 
ATOM     28  C   UNL     1      -2.936  12.470  20.058  0.00  0.00    +0.000 A 
ATOM     29  C   UNL     1      -1.702  12.814  20.854  0.00  0.00    +0.000 C 
ATOM     30  F   UNL     1      -1.434  11.888  21.823  0.00  0.00    +0.000 F 
ATOM     31  C   UNL     1      -0.507  12.901  19.890  0.00  0.00    +0.000 C 
BRANCH  26  32
ATOM     32  O   UNL     1      -6.517  13.377  19.878  0.00  0.00    +0.000 OA
BRANCH  32  33
ATOM     33  C   UNL     1      -7.445  12.578  20.618  0.00  0.00    +0.000 C 
BRANCH  33  34
ATOM     34  C   UNL     1      -7.579  13.156  21.993  0.00  0.00    +0.000 C 
ATOM     35  C   UNL     1      -7.917  12.279  23.171  0.00  0.00    +0.000 C 
ATOM     36  C   UNL     1      -6.541  12.873  23.050  0.00  0.00    +0.000 C 
ENDBRANCH  33  34
ENDBRANCH  32  33
ENDBRANCH  26  32
ENDBRANCH  20  21
ENDBRANCH   4  20
TORSDOF 8
ENDMDL
MODEL 4
REMARK VINA RESULT:      -8.0      3.480     11.199
REMARK  Name = 
REMARK  9 active torsions:
REMARK  status: ('A' for Active; 'I' for Inactive)
REMARK    1  A    between atoms: C_1  and  C_2
REMARK    2  A    between atoms: C_2  and  N_3
REMARK    3  A    between atoms: C_2  and  C_12
REMARK    4  A    between atoms: C_4  and  C_6
REMARK    5  A    between atoms: C_15  and  C_16
REMARK    6  A    between atoms: C_16  and  N_17
REMARK    7  A    between atoms: C_22  and  O_23
REMARK    8  A    between atoms: O_23  and  C_24
REMARK    9  A    between atoms: C_24  and  C_25
REMARK                            x       y       z     vdW  Elec       q    Type
REMARK                         _______ _______ _______ _____ _____    ______ ____
ROOT
ATOM      1  C   UNL     1       0.792  10.025  20.319  0.00  0.00    +0.000 A 
ATOM      2  C   UNL     1       1.215   9.374  19.146  0.00  0.00    +0.000 A 
ATOM      3  C   UNL     1       1.740   8.078  19.189  0.00  0.00    +0.000 A 
ATOM      4  C   UNL     1       1.842   7.403  20.409  0.00  0.00    +0.000 A 
ATOM      5  C   UNL     1       1.483   8.069  21.584  0.00  0.00    +0.000 A 
ATOM      6  C   UNL     1       0.951   9.357  21.541  0.00  0.00    +0.000 A 
ENDROOT
BRANCH   1   8
ATOM      7  C   UNL     1      -0.392  11.949  21.538  0.00  0.00    +0.000 C 
ATOM      8  C   UNL     1       0.098  11.373  20.204  0.00  0.00    +0.000 C 
BRANCH   8   9
ATOM      9  N   UNL     1      -1.015  11.253  19.268  0.00  0.00    +0.000 N 
ATOM     10  C   UNL     1      -1.302  12.241  18.354  0.00  0.00    +0.000 C 
ATOM     11  O   UNL     1      -0.620  13.261  18.246  0.00  0.00    +0.000 OA
ATOM     12  H   UNL     1      -1.599  10.431  19.338  0.00  0.00    +0.000 HD
BRANCH  10  13
ATOM     13  C   UNL     1      -2.586  12.027  17.534  0.00  0.00    +0.000 C 
ATOM     14  C   UNL     1      -3.474  10.885  18.005  0.00  0.00    +0.000 C 
ATOM     15  C   UNL     1      -4.062  10.300  16.721  0.00  0.00    +0.000 C 
ATOM     16  C   UNL     1      -3.016  10.629  15.692  0.00  0.00    +0.000 C 
ATOM     17  O   UNL     1      -2.889  10.107  14.599  0.00  0.00    +0.000 OA
ATOM     18  N   UNL     1      -2.253  11.659  16.182  0.00  0.00    +0.000 N 
ATOM     19  H   UNL     1      -1.427  11.993  15.694  0.00  0.00    +0.000 HD
ENDBRANCH  10  13
ENDBRANCH   8   9
ENDBRANCH   1   8
BRANCH   4  20
ATOM     20  C   UNL     1       2.220   5.948  20.489  0.00  0.00    +0.000 C 
BRANCH  20  21
ATOM     21  N   UNL     1       2.957   5.385  19.385  0.00  0.00    +0.000 NA
ATOM     22  C   UNL     1       3.643   6.258  18.441  0.00  0.00    +0.000 C 
ATOM     23  C   UNL     1       4.443   5.493  17.386  0.00  0.00    +0.000 A 
ATOM     24  C   UNL     1       5.081   6.181  16.347  0.00  0.00    +0.000 A 
ATOM     25  C   UNL     1       5.736   5.477  15.331  0.00  0.00    +0.000 A 
ATOM     26  C   UNL     1       5.782   4.081  15.346  0.00  0.00    +0.000 A 
ATOM     27  C   UNL     1       5.226   3.390  16.418  0.00  0.00    +0.000 A 
ATOM     28  C   UNL     1       4.514   4.083  17.405  0.00  0.00    +0.000 A 
ATOM     29  C   UNL     1       3.758   3.309  18.456  0.00  0.00    +0.000 C 
ATOM     30  F   UNL     1       4.512   3.075  19.572  0.00  0.00    +0.000 F 
ATOM     31  C   UNL     1       2.506   4.112  18.848  0.00  0.00    +0.000 C 
BRANCH  26  32
ATOM     32  O   UNL     1       6.367   3.492  14.260  0.00  0.00    +0.000 OA
BRANCH  32  33
ATOM     33  C   UNL     1       6.673   4.367  13.169  0.00  0.00    +0.000 C 
BRANCH  33  34
ATOM     34  C   UNL     1       6.135   3.761  11.909  0.00  0.00    +0.000 C 
ATOM     35  C   UNL     1       5.583   2.359  11.899  0.00  0.00    +0.000 C 
ATOM     36  C   UNL     1       4.655   3.530  11.739  0.00  0.00    +0.000 C 
ENDBRANCH  33  34
ENDBRANCH  32  33
ENDBRANCH  26  32
ENDBRANCH  20  21
ENDBRANCH   4  20
TORSDOF 8
ENDMDL
MODEL 5
REMARK VINA RESULT:      -8.0      1.644      2.180
REMARK  Name = 
REMARK  9 active torsions:
REMARK  status: ('A' for Active; 'I' for Inactive)
REMARK    1  A    between atoms: C_1  and  C_2
REMARK    2  A    between atoms: C_2  and  N_3
REMARK    3  A    between atoms: C_2  and  C_12
REMARK    4  A    between atoms: C_4  and  C_6
REMARK    5  A    between atoms: C_15  and  C_16
REMARK    6  A    between atoms: C_16  and  N_17
REMARK    7  A    between atoms: C_22  and  O_23
REMARK    8  A    between atoms: O_23  and  C_24
REMARK    9  A    between atoms: C_24  and  C_25
REMARK                            x       y       z     vdW  Elec       q    Type
REMARK                         _______ _______ _______ _____ _____    ______ ____
ROOT
ATOM      1  C   UNL     1       2.112   7.384  19.089  0.00  0.00    +0.000 A 
ATOM      2  C   UNL     1       1.483   8.111  20.115  0.00  0.00    +0.000 A 
ATOM      3  C   UNL     1       1.180   9.468  19.956  0.00  0.00    +0.000 A 
ATOM      4  C   UNL     1       1.489  10.121  18.759  0.00  0.00    +0.000 A 
ATOM      5  C   UNL     1       2.171   9.418  17.762  0.00  0.00    +0.000 A 
ATOM      6  C   UNL     1       2.466   8.065  17.916  0.00  0.00    +0.000 A 
ENDROOT
BRANCH   1   8
ATOM      7  C   UNL     1       2.084   5.373  20.684  0.00  0.00    +0.000 C 
ATOM      8  C   UNL     1       2.291   5.883  19.253  0.00  0.00    +0.000 C 
BRANCH   8   9
ATOM      9  N   UNL     1       3.619   5.511  18.773  0.00  0.00    +0.000 N 
ATOM     10  C   UNL     1       3.798   4.513  17.844  0.00  0.00    +0.000 C 
ATOM     11  O   UNL     1       2.857   3.904  17.336  0.00  0.00    +0.000 OA
ATOM     12  H   UNL     1       4.413   5.987  19.179  0.00  0.00    +0.000 HD
BRANCH  10  13
ATOM     13  C   UNL     1       5.263   4.147  17.544  0.00  0.00    +0.000 C 
ATOM     14  C   UNL     1       6.283   4.702  18.527  0.00  0.00    +0.000 C 
ATOM     15  C   UNL     1       7.509   5.021  17.669  0.00  0.00    +0.000 C 
ATOM     16  C   UNL     1       6.911   5.291  16.317  0.00  0.00    +0.000 C 
ATOM     17  O   UNL     1       7.446   5.881  15.395  0.00  0.00    +0.000 OA
ATOM     18  N   UNL     1       5.666   4.715  16.284  0.00  0.00    +0.000 N 
ATOM     19  H   UNL     1       5.037   4.842  15.495  0.00  0.00    +0.000 HD
ENDBRANCH  10  13
ENDBRANCH   8   9
ENDBRANCH   1   8
BRANCH   4  20
ATOM     20  C   UNL     1       1.017  11.520  18.466  0.00  0.00    +0.000 C 
BRANCH  20  21
ATOM     21  N   UNL     1      -0.310  11.883  18.893  0.00  0.00    +0.000 NA
ATOM     22  C   UNL     1      -1.474  11.400  18.161  0.00  0.00    +0.000 C 
ATOM     23  C   UNL     1      -2.800  11.810  18.800  0.00  0.00    +0.000 A 
ATOM     24  C   UNL     1      -4.013  11.508  18.168  0.00  0.00    +0.000 A 
ATOM     25  C   UNL     1      -5.222  11.962  18.705  0.00  0.00    +0.000 A 
ATOM     26  C   UNL     1      -5.243  12.703  19.889  0.00  0.00    +0.000 A 
ATOM     27  C   UNL     1      -4.053  12.934  20.572  0.00  0.00    +0.000 A 
ATOM     28  C   UNL     1      -2.834  12.540  20.008  0.00  0.00    +0.000 A 
ATOM     29  C   UNL     1      -1.542  12.962  20.664  0.00  0.00    +0.000 C 
ATOM     30  F   UNL     1      -1.092  12.041  21.567  0.00  0.00    +0.000 F 
ATOM     31  C   UNL     1      -0.481  13.159  19.569  0.00  0.00    +0.000 C 
BRANCH  26  32
ATOM     32  O   UNL     1      -6.467  13.173  20.277  0.00  0.00    +0.000 OA
BRANCH  32  33
ATOM     33  C   UNL     1      -6.523  13.754  21.584  0.00  0.00    +0.000 C 
BRANCH  33  34
ATOM     34  C   UNL     1      -6.838  12.673  22.571  0.00  0.00    +0.000 C 
ATOM     35  C   UNL     1      -6.438  12.807  24.018  0.00  0.00    +0.000 C 
ATOM     36  C   UNL     1      -7.889  12.884  23.633  0.00  0.00    +0.000 C 
ENDBRANCH  33  34
ENDBRANCH  32  33
ENDBRANCH  26  32
ENDBRANCH  20  21
ENDBRANCH   4  20
TORSDOF 8
ENDMDL
MODEL 6
REMARK VINA RESULT:      -8.0      1.790      2.384
REMARK  Name = 
REMARK  9 active torsions:
REMARK  status: ('A' for Active; 'I' for Inactive)
REMARK    1  A    between atoms: C_1  and  C_2
REMARK    2  A    between atoms: C_2  and  N_3
REMARK    3  A    between atoms: C_2  and  C_12
REMARK    4  A    between atoms: C_4  and  C_6
REMARK    5  A    between atoms: C_15  and  C_16
REMARK    6  A    between atoms: C_16  and  N_17
REMARK    7  A    between atoms: C_22  and  O_23
REMARK    8  A    between atoms: O_23  and  C_24
REMARK    9  A    between atoms: C_24  and  C_25
REMARK                            x       y       z     vdW  Elec       q    Type
REMARK                         _______ _______ _______ _____ _____    ______ ____
ROOT
ATOM      1  C   UNL     1       2.100   7.215  19.345  0.00  0.00    +0.000 A 
ATOM      2  C   UNL     1       1.566   7.937  20.426  0.00  0.00    +0.000 A 
ATOM      3  C   UNL     1       1.200   9.281  20.287  0.00  0.00    +0.000 A 
ATOM      4  C   UNL     1       1.350   9.924  19.055  0.00  0.00    +0.000 A 
ATOM      5  C   UNL     1       1.939   9.229  17.995  0.00  0.00    +0.000 A 
ATOM      6  C   UNL     1       2.296   7.888  18.131  0.00  0.00    +0.000 A 
ENDROOT
BRANCH   1   8
ATOM      7  C   UNL     1       1.936   5.155  20.868  0.00  0.00    +0.000 C 
ATOM      8  C   UNL     1       2.349   5.723  19.506  0.00  0.00    +0.000 C 
BRANCH   8   9
ATOM      9  N   UNL     1       3.760   5.450  19.253  0.00  0.00    +0.000 N 
ATOM     10  C   UNL     1       4.181   4.255  18.718  0.00  0.00    +0.000 C 
ATOM     11  O   UNL     1       3.398   3.365  18.387  0.00  0.00    +0.000 OA
ATOM     12  H   UNL     1       4.429   6.158  19.523  0.00  0.00    +0.000 HD
BRANCH  10  13
ATOM     13  C   UNL     1       5.707   4.068  18.642  0.00  0.00    +0.000 C 
ATOM     14  C   UNL     1       6.530   5.250  19.132  0.00  0.00    +0.000 C 
ATOM     15  C   UNL     1       7.755   5.272  18.217  0.00  0.00    +0.000 C 
ATOM     16  C   UNL     1       7.241   4.640  16.953  0.00  0.00    +0.000 C 
ATOM     17  O   UNL     1       7.749   4.716  15.849  0.00  0.00    +0.000 OA
ATOM     18  N   UNL     1       6.119   3.917  17.270  0.00  0.00    +0.000 N 
ATOM     19  H   UNL     1       5.548   3.471  16.556  0.00  0.00    +0.000 HD
ENDBRANCH  10  13
ENDBRANCH   8   9
ENDBRANCH   1   8
BRANCH   4  20
ATOM     20  C   UNL     1       0.800  11.302  18.800  0.00  0.00    +0.000 C 
BRANCH  20  21
ATOM     21  N   UNL     1      -0.587  11.538  19.111  0.00  0.00    +0.000 NA
ATOM     22  C   UNL     1      -0.953  12.316  20.288  0.00  0.00    +0.000 C 
ATOM     23  C   UNL     1      -2.459  12.540  20.416  0.00  0.00    +0.000 A 
ATOM     24  C   UNL     1      -2.984  13.185  21.544  0.00  0.00    +0.000 A 
ATOM     25  C   UNL     1      -4.368  13.310  21.706  0.00  0.00    +0.000 A 
ATOM     26  C   UNL     1      -5.247  12.814  20.740  0.00  0.00    +0.000 A 
ATOM     27  C   UNL     1      -4.735  12.249  19.576  0.00  0.00    +0.000 A 
ATOM     28  C   UNL     1      -3.355  12.062  19.435  0.00  0.00    +0.000 A 
ATOM     29  C   UNL     1      -2.828  11.281  18.257  0.00  0.00    +0.000 C 
ATOM     30  F   UNL     1      -2.537  12.083  17.190  0.00  0.00    +0.000 F 
ATOM     31  C   UNL     1      -1.555  10.537  18.695  0.00  0.00    +0.000 C 
BRANCH  26  32
ATOM     32  O   UNL     1      -6.577  12.907  21.041  0.00  0.00    +0.000 OA
BRANCH  32  33
ATOM     33  C   UNL     1      -7.135  14.224  20.986  0.00  0.00    +0.000 C 
BRANCH  33  34
ATOM     34  C   UNL     1      -7.914  14.463  22.243  0.00  0.00    +0.000 C 
ATOM     35  C   UNL     1      -7.211  14.670  23.560  0.00  0.00    +0.000 C 
ATOM     36  C   UNL     1      -7.916  15.821  22.898  0.00  0.00    +0.000 C 
ENDBRANCH  33  34
ENDBRANCH  32  33
ENDBRANCH  26  32
ENDBRANCH  20  21
ENDBRANCH   4  20
TORSDOF 8
ENDMDL
MODEL 7
REMARK VINA RESULT:      -7.8      4.335     11.210
REMARK  Name = 
REMARK  9 active torsions:
REMARK  status: ('A' for Active; 'I' for Inactive)
REMARK    1  A    between atoms: C_1  and  C_2
REMARK    2  A    between atoms: C_2  and  N_3
REMARK    3  A    between atoms: C_2  and  C_12
REMARK    4  A    between atoms: C_4  and  C_6
REMARK    5  A    between atoms: C_15  and  C_16
REMARK    6  A    between atoms: C_16  and  N_17
REMARK    7  A    between atoms: C_22  and  O_23
REMARK    8  A    between atoms: O_23  and  C_24
REMARK    9  A    between atoms: C_24  and  C_25
REMARK                            x       y       z     vdW  Elec       q    Type
REMARK                         _______ _______ _______ _____ _____    ______ ____
ROOT
ATOM      1  C   UNL     1       0.638  10.103  19.639  0.00  0.00    +0.000 A 
ATOM      2  C   UNL     1       1.237   9.479  18.530  0.00  0.00    +0.000 A 
ATOM      3  C   UNL     1       1.841   8.223  18.649  0.00  0.00    +0.000 A 
ATOM      4  C   UNL     1       1.847   7.561  19.880  0.00  0.00    +0.000 A 
ATOM      5  C   UNL     1       1.309   8.205  20.997  0.00  0.00    +0.000 A 
ATOM      6  C   UNL     1       0.699   9.452  20.879  0.00  0.00    +0.000 A 
ENDROOT
BRANCH   1   8
ATOM      7  C   UNL     1      -1.483  11.229  18.731  0.00  0.00    +0.000 C 
ATOM      8  C   UNL     1      -0.129  11.400  19.429  0.00  0.00    +0.000 C 
BRANCH   8   9
ATOM      9  N   UNL     1       0.711  12.329  18.679  0.00  0.00    +0.000 N 
ATOM     10  C   UNL     1       1.363  13.372  19.295  0.00  0.00    +0.000 C 
ATOM     11  O   UNL     1       1.311  13.561  20.510  0.00  0.00    +0.000 OA
ATOM     12  H   UNL     1       0.766  12.205  17.678  0.00  0.00    +0.000 HD
BRANCH  10  13
ATOM     13  C   UNL     1       2.096  14.340  18.349  0.00  0.00    +0.000 C 
ATOM     14  C   UNL     1       3.598  14.127  18.239  0.00  0.00    +0.000 C 
ATOM     15  C   UNL     1       4.175  15.534  18.081  0.00  0.00    +0.000 C 
ATOM     16  C   UNL     1       3.158  16.395  18.776  0.00  0.00    +0.000 C 
ATOM     17  O   UNL     1       3.327  17.532  19.179  0.00  0.00    +0.000 OA
ATOM     18  N   UNL     1       1.982  15.690  18.839  0.00  0.00    +0.000 N 
ATOM     19  H   UNL     1       1.173  16.040  19.345  0.00  0.00    +0.000 HD
ENDBRANCH  10  13
ENDBRANCH   8   9
ENDBRANCH   1   8
BRANCH   4  20
ATOM     20  C   UNL     1       2.312   6.135  20.019  0.00  0.00    +0.000 C 
BRANCH  20  21
ATOM     21  N   UNL     1       3.115   5.585  18.956  0.00  0.00    +0.000 NA
ATOM     22  C   UNL     1       3.870   6.468  18.076  0.00  0.00    +0.000 C 
ATOM     23  C   UNL     1       4.731   5.714  17.063  0.00  0.00    +0.000 A 
ATOM     24  C   UNL     1       5.443   6.414  16.081  0.00  0.00    +0.000 A 
ATOM     25  C   UNL     1       6.158   5.721  15.097  0.00  0.00    +0.000 A 
ATOM     26  C   UNL     1       6.190   4.325  15.090  0.00  0.00    +0.000 A 
ATOM     27  C   UNL     1       5.558   3.621  16.110  0.00  0.00    +0.000 A 
ATOM     28  C   UNL     1       4.788   4.303  17.060  0.00  0.00    +0.000 A 
ATOM     29  C   UNL     1       3.958   3.518  18.045  0.00  0.00    +0.000 C 
ATOM     30  F   UNL     1       4.634   3.257  19.203  0.00  0.00    +0.000 F 
ATOM     31  C   UNL     1       2.690   4.326  18.367  0.00  0.00    +0.000 C 
BRANCH  26  32
ATOM     32  O   UNL     1       6.841   3.750  14.034  0.00  0.00    +0.000 OA
BRANCH  32  33
ATOM     33  C   UNL     1       6.290   4.023  12.742  0.00  0.00    +0.000 C 
BRANCH  33  34
ATOM     34  C   UNL     1       5.233   3.003  12.450  0.00  0.00    +0.000 C 
ATOM     35  C   UNL     1       4.312   3.160  11.267  0.00  0.00    +0.000 C 
ATOM     36  C   UNL     1       5.360   2.083  11.262  0.00  0.00    +0.000 C 
ENDBRANCH  33  34
ENDBRANCH  32  33
ENDBRANCH  26  32
ENDBRANCH  20  21
ENDBRANCH   4  20
TORSDOF 8
ENDMDL
MODEL 8
REMARK VINA RESULT:      -7.8      0.706      1.115
REMARK  Name = 
REMARK  9 active torsions:
REMARK  status: ('A' for Active; 'I' for Inactive)
REMARK    1  A    between atoms: C_1  and  C_2
REMARK    2  A    between atoms: C_2  and  N_3
REMARK    3  A    between atoms: C_2  and  C_12
REMARK    4  A    between atoms: C_4  and  C_6
REMARK    5  A    between atoms: C_15  and  C_16
REMARK    6  A    between atoms: C_16  and  N_17
REMARK    7  A    between atoms: C_22  and  O_23
REMARK    8  A    between atoms: O_23  and  C_24
REMARK    9  A    between atoms: C_24  and  C_25
REMARK                            x       y       z     vdW  Elec       q    Type
REMARK                         _______ _______ _______ _____ _____    ______ ____
ROOT
ATOM      1  C   UNL     1       1.981   7.001  19.410  0.00  0.00    +0.000 A 
ATOM      2  C   UNL     1       2.191   7.625  18.167  0.00  0.00    +0.000 A 
ATOM      3  C   UNL     1       1.815   8.957  17.956  0.00  0.00    +0.000 A 
ATOM      4  C   UNL     1       1.233   9.694  18.990  0.00  0.00    +0.000 A 
ATOM      5  C   UNL     1       0.965   9.059  20.206  0.00  0.00    +0.000 A 
ATOM      6  C   UNL     1       1.346   7.736  20.421  0.00  0.00    +0.000 A 
ENDROOT
BRANCH   1   8
ATOM      7  C   UNL     1       2.372   5.080  21.067  0.00  0.00    +0.000 C 
ATOM      8  C   UNL     1       2.534   5.602  19.634  0.00  0.00    +0.000 C 
BRANCH   8   9
ATOM      9  N   UNL     1       3.941   5.583  19.248  0.00  0.00    +0.000 N 
ATOM     10  C   UNL     1       4.583   4.412  18.915  0.00  0.00    +0.000 C 
ATOM     11  O   UNL     1       4.007   3.326  18.886  0.00  0.00    +0.000 OA
ATOM     12  H   UNL     1       4.445   6.459  19.270  0.00  0.00    +0.000 HD
BRANCH  10  13
ATOM     13  C   UNL     1       6.096   4.540  18.664  0.00  0.00    +0.000 C 
ATOM     14  C   UNL     1       6.651   5.954  18.752  0.00  0.00    +0.000 C 
ATOM     15  C   UNL     1       7.750   6.002  17.689  0.00  0.00    +0.000 C 
ATOM     16  C   UNL     1       7.295   4.977  16.688  0.00  0.00    +0.000 C 
ATOM     17  O   UNL     1       7.670   4.878  15.534  0.00  0.00    +0.000 OA
ATOM     18  N   UNL     1       6.411   4.138  17.318  0.00  0.00    +0.000 N 
ATOM     19  H   UNL     1       5.904   3.416  16.812  0.00  0.00    +0.000 HD
ENDBRANCH  10  13
ENDBRANCH   8   9
ENDBRANCH   1   8
BRANCH   4  20
ATOM     20  C   UNL     1       0.986  11.175  18.876  0.00  0.00    +0.000 C 
BRANCH  20  21
ATOM     21  N   UNL     1      -0.345  11.655  19.151  0.00  0.00    +0.000 NA
ATOM     22  C   UNL     1      -1.471  11.194  18.349  0.00  0.00    +0.000 C 
ATOM     23  C   UNL     1      -2.816  11.737  18.831  0.00  0.00    +0.000 A 
ATOM     24  C   UNL     1      -3.986  11.468  18.111  0.00  0.00    +0.000 A 
ATOM     25  C   UNL     1      -5.203  12.040  18.500  0.00  0.00    +0.000 A 
ATOM     26  C   UNL     1      -5.274  12.868  19.622  0.00  0.00    +0.000 A 
ATOM     27  C   UNL     1      -4.136  13.073  20.395  0.00  0.00    +0.000 A 
ATOM     28  C   UNL     1      -2.903  12.558  19.977  0.00  0.00    +0.000 A 
ATOM     29  C   UNL     1      -1.648  12.943  20.720  0.00  0.00    +0.000 C 
ATOM     30  F   UNL     1      -1.347  12.066  21.723  0.00  0.00    +0.000 F 
ATOM     31  C   UNL     1      -0.482  12.987  19.717  0.00  0.00    +0.000 C 
BRANCH  26  32
ATOM     32  O   UNL     1      -6.491  13.445  19.860  0.00  0.00    +0.000 OA
BRANCH  32  33
ATOM     33  C   UNL     1      -7.262  13.768  18.698  0.00  0.00    +0.000 C 
BRANCH  33  34
ATOM     34  C   UNL     1      -6.867  15.134  18.229  0.00  0.00    +0.000 C 
ATOM     35  C   UNL     1      -7.059  15.545  16.792  0.00  0.00    +0.000 C 
ATOM     36  C   UNL     1      -7.916  16.156  17.866  0.00  0.00    +0.000 C 
ENDBRANCH  33  34
ENDBRANCH  32  33
ENDBRANCH  26  32
ENDBRANCH  20  21
ENDBRANCH   4  20
TORSDOF 8
ENDMDL
MODEL 9
REMARK VINA RESULT:      -7.8      3.424     11.905
REMARK  Name = 
REMARK  9 active torsions:
REMARK  status: ('A' for Active; 'I' for Inactive)
REMARK    1  A    between atoms: C_1  and  C_2
REMARK    2  A    between atoms: C_2  and  N_3
REMARK    3  A    between atoms: C_2  and  C_12
REMARK    4  A    between atoms: C_4  and  C_6
REMARK    5  A    between atoms: C_15  and  C_16
REMARK    6  A    between atoms: C_16  and  N_17
REMARK    7  A    between atoms: C_22  and  O_23
REMARK    8  A    between atoms: O_23  and  C_24
REMARK    9  A    between atoms: C_24  and  C_25
REMARK                            x       y       z     vdW  Elec       q    Type
REMARK                         _______ _______ _______ _____ _____    ______ ____
ROOT
ATOM      1  C   UNL     1       0.694  10.105  19.732  0.00  0.00    +0.000 A 
ATOM      2  C   UNL     1       1.349   9.563  18.612  0.00  0.00    +0.000 A 
ATOM      3  C   UNL     1       1.975   8.313  18.677  0.00  0.00    +0.000 A 
ATOM      4  C   UNL     1       1.947   7.575  19.864  0.00  0.00    +0.000 A 
ATOM      5  C   UNL     1       1.353   8.138  20.996  0.00  0.00    +0.000 A 
ATOM      6  C   UNL     1       0.722   9.379  20.930  0.00  0.00    +0.000 A 
ENDROOT
BRANCH   1   8
ATOM      7  C   UNL     1       0.037  12.366  20.753  0.00  0.00    +0.000 C 
ATOM      8  C   UNL     1      -0.092  11.397  19.572  0.00  0.00    +0.000 C 
BRANCH   8   9
ATOM      9  N   UNL     1      -1.494  11.070  19.338  0.00  0.00    +0.000 N 
ATOM     10  C   UNL     1      -2.149  11.470  18.196  0.00  0.00    +0.000 C 
ATOM     11  O   UNL     1      -1.587  12.088  17.292  0.00  0.00    +0.000 OA
ATOM     12  H   UNL     1      -1.986  10.571  20.067  0.00  0.00    +0.000 HD
BRANCH  10  13
ATOM     13  C   UNL     1      -3.658  11.167  18.162  0.00  0.00    +0.000 C 
ATOM     14  C   UNL     1      -4.374  11.584  16.886  0.00  0.00    +0.000 C 
ATOM     15  C   UNL     1      -5.758  12.037  17.353  0.00  0.00    +0.000 C 
ATOM     16  C   UNL     1      -5.505  12.494  18.762  0.00  0.00    +0.000 C 
ATOM     17  O   UNL     1      -6.225  13.216  19.428  0.00  0.00    +0.000 OA
ATOM     18  N   UNL     1      -4.336  11.915  19.189  0.00  0.00    +0.000 N 
ATOM     19  H   UNL     1      -3.918  12.148  20.085  0.00  0.00    +0.000 HD
ENDBRANCH  10  13
ENDBRANCH   8   9
ENDBRANCH   1   8
BRANCH   4  20
ATOM     20  C   UNL     1       2.438   6.153  19.933  0.00  0.00    +0.000 C 
BRANCH  20  21
ATOM     21  N   UNL     1       3.079   5.607  18.764  0.00  0.00    +0.000 NA
ATOM     22  C   UNL     1       4.175   6.324  18.126  0.00  0.00    +0.000 C 
ATOM     23  C   UNL     1       4.792   5.562  16.954  0.00  0.00    +0.000 A 
ATOM     24  C   UNL     1       5.792   6.155  16.173  0.00  0.00    +0.000 A 
ATOM     25  C   UNL     1       6.293   5.495  15.046  0.00  0.00    +0.000 A 
ATOM     26  C   UNL     1       5.821   4.229  14.693  0.00  0.00    +0.000 A 
ATOM     27  C   UNL     1       4.891   3.594  15.510  0.00  0.00    +0.000 A 
ATOM     28  C   UNL     1       4.338   4.272  16.601  0.00  0.00    +0.000 A 
ATOM     29  C   UNL     1       3.197   3.646  17.365  0.00  0.00    +0.000 C 
ATOM     30  F   UNL     1       3.629   2.893  18.420  0.00  0.00    +0.000 F 
ATOM     31  C   UNL     1       2.282   4.768  17.883  0.00  0.00    +0.000 C 
BRANCH  26  32
ATOM     32  O   UNL     1       6.311   3.714  13.524  0.00  0.00    +0.000 OA
BRANCH  32  33
ATOM     33  C   UNL     1       5.340   3.139  12.644  0.00  0.00    +0.000 C 
BRANCH  33  34
ATOM     34  C   UNL     1       6.033   2.710  11.387  0.00  0.00    +0.000 C 
ATOM     35  C   UNL     1       7.414   2.109  11.432  0.00  0.00    +0.000 C 
ATOM     36  C   UNL     1       6.234   1.248  11.080  0.00  0.00    +0.000 C 
ENDBRANCH  33  34
ENDBRANCH  32  33
ENDBRANCH  26  32
ENDBRANCH  20  21
ENDBRANCH   4  20
TORSDOF 8
ENDMDL
