MODEL 1
REMARK VINA RESULT:      -5.6      0.000      0.000
REMARK  Name = 
REMARK  24 active torsions:
REMARK  status: ('A' for Active; 'I' for Inactive)
REMARK    1  A    between atoms: C_1  and  C_2
REMARK    2  A    between atoms: C_2  and  C_3
REMARK    3  A    between atoms: C_3  and  C_4
REMARK    4  A    between atoms: C_4  and  C_5
REMARK    5  A    between atoms: C_5  and  C_6
REMARK    6  A    between atoms: C_6  and  C_7
REMARK    7  A    between atoms: C_7  and  C_8
REMARK    8  A    between atoms: C_8  and  C_9
REMARK    9  A    between atoms: C_9  and  C_10
REMARK   10  A    between atoms: C_10  and  C_11
REMARK   11  A    between atoms: C_11  and  C_12
REMARK   12  A    between atoms: C_12  and  C_13
REMARK   13  A    between atoms: C_13  and  C_14
REMARK   14  A    between atoms: C_14  and  C_15
REMARK   15  A    between atoms: C_15  and  C_16
REMARK   16  A    between atoms: C_19  and  C_20
REMARK   17  A    between atoms: C_20  and  O_21
REMARK   18  A    between atoms: O_21  and  C_22
REMARK   19  A    between atoms: C_22  and  C_23
REMARK   20  A    between atoms: C_23  and  C_24
REMARK   21  A    between atoms: C_24  and  C_25
REMARK   22  A    between atoms: C_25  and  C_26
REMARK   23  A    between atoms: C_26  and  C_27
REMARK   24  A    between atoms: C_27  and  N_28
REMARK                            x       y       z     vdW  Elec       q    Type
REMARK                         _______ _______ _______ _____ _____    ______ ____
ROOT
ATOM      1  C   UNL     1       7.511   7.118  18.357  0.00  0.00    +0.000 C 
ATOM      2  C   UNL     1       7.950   5.725  18.778  0.00  0.00    +0.000 C 
ATOM      3  C   UNL     1       7.053   4.838  17.950  0.00  0.00    +0.000 C 
ATOM      4  C   UNL     1       6.944   5.616  16.654  0.00  0.00    +0.000 C 
ATOM      5  O   UNL     1       7.010   7.005  17.018  0.00  0.00    +0.000 OA
ENDROOT
BRANCH   4   6
ATOM      6  C   UNL     1       5.644   5.339  15.911  0.00  0.00    +0.000 C 
BRANCH   6   7
ATOM      7  O   UNL     1       4.597   6.122  16.489  0.00  0.00    +0.000 OA
BRANCH   7   8
ATOM      8  C   UNL     1       3.757   5.325  17.304  0.00  0.00    +0.000 C 
BRANCH   8   9
ATOM      9  C   UNL     1       2.674   6.220  17.881  0.00  0.00    +0.000 C 
BRANCH   9  10
ATOM     10  C   UNL     1       3.032   6.618  19.304  0.00  0.00    +0.000 C 
BRANCH  10  11
ATOM     11  C   UNL     1       1.826   6.528  20.227  0.00  0.00    +0.000 C 
BRANCH  11  12
ATOM     12  C   UNL     1       1.861   5.225  21.018  0.00  0.00    +0.000 C 
BRANCH  12  13
ATOM     13  C   UNL     1       1.019   4.152  20.341  0.00  0.00    +0.000 C 
BRANCH  13  14
ATOM     14  N   UNL     1       1.853   3.242  19.559  0.00  0.00    +0.000 N 
ATOM     15  C   UNL     1       1.432   2.708  18.354  0.00  0.00    +0.000 A 
ATOM     16  C   UNL     1       2.376   1.876  17.802  0.00  0.00    +0.000 A 
ATOM     17  S   UNL     1       3.764   1.799  18.816  0.00  0.00    +0.000 S 
ATOM     18  C   UNL     1       3.054   2.868  19.950  0.00  0.00    +0.000 A 
ENDBRANCH  13  14
ENDBRANCH  12  13
ENDBRANCH  11  12
ENDBRANCH  10  11
ENDBRANCH   9  10
ENDBRANCH   8   9
ENDBRANCH   7   8
ENDBRANCH   6   7
ENDBRANCH   4   6
BRANCH   1  19
ATOM     19  C   UNL     1       8.624   8.163  18.393  0.00  0.00    +0.000 C 
BRANCH  19  20
ATOM     20  C   UNL     1       8.062   9.542  18.057  0.00  0.00    +0.000 C 
BRANCH  20  21
ATOM     21  C   UNL     1       9.129  10.629  18.053  0.00  0.00    +0.000 C 
BRANCH  21  22
ATOM     22  C   UNL     1       9.561  10.897  19.490  0.00  0.00    +0.000 C 
BRANCH  22  23
ATOM     23  C   UNL     1      10.971  11.456  19.545  0.00  0.00    +0.000 C 
BRANCH  23  24
ATOM     24  C   UNL     1      11.532  11.592  18.138  0.00  0.00    +0.000 C 
BRANCH  24  25
ATOM     25  C   UNL     1      12.041  13.004  17.919  0.00  0.00    +0.000 C 
BRANCH  25  26
ATOM     26  C   UNL     1      11.123  13.763  16.976  0.00  0.00    +0.000 C 
BRANCH  26  27
ATOM     27  C   UNL     1      10.296  14.767  17.762  0.00  0.00    +0.000 C 
BRANCH  27  28
ATOM     28  C   UNL     1       8.887  14.240  17.974  0.00  0.00    +0.000 C 
BRANCH  28  29
ATOM     29  C   UNL     1       7.895  15.392  18.009  0.00  0.00    +0.000 C 
BRANCH  29  30
ATOM     30  C   UNL     1       7.486  15.696  19.443  0.00  0.00    +0.000 C 
BRANCH  30  31
ATOM     31  C   UNL     1       7.826  14.525  20.357  0.00  0.00    +0.000 C 
BRANCH  31  33
ATOM     32  C   UNL     1       9.652  13.871  21.941  0.00  0.00    +0.000 C 
ATOM     33  C   UNL     1       8.704  14.978  21.517  0.00  0.00    +0.000 C 
ENDBRANCH  31  33
ENDBRANCH  30  31
ENDBRANCH  29  30
ENDBRANCH  28  29
ENDBRANCH  27  28
ENDBRANCH  26  27
ENDBRANCH  25  26
ENDBRANCH  24  25
ENDBRANCH  23  24
ENDBRANCH  22  23
ENDBRANCH  21  22
ENDBRANCH  20  21
ENDBRANCH  19  20
ENDBRANCH   1  19
TORSDOF 23
ENDMDL
MODEL 2
REMARK VINA RESULT:      -5.5      4.234     10.275
REMARK  Name = 
REMARK  24 active torsions:
REMARK  status: ('A' for Active; 'I' for Inactive)
REMARK    1  A    between atoms: C_1  and  C_2
REMARK    2  A    between atoms: C_2  and  C_3
REMARK    3  A    between atoms: C_3  and  C_4
REMARK    4  A    between atoms: C_4  and  C_5
REMARK    5  A    between atoms: C_5  and  C_6
REMARK    6  A    between atoms: C_6  and  C_7
REMARK    7  A    between atoms: C_7  and  C_8
REMARK    8  A    between atoms: C_8  and  C_9
REMARK    9  A    between atoms: C_9  and  C_10
REMARK   10  A    between atoms: C_10  and  C_11
REMARK   11  A    between atoms: C_11  and  C_12
REMARK   12  A    between atoms: C_12  and  C_13
REMARK   13  A    between atoms: C_13  and  C_14
REMARK   14  A    between atoms: C_14  and  C_15
REMARK   15  A    between atoms: C_15  and  C_16
REMARK   16  A    between atoms: C_19  and  C_20
REMARK   17  A    between atoms: C_20  and  O_21
REMARK   18  A    between atoms: O_21  and  C_22
REMARK   19  A    between atoms: C_22  and  C_23
REMARK   20  A    between atoms: C_23  and  C_24
REMARK   21  A    between atoms: C_24  and  C_25
REMARK   22  A    between atoms: C_25  and  C_26
REMARK   23  A    between atoms: C_26  and  C_27
REMARK   24  A    between atoms: C_27  and  N_28
REMARK                            x       y       z     vdW  Elec       q    Type
REMARK                         _______ _______ _______ _____ _____    ______ ____
ROOT
ATOM      1  C   UNL     1       5.438   4.346  17.417  0.00  0.00    +0.000 C 
ATOM      2  C   UNL     1       5.238   4.467  18.918  0.00  0.00    +0.000 C 
ATOM      3  C   UNL     1       6.383   5.360  19.328  0.00  0.00    +0.000 C 
ATOM      4  C   UNL     1       6.486   6.307  18.148  0.00  0.00    +0.000 C 
ATOM      5  O   UNL     1       6.104   5.543  16.992  0.00  0.00    +0.000 OA
ENDROOT
BRANCH   4   6
ATOM      6  C   UNL     1       7.893   6.858  17.960  0.00  0.00    +0.000 C 
BRANCH   6   7
ATOM      7  O   UNL     1       7.841   7.994  17.095  0.00  0.00    +0.000 OA
BRANCH   7   8
ATOM      8  C   UNL     1       7.751   9.196  17.839  0.00  0.00    +0.000 C 
BRANCH   8   9
ATOM      9  C   UNL     1       9.065   9.393  18.575  0.00  0.00    +0.000 C 
BRANCH   9  10
ATOM     10  C   UNL     1       9.249  10.861  18.927  0.00  0.00    +0.000 C 
BRANCH  10  11
ATOM     11  C   UNL     1       9.532  11.045  20.411  0.00  0.00    +0.000 C 
BRANCH  11  12
ATOM     12  C   UNL     1      10.463  12.233  20.628  0.00  0.00    +0.000 C 
BRANCH  12  13
ATOM     13  C   UNL     1       9.696  13.547  20.571  0.00  0.00    +0.000 C 
BRANCH  13  14
ATOM     14  N   UNL     1      10.443  14.564  19.835  0.00  0.00    +0.000 N 
ATOM     15  C   UNL     1      11.827  14.585  19.806  0.00  0.00    +0.000 A 
ATOM     16  C   UNL     1      12.310  15.633  19.059  0.00  0.00    +0.000 A 
ATOM     17  S   UNL     1      11.005  16.551  18.414  0.00  0.00    +0.000 S 
ATOM     18  C   UNL     1       9.853  15.525  19.157  0.00  0.00    +0.000 A 
ENDBRANCH  13  14
ENDBRANCH  12  13
ENDBRANCH  11  12
ENDBRANCH  10  11
ENDBRANCH   9  10
ENDBRANCH   8   9
ENDBRANCH   7   8
ENDBRANCH   6   7
ENDBRANCH   4   6
BRANCH   1  19
ATOM     19  C   UNL     1       4.144   4.180  16.623  0.00  0.00    +0.000 C 
BRANCH  19  20
ATOM     20  C   UNL     1       3.050   3.598  17.515  0.00  0.00    +0.000 C 
BRANCH  20  21
ATOM     21  C   UNL     1       3.155   2.086  17.665  0.00  0.00    +0.000 C 
BRANCH  21  22
ATOM     22  C   UNL     1       2.379   1.660  18.905  0.00  0.00    +0.000 C 
BRANCH  22  23
ATOM     23  C   UNL     1       2.432   2.728  19.981  0.00  0.00    +0.000 C 
BRANCH  23  24
ATOM     24  C   UNL     1       1.025   3.061  20.453  0.00  0.00    +0.000 C 
BRANCH  24  25
ATOM     25  C   UNL     1       0.720   4.522  20.176  0.00  0.00    +0.000 C 
BRANCH  25  26
ATOM     26  C   UNL     1       1.850   5.407  20.672  0.00  0.00    +0.000 C 
BRANCH  26  27
ATOM     27  C   UNL     1       1.836   6.727  19.917  0.00  0.00    +0.000 C 
BRANCH  27  28
ATOM     28  C   UNL     1       3.116   6.891  19.116  0.00  0.00    +0.000 C 
BRANCH  28  29
ATOM     29  C   UNL     1       2.814   7.519  17.764  0.00  0.00    +0.000 C 
BRANCH  29  30
ATOM     30  C   UNL     1       1.572   8.393  17.852  0.00  0.00    +0.000 C 
BRANCH  30  31
ATOM     31  C   UNL     1       1.955   9.867  17.891  0.00  0.00    +0.000 C 
BRANCH  31  33
ATOM     32  C   UNL     1       0.727  11.867  18.764  0.00  0.00    +0.000 C 
ATOM     33  C   UNL     1       1.379  10.545  19.128  0.00  0.00    +0.000 C 
ENDBRANCH  31  33
ENDBRANCH  30  31
ENDBRANCH  29  30
ENDBRANCH  28  29
ENDBRANCH  27  28
ENDBRANCH  26  27
ENDBRANCH  25  26
ENDBRANCH  24  25
ENDBRANCH  23  24
ENDBRANCH  22  23
ENDBRANCH  21  22
ENDBRANCH  20  21
ENDBRANCH  19  20
ENDBRANCH   1  19
TORSDOF 23
ENDMDL
MODEL 3
REMARK VINA RESULT:      -5.4      4.639     10.875
REMARK  Name = 
REMARK  24 active torsions:
REMARK  status: ('A' for Active; 'I' for Inactive)
REMARK    1  A    between atoms: C_1  and  C_2
REMARK    2  A    between atoms: C_2  and  C_3
REMARK    3  A    between atoms: C_3  and  C_4
REMARK    4  A    between atoms: C_4  and  C_5
REMARK    5  A    between atoms: C_5  and  C_6
REMARK    6  A    between atoms: C_6  and  C_7
REMARK    7  A    between atoms: C_7  and  C_8
REMARK    8  A    between atoms: C_8  and  C_9
REMARK    9  A    between atoms: C_9  and  C_10
REMARK   10  A    between atoms: C_10  and  C_11
REMARK   11  A    between atoms: C_11  and  C_12
REMARK   12  A    between atoms: C_12  and  C_13
REMARK   13  A    between atoms: C_13  and  C_14
REMARK   14  A    between atoms: C_14  and  C_15
REMARK   15  A    between atoms: C_15  and  C_16
REMARK   16  A    between atoms: C_19  and  C_20
REMARK   17  A    between atoms: C_20  and  O_21
REMARK   18  A    between atoms: O_21  and  C_22
REMARK   19  A    between atoms: C_22  and  C_23
REMARK   20  A    between atoms: C_23  and  C_24
REMARK   21  A    between atoms: C_24  and  C_25
REMARK   22  A    between atoms: C_25  and  C_26
REMARK   23  A    between atoms: C_26  and  C_27
REMARK   24  A    between atoms: C_27  and  N_28
REMARK                            x       y       z     vdW  Elec       q    Type
REMARK                         _______ _______ _______ _____ _____    ______ ____
ROOT
ATOM      1  C   UNL     1       0.698   9.936  18.719  0.00  0.00    +0.000 C 
ATOM      2  C   UNL     1      -0.724  10.377  18.414  0.00  0.00    +0.000 C 
ATOM      3  C   UNL     1      -0.754  11.781  18.967  0.00  0.00    +0.000 C 
ATOM      4  C   UNL     1       0.646  12.275  18.657  0.00  0.00    +0.000 C 
ATOM      5  O   UNL     1       1.502  11.123  18.745  0.00  0.00    +0.000 OA
ENDROOT
BRANCH   4   6
ATOM      6  C   UNL     1       1.119  13.345  19.631  0.00  0.00    +0.000 C 
BRANCH   6   7
ATOM      7  O   UNL     1       1.987  14.252  18.948  0.00  0.00    +0.000 OA
BRANCH   7   8
ATOM      8  C   UNL     1       3.320  14.127  19.413  0.00  0.00    +0.000 C 
BRANCH   8   9
ATOM      9  C   UNL     1       4.233  14.815  18.413  0.00  0.00    +0.000 C 
BRANCH   9  10
ATOM     10  C   UNL     1       5.515  15.260  19.099  0.00  0.00    +0.000 C 
BRANCH  10  11
ATOM     11  C   UNL     1       6.613  15.557  18.089  0.00  0.00    +0.000 C 
BRANCH  11  12
ATOM     12  C   UNL     1       7.342  14.273  17.708  0.00  0.00    +0.000 C 
BRANCH  12  13
ATOM     13  C   UNL     1       8.267  13.816  18.827  0.00  0.00    +0.000 C 
BRANCH  13  14
ATOM     14  N   UNL     1       9.533  13.316  18.296  0.00  0.00    +0.000 N 
ATOM     15  C   UNL     1       9.912  11.991  18.421  0.00  0.00    +0.000 A 
ATOM     16  C   UNL     1      11.141  11.752  17.853  0.00  0.00    +0.000 A 
ATOM     17  S   UNL     1      11.772  13.203  17.175  0.00  0.00    +0.000 S 
ATOM     18  C   UNL     1      10.393  14.090  17.668  0.00  0.00    +0.000 A 
ENDBRANCH  13  14
ENDBRANCH  12  13
ENDBRANCH  11  12
ENDBRANCH  10  11
ENDBRANCH   9  10
ENDBRANCH   8   9
ENDBRANCH   7   8
ENDBRANCH   6   7
ENDBRANCH   4   6
BRANCH   1  19
ATOM     19  C   UNL     1       1.281   8.955  17.704  0.00  0.00    +0.000 C 
BRANCH  19  20
ATOM     20  C   UNL     1       2.521   8.277  18.280  0.00  0.00    +0.000 C 
BRANCH  20  21
ATOM     21  C   UNL     1       2.334   6.779  18.482  0.00  0.00    +0.000 C 
BRANCH  21  22
ATOM     22  C   UNL     1       2.120   6.506  19.966  0.00  0.00    +0.000 C 
BRANCH  22  23
ATOM     23  C   UNL     1       2.716   5.170  20.372  0.00  0.00    +0.000 C 
BRANCH  23  24
ATOM     24  C   UNL     1       1.606   4.165  20.640  0.00  0.00    +0.000 C 
BRANCH  24  25
ATOM     25  C   UNL     1       1.020   3.681  19.326  0.00  0.00    +0.000 C 
BRANCH  25  26
ATOM     26  C   UNL     1       1.589   2.323  18.956  0.00  0.00    +0.000 C 
BRANCH  26  27
ATOM     27  C   UNL     1       2.384   2.434  17.665  0.00  0.00    +0.000 C 
BRANCH  27  28
ATOM     28  C   UNL     1       3.851   2.687  17.968  0.00  0.00    +0.000 C 
BRANCH  28  29
ATOM     29  C   UNL     1       4.378   3.823  17.104  0.00  0.00    +0.000 C 
BRANCH  29  30
ATOM     30  C   UNL     1       5.357   4.679  17.894  0.00  0.00    +0.000 C 
BRANCH  30  31
ATOM     31  C   UNL     1       5.573   6.020  17.204  0.00  0.00    +0.000 C 
BRANCH  31  33
ATOM     32  C   UNL     1       7.632   7.359  17.694  0.00  0.00    +0.000 C 
ATOM     33  C   UNL     1       7.046   6.228  16.869  0.00  0.00    +0.000 C 
ENDBRANCH  31  33
ENDBRANCH  30  31
ENDBRANCH  29  30
ENDBRANCH  28  29
ENDBRANCH  27  28
ENDBRANCH  26  27
ENDBRANCH  25  26
ENDBRANCH  24  25
ENDBRANCH  23  24
ENDBRANCH  22  23
ENDBRANCH  21  22
ENDBRANCH  20  21
ENDBRANCH  19  20
ENDBRANCH   1  19
TORSDOF 23
ENDMDL
MODEL 4
REMARK VINA RESULT:      -5.4      6.729     11.094
REMARK  Name = 
REMARK  24 active torsions:
REMARK  status: ('A' for Active; 'I' for Inactive)
REMARK    1  A    between atoms: C_1  and  C_2
REMARK    2  A    between atoms: C_2  and  C_3
REMARK    3  A    between atoms: C_3  and  C_4
REMARK    4  A    between atoms: C_4  and  C_5
REMARK    5  A    between atoms: C_5  and  C_6
REMARK    6  A    between atoms: C_6  and  C_7
REMARK    7  A    between atoms: C_7  and  C_8
REMARK    8  A    between atoms: C_8  and  C_9
REMARK    9  A    between atoms: C_9  and  C_10
REMARK   10  A    between atoms: C_10  and  C_11
REMARK   11  A    between atoms: C_11  and  C_12
REMARK   12  A    between atoms: C_12  and  C_13
REMARK   13  A    between atoms: C_13  and  C_14
REMARK   14  A    between atoms: C_14  and  C_15
REMARK   15  A    between atoms: C_15  and  C_16
REMARK   16  A    between atoms: C_19  and  C_20
REMARK   17  A    between atoms: C_20  and  O_21
REMARK   18  A    between atoms: O_21  and  C_22
REMARK   19  A    between atoms: C_22  and  C_23
REMARK   20  A    between atoms: C_23  and  C_24
REMARK   21  A    between atoms: C_24  and  C_25
REMARK   22  A    between atoms: C_25  and  C_26
REMARK   23  A    between atoms: C_26  and  C_27
REMARK   24  A    between atoms: C_27  and  N_28
REMARK                            x       y       z     vdW  Elec       q    Type
REMARK                         _______ _______ _______ _____ _____    ______ ____
ROOT
ATOM      1  C   UNL     1       1.851   9.393  17.759  0.00  0.00    +0.000 C 
ATOM      2  C   UNL     1       2.410  10.778  18.039  0.00  0.00    +0.000 C 
ATOM      3  C   UNL     1       1.225  11.491  18.641  0.00  0.00    +0.000 C 
ATOM      4  C   UNL     1       0.560  10.387  19.440  0.00  0.00    +0.000 C 
ATOM      5  O   UNL     1       0.803   9.171  18.713  0.00  0.00    +0.000 OA
ENDROOT
BRANCH   4   6
ATOM      6  C   UNL     1      -0.939  10.600  19.601  0.00  0.00    +0.000 C 
BRANCH   6   7
ATOM      7  O   UNL     1      -1.482  11.069  18.365  0.00  0.00    +0.000 OA
BRANCH   7   8
ATOM      8  C   UNL     1      -1.944   9.990  17.572  0.00  0.00    +0.000 C 
BRANCH   8   9
ATOM      9  C   UNL     1      -3.463  10.010  17.589  0.00  0.00    +0.000 C 
BRANCH   9  10
ATOM     10  C   UNL     1      -3.966  11.438  17.458  0.00  0.00    +0.000 C 
BRANCH  10  11
ATOM     11  C   UNL     1      -4.929  11.794  18.583  0.00  0.00    +0.000 C 
BRANCH  11  12
ATOM     12  C   UNL     1      -6.071  12.651  18.050  0.00  0.00    +0.000 C 
BRANCH  12  13
ATOM     13  C   UNL     1      -7.417  12.136  18.540  0.00  0.00    +0.000 C 
BRANCH  13  14
ATOM     14  N   UNL     1      -7.595  12.399  19.967  0.00  0.00    +0.000 N 
ATOM     15  C   UNL     1      -7.627  13.683  20.481  0.00  0.00    +0.000 A 
ATOM     16  C   UNL     1      -7.796  13.686  21.845  0.00  0.00    +0.000 A 
ATOM     17  S   UNL     1      -7.916  12.073  22.432  0.00  0.00    +0.000 S 
ATOM     18  C   UNL     1      -7.732  11.435  20.853  0.00  0.00    +0.000 A 
ENDBRANCH  13  14
ENDBRANCH  12  13
ENDBRANCH  11  12
ENDBRANCH  10  11
ENDBRANCH   9  10
ENDBRANCH   8   9
ENDBRANCH   7   8
ENDBRANCH   6   7
ENDBRANCH   4   6
BRANCH   1  19
ATOM     19  C   UNL     1       2.878   8.268  17.868  0.00  0.00    +0.000 C 
BRANCH  19  20
ATOM     20  C   UNL     1       2.194   6.969  18.286  0.00  0.00    +0.000 C 
BRANCH  20  21
ATOM     21  C   UNL     1       2.759   6.395  19.579  0.00  0.00    +0.000 C 
BRANCH  21  22
ATOM     22  C   UNL     1       1.608   5.868  20.427  0.00  0.00    +0.000 C 
BRANCH  22  23
ATOM     23  C   UNL     1       2.029   4.653  21.233  0.00  0.00    +0.000 C 
BRANCH  23  24
ATOM     24  C   UNL     1       3.267   4.023  20.615  0.00  0.00    +0.000 C 
BRANCH  24  25
ATOM     25  C   UNL     1       2.998   2.564  20.294  0.00  0.00    +0.000 C 
BRANCH  25  26
ATOM     26  C   UNL     1       1.523   2.342  20.012  0.00  0.00    +0.000 C 
BRANCH  26  27
ATOM     27  C   UNL     1       1.264   2.457  18.518  0.00  0.00    +0.000 C 
BRANCH  27  28
ATOM     28  C   UNL     1       2.562   2.310  17.744  0.00  0.00    +0.000 C 
BRANCH  28  29
ATOM     29  C   UNL     1       2.889   3.604  17.015  0.00  0.00    +0.000 C 
BRANCH  29  30
ATOM     30  C   UNL     1       4.345   3.609  16.572  0.00  0.00    +0.000 C 
BRANCH  30  31
ATOM     31  C   UNL     1       5.210   4.353  17.580  0.00  0.00    +0.000 C 
BRANCH  31  33
ATOM     32  C   UNL     1       5.410   5.887  15.611  0.00  0.00    +0.000 C 
ATOM     33  C   UNL     1       5.467   5.785  17.124  0.00  0.00    +0.000 C 
ENDBRANCH  31  33
ENDBRANCH  30  31
ENDBRANCH  29  30
ENDBRANCH  28  29
ENDBRANCH  27  28
ENDBRANCH  26  27
ENDBRANCH  25  26
ENDBRANCH  24  25
ENDBRANCH  23  24
ENDBRANCH  22  23
ENDBRANCH  21  22
ENDBRANCH  20  21
ENDBRANCH  19  20
ENDBRANCH   1  19
TORSDOF 23
ENDMDL
MODEL 5
REMARK VINA RESULT:      -5.3      4.860     10.751
REMARK  Name = 
REMARK  24 active torsions:
REMARK  status: ('A' for Active; 'I' for Inactive)
REMARK    1  A    between atoms: C_1  and  C_2
REMARK    2  A    between atoms: C_2  and  C_3
REMARK    3  A    between atoms: C_3  and  C_4
REMARK    4  A    between atoms: C_4  and  C_5
REMARK    5  A    between atoms: C_5  and  C_6
REMARK    6  A    between atoms: C_6  and  C_7
REMARK    7  A    between atoms: C_7  and  C_8
REMARK    8  A    between atoms: C_8  and  C_9
REMARK    9  A    between atoms: C_9  and  C_10
REMARK   10  A    between atoms: C_10  and  C_11
REMARK   11  A    between atoms: C_11  and  C_12
REMARK   12  A    between atoms: C_12  and  C_13
REMARK   13  A    between atoms: C_13  and  C_14
REMARK   14  A    between atoms: C_14  and  C_15
REMARK   15  A    between atoms: C_15  and  C_16
REMARK   16  A    between atoms: C_19  and  C_20
REMARK   17  A    between atoms: C_20  and  O_21
REMARK   18  A    between atoms: O_21  and  C_22
REMARK   19  A    between atoms: C_22  and  C_23
REMARK   20  A    between atoms: C_23  and  C_24
REMARK   21  A    between atoms: C_24  and  C_25
REMARK   22  A    between atoms: C_25  and  C_26
REMARK   23  A    between atoms: C_26  and  C_27
REMARK   24  A    between atoms: C_27  and  N_28
REMARK                            x       y       z     vdW  Elec       q    Type
REMARK                         _______ _______ _______ _____ _____    ______ ____
ROOT
ATOM      1  C   UNL     1       1.164   9.474  21.590  0.00  0.00    +0.000 C 
ATOM      2  C   UNL     1       0.149   9.262  22.702  0.00  0.00    +0.000 C 
ATOM      3  C   UNL     1      -0.635  10.551  22.676  0.00  0.00    +0.000 C 
ATOM      4  C   UNL     1      -0.672  10.871  21.194  0.00  0.00    +0.000 C 
ATOM      5  O   UNL     1       0.563  10.376  20.650  0.00  0.00    +0.000 OA
ENDROOT
BRANCH   4   6
ATOM      6  C   UNL     1      -0.794  12.364  20.920  0.00  0.00    +0.000 C 
BRANCH   6   7
ATOM      7  O   UNL     1       0.506  12.956  20.957  0.00  0.00    +0.000 OA
BRANCH   7   8
ATOM      8  C   UNL     1       0.455  14.319  20.575  0.00  0.00    +0.000 C 
BRANCH   8   9
ATOM      9  C   UNL     1       1.722  14.995  21.070  0.00  0.00    +0.000 C 
BRANCH   9  10
ATOM     10  C   UNL     1       2.861  13.989  21.127  0.00  0.00    +0.000 C 
BRANCH  10  11
ATOM     11  C   UNL     1       4.039  14.433  20.272  0.00  0.00    +0.000 C 
BRANCH  11  12
ATOM     12  C   UNL     1       5.146  15.002  21.152  0.00  0.00    +0.000 C 
BRANCH  12  13
ATOM     13  C   UNL     1       5.197  14.289  22.496  0.00  0.00    +0.000 C 
BRANCH  13  14
ATOM     14  N   UNL     1       6.432  13.521  22.641  0.00  0.00    +0.000 N 
ATOM     15  C   UNL     1       6.455  12.267  23.227  0.00  0.00    +0.000 A 
ATOM     16  C   UNL     1       7.724  11.739  23.260  0.00  0.00    +0.000 A 
ATOM     17  S   UNL     1       8.841  12.836  22.547  0.00  0.00    +0.000 S 
ATOM     18  C   UNL     1       7.598  13.970  22.228  0.00  0.00    +0.000 A 
ENDBRANCH  13  14
ENDBRANCH  12  13
ENDBRANCH  11  12
ENDBRANCH  10  11
ENDBRANCH   9  10
ENDBRANCH   8   9
ENDBRANCH   7   8
ENDBRANCH   6   7
ENDBRANCH   4   6
BRANCH   1  19
ATOM     19  C   UNL     1       1.577   8.194  20.867  0.00  0.00    +0.000 C 
BRANCH  19  20
ATOM     20  C   UNL     1       1.720   8.459  19.370  0.00  0.00    +0.000 C 
BRANCH  20  21
ATOM     21  C   UNL     1       2.154   7.223  18.592  0.00  0.00    +0.000 C 
BRANCH  21  22
ATOM     22  C   UNL     1       3.400   7.564  17.783  0.00  0.00    +0.000 C 
BRANCH  22  23
ATOM     23  C   UNL     1       4.225   6.324  17.494  0.00  0.00    +0.000 C 
BRANCH  23  24
ATOM     24  C   UNL     1       5.040   5.944  18.721  0.00  0.00    +0.000 C 
BRANCH  24  25
ATOM     25  C   UNL     1       5.004   4.440  18.919  0.00  0.00    +0.000 C 
BRANCH  25  26
ATOM     26  C   UNL     1       4.262   3.768  17.778  0.00  0.00    +0.000 C 
BRANCH  26  27
ATOM     27  C   UNL     1       3.719   2.426  18.239  0.00  0.00    +0.000 C 
BRANCH  27  28
ATOM     28  C   UNL     1       2.309   2.217  17.712  0.00  0.00    +0.000 C 
BRANCH  28  29
ATOM     29  C   UNL     1       1.417   3.379  18.122  0.00  0.00    +0.000 C 
BRANCH  29  30
ATOM     30  C   UNL     1       0.806   3.121  19.492  0.00  0.00    +0.000 C 
BRANCH  30  31
ATOM     31  C   UNL     1       0.986   4.334  20.396  0.00  0.00    +0.000 C 
BRANCH  31  33
ATOM     32  C   UNL     1       2.388   2.699  21.674  0.00  0.00    +0.000 C 
ATOM     33  C   UNL     1       2.196   4.159  21.305  0.00  0.00    +0.000 C 
ENDBRANCH  31  33
ENDBRANCH  30  31
ENDBRANCH  29  30
ENDBRANCH  28  29
ENDBRANCH  27  28
ENDBRANCH  26  27
ENDBRANCH  25  26
ENDBRANCH  24  25
ENDBRANCH  23  24
ENDBRANCH  22  23
ENDBRANCH  21  22
ENDBRANCH  20  21
ENDBRANCH  19  20
ENDBRANCH   1  19
TORSDOF 23
ENDMDL
MODEL 6
REMARK VINA RESULT:      -5.3      4.292     10.399
REMARK  Name = 
REMARK  24 active torsions:
REMARK  status: ('A' for Active; 'I' for Inactive)
REMARK    1  A    between atoms: C_1  and  C_2
REMARK    2  A    between atoms: C_2  and  C_3
REMARK    3  A    between atoms: C_3  and  C_4
REMARK    4  A    between atoms: C_4  and  C_5
REMARK    5  A    between atoms: C_5  and  C_6
REMARK    6  A    between atoms: C_6  and  C_7
REMARK    7  A    between atoms: C_7  and  C_8
REMARK    8  A    between atoms: C_8  and  C_9
REMARK    9  A    between atoms: C_9  and  C_10
REMARK   10  A    between atoms: C_10  and  C_11
REMARK   11  A    between atoms: C_11  and  C_12
REMARK   12  A    between atoms: C_12  and  C_13
REMARK   13  A    between atoms: C_13  and  C_14
REMARK   14  A    between atoms: C_14  and  C_15
REMARK   15  A    between atoms: C_15  and  C_16
REMARK   16  A    between atoms: C_19  and  C_20
REMARK   17  A    between atoms: C_20  and  O_21
REMARK   18  A    between atoms: O_21  and  C_22
REMARK   19  A    between atoms: C_22  and  C_23
REMARK   20  A    between atoms: C_23  and  C_24
REMARK   21  A    between atoms: C_24  and  C_25
REMARK   22  A    between atoms: C_25  and  C_26
REMARK   23  A    between atoms: C_26  and  C_27
REMARK   24  A    between atoms: C_27  and  N_28
REMARK                            x       y       z     vdW  Elec       q    Type
REMARK                         _______ _______ _______ _____ _____    ______ ____
ROOT
ATOM      1  C   UNL     1       4.900   4.551  16.340  0.00  0.00    +0.000 C 
ATOM      2  C   UNL     1       5.895   3.917  15.383  0.00  0.00    +0.000 C 
ATOM      3  C   UNL     1       7.104   4.808  15.534  0.00  0.00    +0.000 C 
ATOM      4  C   UNL     1       7.059   5.158  17.009  0.00  0.00    +0.000 C 
ATOM      5  O   UNL     1       5.667   5.197  17.365  0.00  0.00    +0.000 OA
ENDROOT
BRANCH   4   6
ATOM      6  C   UNL     1       7.707   6.502  17.312  0.00  0.00    +0.000 C 
BRANCH   6   7
ATOM      7  O   UNL     1       6.694   7.440  17.678  0.00  0.00    +0.000 OA
BRANCH   7   8
ATOM      8  C   UNL     1       7.129   8.770  17.457  0.00  0.00    +0.000 C 
BRANCH   8   9
ATOM      9  C   UNL     1       8.450   8.959  18.184  0.00  0.00    +0.000 C 
BRANCH   9  10
ATOM     10  C   UNL     1       8.657  10.429  18.512  0.00  0.00    +0.000 C 
BRANCH  10  11
ATOM     11  C   UNL     1      10.132  10.805  18.472  0.00  0.00    +0.000 C 
BRANCH  11  12
ATOM     12  C   UNL     1      10.310  12.181  17.839  0.00  0.00    +0.000 C 
BRANCH  12  13
ATOM     13  C   UNL     1      10.311  13.274  18.898  0.00  0.00    +0.000 C 
BRANCH  13  14
ATOM     14  N   UNL     1      10.430  14.598  18.291  0.00  0.00    +0.000 N 
ATOM     15  C   UNL     1      11.126  14.809  17.113  0.00  0.00    +0.000 A 
ATOM     16  C   UNL     1      11.109  16.130  16.736  0.00  0.00    +0.000 A 
ATOM     17  S   UNL     1      10.212  17.060  17.873  0.00  0.00    +0.000 S 
ATOM     18  C   UNL     1       9.887  15.673  18.823  0.00  0.00    +0.000 A 
ENDBRANCH  13  14
ENDBRANCH  12  13
ENDBRANCH  11  12
ENDBRANCH  10  11
ENDBRANCH   9  10
ENDBRANCH   8   9
ENDBRANCH   7   8
ENDBRANCH   6   7
ENDBRANCH   4   6
BRANCH   1  19
ATOM     19  C   UNL     1       3.931   3.562  16.984  0.00  0.00    +0.000 C 
BRANCH  19  20
ATOM     20  C   UNL     1       4.578   2.911  18.204  0.00  0.00    +0.000 C 
BRANCH  20  21
ATOM     21  C   UNL     1       3.558   2.460  19.242  0.00  0.00    +0.000 C 
BRANCH  21  22
ATOM     22  C   UNL     1       2.383   1.806  18.524  0.00  0.00    +0.000 C 
BRANCH  22  23
ATOM     23  C   UNL     1       1.069   2.460  18.910  0.00  0.00    +0.000 C 
BRANCH  23  24
ATOM     24  C   UNL     1       1.246   3.968  18.998  0.00  0.00    +0.000 C 
BRANCH  24  25
ATOM     25  C   UNL     1       0.852   4.454  20.381  0.00  0.00    +0.000 C 
BRANCH  25  26
ATOM     26  C   UNL     1       1.893   5.416  20.926  0.00  0.00    +0.000 C 
BRANCH  26  27
ATOM     27  C   UNL     1       2.529   6.186  19.781  0.00  0.00    +0.000 C 
BRANCH  27  28
ATOM     28  C   UNL     1       1.990   7.606  19.736  0.00  0.00    +0.000 C 
BRANCH  28  29
ATOM     29  C   UNL     1       1.547   8.044  21.123  0.00  0.00    +0.000 C 
BRANCH  29  30
ATOM     30  C   UNL     1       0.315   8.933  21.030  0.00  0.00    +0.000 C 
BRANCH  30  31
ATOM     31  C   UNL     1       0.335   9.743  19.741  0.00  0.00    +0.000 C 
BRANCH  31  33
ATOM     32  C   UNL     1      -0.240  12.093  19.092  0.00  0.00    +0.000 C 
ATOM     33  C   UNL     1      -0.738  10.825  19.762  0.00  0.00    +0.000 C 
ENDBRANCH  31  33
ENDBRANCH  30  31
ENDBRANCH  29  30
ENDBRANCH  28  29
ENDBRANCH  27  28
ENDBRANCH  26  27
ENDBRANCH  25  26
ENDBRANCH  24  25
ENDBRANCH  23  24
ENDBRANCH  22  23
ENDBRANCH  21  22
ENDBRANCH  20  21
ENDBRANCH  19  20
ENDBRANCH   1  19
TORSDOF 23
ENDMDL
MODEL 7
REMARK VINA RESULT:      -5.2      4.170     10.642
REMARK  Name = 
REMARK  24 active torsions:
REMARK  status: ('A' for Active; 'I' for Inactive)
REMARK    1  A    between atoms: C_1  and  C_2
REMARK    2  A    between atoms: C_2  and  C_3
REMARK    3  A    between atoms: C_3  and  C_4
REMARK    4  A    between atoms: C_4  and  C_5
REMARK    5  A    between atoms: C_5  and  C_6
REMARK    6  A    between atoms: C_6  and  C_7
REMARK    7  A    between atoms: C_7  and  C_8
REMARK    8  A    between atoms: C_8  and  C_9
REMARK    9  A    between atoms: C_9  and  C_10
REMARK   10  A    between atoms: C_10  and  C_11
REMARK   11  A    between atoms: C_11  and  C_12
REMARK   12  A    between atoms: C_12  and  C_13
REMARK   13  A    between atoms: C_13  and  C_14
REMARK   14  A    between atoms: C_14  and  C_15
REMARK   15  A    between atoms: C_15  and  C_16
REMARK   16  A    between atoms: C_19  and  C_20
REMARK   17  A    between atoms: C_20  and  O_21
REMARK   18  A    between atoms: O_21  and  C_22
REMARK   19  A    between atoms: C_22  and  C_23
REMARK   20  A    between atoms: C_23  and  C_24
REMARK   21  A    between atoms: C_24  and  C_25
REMARK   22  A    between atoms: C_25  and  C_26
REMARK   23  A    between atoms: C_26  and  C_27
REMARK   24  A    between atoms: C_27  and  N_28
REMARK                            x       y       z     vdW  Elec       q    Type
REMARK                         _______ _______ _______ _____ _____    ______ ____
ROOT
ATOM      1  C   UNL     1       1.682   9.783  18.846  0.00  0.00    +0.000 C 
ATOM      2  C   UNL     1       0.377  10.269  19.455  0.00  0.00    +0.000 C 
ATOM      3  C   UNL     1       0.675  11.720  19.745  0.00  0.00    +0.000 C 
ATOM      4  C   UNL     1       1.557  12.105  18.574  0.00  0.00    +0.000 C 
ATOM      5  O   UNL     1       2.300  10.922  18.231  0.00  0.00    +0.000 OA
ENDROOT
BRANCH   4   6
ATOM      6  C   UNL     1       2.518  13.237  18.910  0.00  0.00    +0.000 C 
BRANCH   6   7
ATOM      7  O   UNL     1       2.236  14.358  18.070  0.00  0.00    +0.000 OA
BRANCH   7   8
ATOM      8  C   UNL     1       3.425  15.047  17.726  0.00  0.00    +0.000 C 
BRANCH   8   9
ATOM      9  C   UNL     1       3.638  16.154  18.744  0.00  0.00    +0.000 C 
BRANCH   9  10
ATOM     10  C   UNL     1       5.124  16.345  19.002  0.00  0.00    +0.000 C 
BRANCH  10  11
ATOM     11  C   UNL     1       5.911  15.082  18.680  0.00  0.00    +0.000 C 
BRANCH  11  12
ATOM     12  C   UNL     1       6.988  14.847  19.733  0.00  0.00    +0.000 C 
BRANCH  12  13
ATOM     13  C   UNL     1       8.359  14.694  19.089  0.00  0.00    +0.000 C 
BRANCH  13  14
ATOM     14  N   UNL     1       8.791  13.298  19.093  0.00  0.00    +0.000 N 
ATOM     15  C   UNL     1       9.170  12.647  20.254  0.00  0.00    +0.000 A 
ATOM     16  C   UNL     1       9.543  11.346  20.016  0.00  0.00    +0.000 A 
ATOM     17  S   UNL     1       9.398  10.985  18.340  0.00  0.00    +0.000 S 
ATOM     18  C   UNL     1       8.852  12.572  17.997  0.00  0.00    +0.000 A 
ENDBRANCH  13  14
ENDBRANCH  12  13
ENDBRANCH  11  12
ENDBRANCH  10  11
ENDBRANCH   9  10
ENDBRANCH   8   9
ENDBRANCH   7   8
ENDBRANCH   6   7
ENDBRANCH   4   6
BRANCH   1  19
ATOM     19  C   UNL     1       1.515   8.679  17.805  0.00  0.00    +0.000 C 
BRANCH  19  20
ATOM     20  C   UNL     1       2.382   7.476  18.170  0.00  0.00    +0.000 C 
BRANCH  20  21
ATOM     21  C   UNL     1       2.413   7.205  19.669  0.00  0.00    +0.000 C 
BRANCH  21  22
ATOM     22  C   UNL     1       2.522   5.701  19.894  0.00  0.00    +0.000 C 
BRANCH  22  23
ATOM     23  C   UNL     1       1.223   5.130  20.434  0.00  0.00    +0.000 C 
BRANCH  23  24
ATOM     24  C   UNL     1       1.301   3.612  20.477  0.00  0.00    +0.000 C 
BRANCH  24  25
ATOM     25  C   UNL     1       2.747   3.173  20.621  0.00  0.00    +0.000 C 
BRANCH  25  26
ATOM     26  C   UNL     1       3.153   2.282  19.460  0.00  0.00    +0.000 C 
BRANCH  26  27
ATOM     27  C   UNL     1       2.098   2.351  18.368  0.00  0.00    +0.000 C 
BRANCH  27  28
ATOM     28  C   UNL     1       2.626   3.124  17.171  0.00  0.00    +0.000 C 
BRANCH  28  29
ATOM     29  C   UNL     1       4.090   3.480  17.379  0.00  0.00    +0.000 C 
BRANCH  29  30
ATOM     30  C   UNL     1       4.421   4.790  16.679  0.00  0.00    +0.000 C 
BRANCH  30  31
ATOM     31  C   UNL     1       5.900   5.121  16.833  0.00  0.00    +0.000 C 
BRANCH  31  33
ATOM     32  C   UNL     1       7.437   6.947  17.591  0.00  0.00    +0.000 C 
ATOM     33  C   UNL     1       6.101   6.265  17.820  0.00  0.00    +0.000 C 
ENDBRANCH  31  33
ENDBRANCH  30  31
ENDBRANCH  29  30
ENDBRANCH  28  29
ENDBRANCH  27  28
ENDBRANCH  26  27
ENDBRANCH  25  26
ENDBRANCH  24  25
ENDBRANCH  23  24
ENDBRANCH  22  23
ENDBRANCH  21  22
ENDBRANCH  20  21
ENDBRANCH  19  20
ENDBRANCH   1  19
TORSDOF 23
ENDMDL
MODEL 8
REMARK VINA RESULT:      -5.1      3.905     10.806
REMARK  Name = 
REMARK  24 active torsions:
REMARK  status: ('A' for Active; 'I' for Inactive)
REMARK    1  A    between atoms: C_1  and  C_2
REMARK    2  A    between atoms: C_2  and  C_3
REMARK    3  A    between atoms: C_3  and  C_4
REMARK    4  A    between atoms: C_4  and  C_5
REMARK    5  A    between atoms: C_5  and  C_6
REMARK    6  A    between atoms: C_6  and  C_7
REMARK    7  A    between atoms: C_7  and  C_8
REMARK    8  A    between atoms: C_8  and  C_9
REMARK    9  A    between atoms: C_9  and  C_10
REMARK   10  A    between atoms: C_10  and  C_11
REMARK   11  A    between atoms: C_11  and  C_12
REMARK   12  A    between atoms: C_12  and  C_13
REMARK   13  A    between atoms: C_13  and  C_14
REMARK   14  A    between atoms: C_14  and  C_15
REMARK   15  A    between atoms: C_15  and  C_16
REMARK   16  A    between atoms: C_19  and  C_20
REMARK   17  A    between atoms: C_20  and  O_21
REMARK   18  A    between atoms: O_21  and  C_22
REMARK   19  A    between atoms: C_22  and  C_23
REMARK   20  A    between atoms: C_23  and  C_24
REMARK   21  A    between atoms: C_24  and  C_25
REMARK   22  A    between atoms: C_25  and  C_26
REMARK   23  A    between atoms: C_26  and  C_27
REMARK   24  A    between atoms: C_27  and  N_28
REMARK                            x       y       z     vdW  Elec       q    Type
REMARK                         _______ _______ _______ _____ _____    ______ ____
ROOT
ATOM      1  C   UNL     1       9.263  10.559  18.311  0.00  0.00    +0.000 C 
ATOM      2  C   UNL     1       9.563  10.431  19.795  0.00  0.00    +0.000 C 
ATOM      3  C   UNL     1      10.290  11.720  20.092  0.00  0.00    +0.000 C 
ATOM      4  C   UNL     1       9.570  12.705  19.192  0.00  0.00    +0.000 C 
ATOM      5  O   UNL     1       9.171  11.962  18.028  0.00  0.00    +0.000 OA
ENDROOT
BRANCH   4   6
ATOM      6  C   UNL     1      10.453  13.875  18.778  0.00  0.00    +0.000 C 
BRANCH   6   7
ATOM      7  O   UNL     1       9.993  15.063  19.426  0.00  0.00    +0.000 OA
BRANCH   7   8
ATOM      8  C   UNL     1       8.669  15.376  19.032  0.00  0.00    +0.000 C 
BRANCH   8   9
ATOM      9  C   UNL     1       7.850  15.619  20.288  0.00  0.00    +0.000 C 
BRANCH   9  10
ATOM     10  C   UNL     1       8.267  16.929  20.937  0.00  0.00    +0.000 C 
BRANCH  10  11
ATOM     11  C   UNL     1       8.384  16.788  22.448  0.00  0.00    +0.000 C 
BRANCH  11  12
ATOM     12  C   UNL     1       9.187  15.542  22.802  0.00  0.00    +0.000 C 
BRANCH  12  13
ATOM     13  C   UNL     1       8.810  15.022  24.182  0.00  0.00    +0.000 C 
BRANCH  13  14
ATOM     14  N   UNL     1       8.198  13.697  24.098  0.00  0.00    +0.000 N 
ATOM     15  C   UNL     1       8.495  12.812  23.078  0.00  0.00    +0.000 A 
ATOM     16  C   UNL     1       7.798  11.634  23.200  0.00  0.00    +0.000 A 
ATOM     17  S   UNL     1       6.797  11.680  24.599  0.00  0.00    +0.000 S 
ATOM     18  C   UNL     1       7.324  13.263  24.983  0.00  0.00    +0.000 A 
ENDBRANCH  13  14
ENDBRANCH  12  13
ENDBRANCH  11  12
ENDBRANCH  10  11
ENDBRANCH   9  10
ENDBRANCH   8   9
ENDBRANCH   7   8
ENDBRANCH   6   7
ENDBRANCH   4   6
BRANCH   1  19
ATOM     19  C   UNL     1       7.973   9.871  17.871  0.00  0.00    +0.000 C 
BRANCH  19  20
ATOM     20  C   UNL     1       8.143   8.354  17.915  0.00  0.00    +0.000 C 
BRANCH  20  21
ATOM     21  C   UNL     1       6.960   7.610  17.310  0.00  0.00    +0.000 C 
BRANCH  21  22
ATOM     22  C   UNL     1       7.378   6.173  17.023  0.00  0.00    +0.000 C 
BRANCH  22  23
ATOM     23  C   UNL     1       6.191   5.230  17.094  0.00  0.00    +0.000 C 
BRANCH  23  24
ATOM     24  C   UNL     1       5.111   5.819  17.988  0.00  0.00    +0.000 C 
BRANCH  24  25
ATOM     25  C   UNL     1       4.815   4.869  19.134  0.00  0.00    +0.000 C 
BRANCH  25  26
ATOM     26  C   UNL     1       4.402   3.507  18.605  0.00  0.00    +0.000 C 
BRANCH  26  27
ATOM     27  C   UNL     1       3.030   3.602  17.958  0.00  0.00    +0.000 C 
BRANCH  27  28
ATOM     28  C   UNL     1       2.412   2.221  17.825  0.00  0.00    +0.000 C 
BRANCH  28  29
ATOM     29  C   UNL     1       1.017   2.209  18.432  0.00  0.00    +0.000 C 
BRANCH  29  30
ATOM     30  C   UNL     1       0.957   3.130  19.642  0.00  0.00    +0.000 C 
BRANCH  30  31
ATOM     31  C   UNL     1       1.627   2.480  20.845  0.00  0.00    +0.000 C 
BRANCH  31  33
ATOM     32  C   UNL     1       2.093   4.918  21.177  0.00  0.00    +0.000 C 
ATOM     33  C   UNL     1       2.174   3.535  21.799  0.00  0.00    +0.000 C 
ENDBRANCH  31  33
ENDBRANCH  30  31
ENDBRANCH  29  30
ENDBRANCH  28  29
ENDBRANCH  27  28
ENDBRANCH  26  27
ENDBRANCH  25  26
ENDBRANCH  24  25
ENDBRANCH  23  24
ENDBRANCH  22  23
ENDBRANCH  21  22
ENDBRANCH  20  21
ENDBRANCH  19  20
ENDBRANCH   1  19
TORSDOF 23
ENDMDL
MODEL 9
REMARK VINA RESULT:      -5.1      7.529     12.106
REMARK  Name = 
REMARK  24 active torsions:
REMARK  status: ('A' for Active; 'I' for Inactive)
REMARK    1  A    between atoms: C_1  and  C_2
REMARK    2  A    between atoms: C_2  and  C_3
REMARK    3  A    between atoms: C_3  and  C_4
REMARK    4  A    between atoms: C_4  and  C_5
REMARK    5  A    between atoms: C_5  and  C_6
REMARK    6  A    between atoms: C_6  and  C_7
REMARK    7  A    between atoms: C_7  and  C_8
REMARK    8  A    between atoms: C_8  and  C_9
REMARK    9  A    between atoms: C_9  and  C_10
REMARK   10  A    between atoms: C_10  and  C_11
REMARK   11  A    between atoms: C_11  and  C_12
REMARK   12  A    between atoms: C_12  and  C_13
REMARK   13  A    between atoms: C_13  and  C_14
REMARK   14  A    between atoms: C_14  and  C_15
REMARK   15  A    between atoms: C_15  and  C_16
REMARK   16  A    between atoms: C_19  and  C_20
REMARK   17  A    between atoms: C_20  and  O_21
REMARK   18  A    between atoms: O_21  and  C_22
REMARK   19  A    between atoms: C_22  and  C_23
REMARK   20  A    between atoms: C_23  and  C_24
REMARK   21  A    between atoms: C_24  and  C_25
REMARK   22  A    between atoms: C_25  and  C_26
REMARK   23  A    between atoms: C_26  and  C_27
REMARK   24  A    between atoms: C_27  and  N_28
REMARK                            x       y       z     vdW  Elec       q    Type
REMARK                         _______ _______ _______ _____ _____    ______ ____
ROOT
ATOM      1  C   UNL     1      -0.323   9.766  20.873  0.00  0.00    +0.000 C 
ATOM      2  C   UNL     1      -0.582  10.901  19.896  0.00  0.00    +0.000 C 
ATOM      3  C   UNL     1      -1.560  11.764  20.654  0.00  0.00    +0.000 C 
ATOM      4  C   UNL     1      -1.066  11.627  22.081  0.00  0.00    +0.000 C 
ATOM      5  O   UNL     1      -0.527  10.299  22.188  0.00  0.00    +0.000 OA
ENDROOT
BRANCH   4   6
ATOM      6  C   UNL     1      -2.176  11.817  23.107  0.00  0.00    +0.000 C 
BRANCH   6   7
ATOM      7  O   UNL     1      -2.181  13.177  23.546  0.00  0.00    +0.000 OA
BRANCH   7   8
ATOM      8  C   UNL     1      -0.947  13.809  23.259  0.00  0.00    +0.000 C 
BRANCH   8   9
ATOM      9  C   UNL     1      -1.029  15.246  23.744  0.00  0.00    +0.000 C 
BRANCH   9  10
ATOM     10  C   UNL     1      -1.662  15.293  25.126  0.00  0.00    +0.000 C 
BRANCH  10  11
ATOM     11  C   UNL     1      -2.593  16.488  25.270  0.00  0.00    +0.000 C 
BRANCH  11  12
ATOM     12  C   UNL     1      -3.440  16.654  24.013  0.00  0.00    +0.000 C 
BRANCH  12  13
ATOM     13  C   UNL     1      -4.767  15.920  24.147  0.00  0.00    +0.000 C 
BRANCH  13  14
ATOM     14  N   UNL     1      -4.943  14.946  23.071  0.00  0.00    +0.000 N 
ATOM     15  C   UNL     1      -4.408  15.138  21.809  0.00  0.00    +0.000 A 
ATOM     16  C   UNL     1      -4.707  14.098  20.961  0.00  0.00    +0.000 A 
ATOM     17  S   UNL     1      -5.644  12.913  21.784  0.00  0.00    +0.000 S 
ATOM     18  C   UNL     1      -5.622  13.830  23.230  0.00  0.00    +0.000 A 
ENDBRANCH  13  14
ENDBRANCH  12  13
ENDBRANCH  11  12
ENDBRANCH  10  11
ENDBRANCH   9  10
ENDBRANCH   8   9
ENDBRANCH   7   8
ENDBRANCH   6   7
ENDBRANCH   4   6
BRANCH   1  19
ATOM     19  C   UNL     1       1.080   9.170  20.783  0.00  0.00    +0.000 C 
BRANCH  19  20
ATOM     20  C   UNL     1       1.474   8.969  19.321  0.00  0.00    +0.000 C 
BRANCH  20  21
ATOM     21  C   UNL     1       2.198   7.650  19.082  0.00  0.00    +0.000 C 
BRANCH  21  22
ATOM     22  C   UNL     1       1.821   6.674  20.191  0.00  0.00    +0.000 C 
BRANCH  22  23
ATOM     23  C   UNL     1       2.720   5.452  20.177  0.00  0.00    +0.000 C 
BRANCH  23  24
ATOM     24  C   UNL     1       2.285   4.474  21.257  0.00  0.00    +0.000 C 
BRANCH  24  25
ATOM     25  C   UNL     1       1.142   3.616  20.747  0.00  0.00    +0.000 C 
BRANCH  25  26
ATOM     26  C   UNL     1       1.673   2.376  20.051  0.00  0.00    +0.000 C 
BRANCH  26  27
ATOM     27  C   UNL     1       1.193   2.351  18.609  0.00  0.00    +0.000 C 
BRANCH  27  28
ATOM     28  C   UNL     1       2.374   2.230  17.661  0.00  0.00    +0.000 C 
BRANCH  28  29
ATOM     29  C   UNL     1       2.787   3.604  17.156  0.00  0.00    +0.000 C 
BRANCH  29  30
ATOM     30  C   UNL     1       4.304   3.713  17.094  0.00  0.00    +0.000 C 
BRANCH  30  31
ATOM     31  C   UNL     1       4.736   5.173  17.068  0.00  0.00    +0.000 C 
BRANCH  31  33
ATOM     32  C   UNL     1       5.787   4.281  14.977  0.00  0.00    +0.000 C 
ATOM     33  C   UNL     1       5.357   5.531  15.723  0.00  0.00    +0.000 C 
ENDBRANCH  31  33
ENDBRANCH  30  31
ENDBRANCH  29  30
ENDBRANCH  28  29
ENDBRANCH  27  28
ENDBRANCH  26  27
ENDBRANCH  25  26
ENDBRANCH  24  25
ENDBRANCH  23  24
ENDBRANCH  22  23
ENDBRANCH  21  22
ENDBRANCH  20  21
ENDBRANCH  19  20
ENDBRANCH   1  19
TORSDOF 23
ENDMDL
