MODEL 1
REMARK VINA RESULT:      -7.9      0.000      0.000
REMARK  Name = 
REMARK  5 active torsions:
REMARK  status: ('A' for Active; 'I' for Inactive)
REMARK    1  A    between atoms: C_2  and  O_3
REMARK    2  A    between atoms: C_2  and  C_4
REMARK    3  A    between atoms: C_7  and  C_8
REMARK    4  A    between atoms: N_10  and  C_11
REMARK    5  A    between atoms: C_11  and  C_12
REMARK                            x       y       z     vdW  Elec       q    Type
REMARK                         _______ _______ _______ _____ _____    ______ ____
ROOT
ATOM      1  C   UNL     1       3.026   6.291  19.136  0.00  0.00    +0.000 A 
ATOM      2  N   UNL     1       4.265   6.152  18.586  0.00  0.00    +0.000 NA
ATOM      3  N   UNL     1       4.668   4.898  18.795  0.00  0.00    +0.000 N 
ATOM      4  C   UNL     1       3.679   4.248  19.433  0.00  0.00    +0.000 A 
ATOM      5  C   UNL     1       3.515   2.955  19.855  0.00  0.00    +0.000 A 
ATOM      6  C   UNL     1       2.261   2.805  20.442  0.00  0.00    +0.000 A 
ATOM      7 SE   UNL     1       1.234   4.336  20.502  0.00  0.00    +0.000 Se
ATOM      8  C   UNL     1       2.660   5.073  19.671  0.00  0.00    +0.000 A 
ENDROOT
BRANCH   1  12
ATOM      9  C   UNL     1       0.702   9.920  19.151  0.00  0.00    +0.000 A 
ATOM     10  C   UNL     1       0.905   9.192  20.342  0.00  0.00    +0.000 A 
ATOM     11  C   UNL     1       1.649   8.005  20.340  0.00  0.00    +0.000 A 
ATOM     12  C   UNL     1       2.238   7.541  19.153  0.00  0.00    +0.000 A 
ATOM     13  C   UNL     1       2.051   8.274  17.974  0.00  0.00    +0.000 A 
ATOM     14  C   UNL     1       1.285   9.438  17.966  0.00  0.00    +0.000 A 
BRANCH   9  16
ATOM     15  O   UNL     1      -0.490  11.628  20.238  0.00  0.00    +0.000 OA
ATOM     16  C   UNL     1      -0.121  11.167  19.169  0.00  0.00    +0.000 C 
BRANCH  16  17
ATOM     17  O   UNL     1      -0.498  11.809  18.038  0.00  0.00    +0.000 OA
ATOM     18  H   UNL     1      -1.267  11.571  17.505  0.00  0.00    +0.000 HD
ENDBRANCH  16  17
ENDBRANCH   9  16
ENDBRANCH   1  12
BRANCH   3  19
ATOM     19  C   UNL     1       5.968   4.362  18.386  0.00  0.00    +0.000 C 
BRANCH  19  20
ATOM     20  C   UNL     1       6.129   4.424  16.886  0.00  0.00    +0.000 A 
ATOM     21  C   UNL     1       7.287   4.989  16.314  0.00  0.00    +0.000 A 
ATOM     22  C   UNL     1       7.442   5.029  14.923  0.00  0.00    +0.000 A 
ATOM     23  C   UNL     1       6.451   4.501  14.092  0.00  0.00    +0.000 A 
ATOM     24  C   UNL     1       5.302   3.934  14.648  0.00  0.00    +0.000 A 
ATOM     25  C   UNL     1       5.139   3.896  16.037  0.00  0.00    +0.000 A 
ENDBRANCH  19  20
ENDBRANCH   3  19
TORSDOF 5
ENDMDL
MODEL 2
REMARK VINA RESULT:      -7.8      0.063      1.398
REMARK  Name = 
REMARK  5 active torsions:
REMARK  status: ('A' for Active; 'I' for Inactive)
REMARK    1  A    between atoms: C_2  and  O_3
REMARK    2  A    between atoms: C_2  and  C_4
REMARK    3  A    between atoms: C_7  and  C_8
REMARK    4  A    between atoms: N_10  and  C_11
REMARK    5  A    between atoms: C_11  and  C_12
REMARK                            x       y       z     vdW  Elec       q    Type
REMARK                         _______ _______ _______ _____ _____    ______ ____
ROOT
ATOM      1  C   UNL     1       3.018   6.296  19.140  0.00  0.00    +0.000 A 
ATOM      2  N   UNL     1       4.262   6.163  18.603  0.00  0.00    +0.000 NA
ATOM      3  N   UNL     1       4.672   4.912  18.823  0.00  0.00    +0.000 N 
ATOM      4  C   UNL     1       3.681   4.259  19.456  0.00  0.00    +0.000 A 
ATOM      5  C   UNL     1       3.522   2.968  19.884  0.00  0.00    +0.000 A 
ATOM      6  C   UNL     1       2.263   2.813  20.460  0.00  0.00    +0.000 A 
ATOM      7 SE   UNL     1       1.226   4.338  20.502  0.00  0.00    +0.000 Se
ATOM      8  C   UNL     1       2.655   5.079  19.679  0.00  0.00    +0.000 A 
ENDROOT
BRANCH   1  12
ATOM      9  C   UNL     1       0.722   9.944  19.178  0.00  0.00    +0.000 A 
ATOM     10  C   UNL     1       1.282   9.459  17.978  0.00  0.00    +0.000 A 
ATOM     11  C   UNL     1       2.040   8.281  17.962  0.00  0.00    +0.000 A 
ATOM     12  C   UNL     1       2.222   7.541  19.142  0.00  0.00    +0.000 A 
ATOM     13  C   UNL     1       1.650   8.012  20.331  0.00  0.00    +0.000 A 
ATOM     14  C   UNL     1       0.922   9.201  20.356  0.00  0.00    +0.000 A 
BRANCH   9  16
ATOM     15  O   UNL     1      -0.297  11.775  20.239  0.00  0.00    +0.000 OA
ATOM     16  C   UNL     1      -0.057  11.219  19.179  0.00  0.00    +0.000 C 
BRANCH  16  17
ATOM     17  O   UNL     1      -0.533  11.783  18.045  0.00  0.00    +0.000 OA
ATOM     18  H   UNL     1      -0.034  12.391  17.485  0.00  0.00    +0.000 HD
ENDBRANCH  16  17
ENDBRANCH   9  16
ENDBRANCH   1  12
BRANCH   3  19
ATOM     19  C   UNL     1       5.979   4.383  18.430  0.00  0.00    +0.000 C 
BRANCH  19  20
ATOM     20  C   UNL     1       6.144   4.413  16.929  0.00  0.00    +0.000 A 
ATOM     21  C   UNL     1       5.124   3.923  16.088  0.00  0.00    +0.000 A 
ATOM     22  C   UNL     1       5.271   3.968  14.697  0.00  0.00    +0.000 A 
ATOM     23  C   UNL     1       6.430   4.508  14.131  0.00  0.00    +0.000 A 
ATOM     24  C   UNL     1       7.444   5.001  14.955  0.00  0.00    +0.000 A 
ATOM     25  C   UNL     1       7.305   4.953  16.346  0.00  0.00    +0.000 A 
ENDBRANCH  19  20
ENDBRANCH   3  19
TORSDOF 5
ENDMDL
MODEL 3
REMARK VINA RESULT:      -7.8      0.217      1.010
REMARK  Name = 
REMARK  5 active torsions:
REMARK  status: ('A' for Active; 'I' for Inactive)
REMARK    1  A    between atoms: C_2  and  O_3
REMARK    2  A    between atoms: C_2  and  C_4
REMARK    3  A    between atoms: C_7  and  C_8
REMARK    4  A    between atoms: N_10  and  C_11
REMARK    5  A    between atoms: C_11  and  C_12
REMARK                            x       y       z     vdW  Elec       q    Type
REMARK                         _______ _______ _______ _____ _____    ______ ____
ROOT
ATOM      1  C   UNL     1       3.140   6.241  19.018  0.00  0.00    +0.000 A 
ATOM      2  N   UNL     1       4.372   6.128  18.450  0.00  0.00    +0.000 NA
ATOM      3  N   UNL     1       4.806   4.883  18.656  0.00  0.00    +0.000 N 
ATOM      4  C   UNL     1       3.841   4.213  19.310  0.00  0.00    +0.000 A 
ATOM      5  C   UNL     1       3.711   2.919  19.738  0.00  0.00    +0.000 A 
ATOM      6  C   UNL     1       2.469   2.743  20.344  0.00  0.00    +0.000 A 
ATOM      7 SE   UNL     1       1.411   4.252  20.416  0.00  0.00    +0.000 Se
ATOM      8  C   UNL     1       2.808   5.017  19.562  0.00  0.00    +0.000 A 
ENDROOT
BRANCH   1  12
ATOM      9  C   UNL     1       0.793   9.854  19.126  0.00  0.00    +0.000 A 
ATOM     10  C   UNL     1       1.333   9.384  17.911  0.00  0.00    +0.000 A 
ATOM     11  C   UNL     1       2.108   8.217  17.873  0.00  0.00    +0.000 A 
ATOM     12  C   UNL     1       2.326   7.474  19.044  0.00  0.00    +0.000 A 
ATOM     13  C   UNL     1       1.774   7.931  20.248  0.00  0.00    +0.000 A 
ATOM     14  C   UNL     1       1.029   9.109  20.295  0.00  0.00    +0.000 A 
BRANCH   9  16
ATOM     15  O   UNL     1      -0.095  11.750  20.191  0.00  0.00    +0.000 OA
ATOM     16  C   UNL     1      -0.005  11.117  19.150  0.00  0.00    +0.000 C 
BRANCH  16  17
ATOM     17  O   UNL     1      -0.658  11.589  18.062  0.00  0.00    +0.000 OA
ATOM     18  H   UNL     1      -1.464  11.204  17.698  0.00  0.00    +0.000 HD
ENDBRANCH  16  17
ENDBRANCH   9  16
ENDBRANCH   1  12
BRANCH   3  19
ATOM     19  C   UNL     1       6.111   4.374  18.229  0.00  0.00    +0.000 C 
BRANCH  19  20
ATOM     20  C   UNL     1       6.240   4.417  16.725  0.00  0.00    +0.000 A 
ATOM     21  C   UNL     1       7.283   5.146  16.118  0.00  0.00    +0.000 A 
ATOM     22  C   UNL     1       7.412   5.170  14.724  0.00  0.00    +0.000 A 
ATOM     23  C   UNL     1       6.510   4.464  13.924  0.00  0.00    +0.000 A 
ATOM     24  C   UNL     1       5.476   3.734  14.515  0.00  0.00    +0.000 A 
ATOM     25  C   UNL     1       5.339   3.711  15.908  0.00  0.00    +0.000 A 
ENDBRANCH  19  20
ENDBRANCH   3  19
TORSDOF 5
ENDMDL
MODEL 4
REMARK VINA RESULT:      -7.6      3.699      7.058
REMARK  Name = 
REMARK  5 active torsions:
REMARK  status: ('A' for Active; 'I' for Inactive)
REMARK    1  A    between atoms: C_2  and  O_3
REMARK    2  A    between atoms: C_2  and  C_4
REMARK    3  A    between atoms: C_7  and  C_8
REMARK    4  A    between atoms: N_10  and  C_11
REMARK    5  A    between atoms: C_11  and  C_12
REMARK                            x       y       z     vdW  Elec       q    Type
REMARK                         _______ _______ _______ _____ _____    ______ ____
ROOT
ATOM      1  C   UNL     1       3.340   5.392  18.326  0.00  0.00    +0.000 A 
ATOM      2  N   UNL     1       3.210   6.519  19.081  0.00  0.00    +0.000 NA
ATOM      3  N   UNL     1       2.269   6.291  19.999  0.00  0.00    +0.000 N 
ATOM      4  C   UNL     1       1.842   5.025  19.847  0.00  0.00    +0.000 A 
ATOM      5  C   UNL     1       0.940   4.244  20.519  0.00  0.00    +0.000 A 
ATOM      6  C   UNL     1       0.904   2.971  19.954  0.00  0.00    +0.000 A 
ATOM      7 SE   UNL     1       2.019   2.723  18.506  0.00  0.00    +0.000 Se
ATOM      8  C   UNL     1       2.466   4.446  18.822  0.00  0.00    +0.000 A 
ENDROOT
BRANCH   1  12
ATOM      9  C   UNL     1       6.039   4.978  14.992  0.00  0.00    +0.000 A 
ATOM     10  C   UNL     1       5.597   3.844  15.704  0.00  0.00    +0.000 A 
ATOM     11  C   UNL     1       4.730   3.974  16.797  0.00  0.00    +0.000 A 
ATOM     12  C   UNL     1       4.255   5.240  17.177  0.00  0.00    +0.000 A 
ATOM     13  C   UNL     1       4.680   6.365  16.458  0.00  0.00    +0.000 A 
ATOM     14  C   UNL     1       5.567   6.242  15.390  0.00  0.00    +0.000 A 
BRANCH   9  16
ATOM     15  O   UNL     1       6.761   3.980  12.992  0.00  0.00    +0.000 OA
ATOM     16  C   UNL     1       6.988   4.820  13.849  0.00  0.00    +0.000 C 
BRANCH  16  17
ATOM     17  O   UNL     1       8.114   5.562  13.727  0.00  0.00    +0.000 OA
ATOM     18  H   UNL     1       8.812   5.610  14.392  0.00  0.00    +0.000 HD
ENDBRANCH  16  17
ENDBRANCH   9  16
ENDBRANCH   1  12
BRANCH   3  19
ATOM     19  C   UNL     1       1.809   7.274  20.982  0.00  0.00    +0.000 C 
BRANCH  19  20
ATOM     20  C   UNL     1       1.177   8.464  20.300  0.00  0.00    +0.000 A 
ATOM     21  C   UNL     1       1.567   8.832  18.997  0.00  0.00    +0.000 A 
ATOM     22  C   UNL     1       0.966   9.924  18.360  0.00  0.00    +0.000 A 
ATOM     23  C   UNL     1      -0.033  10.653  19.010  0.00  0.00    +0.000 A 
ATOM     24  C   UNL     1      -0.432  10.293  20.300  0.00  0.00    +0.000 A 
ATOM     25  C   UNL     1       0.169   9.206  20.944  0.00  0.00    +0.000 A 
ENDBRANCH  19  20
ENDBRANCH   3  19
TORSDOF 5
ENDMDL
MODEL 5
REMARK VINA RESULT:      -7.6      3.716      7.107
REMARK  Name = 
REMARK  5 active torsions:
REMARK  status: ('A' for Active; 'I' for Inactive)
REMARK    1  A    between atoms: C_2  and  O_3
REMARK    2  A    between atoms: C_2  and  C_4
REMARK    3  A    between atoms: C_7  and  C_8
REMARK    4  A    between atoms: N_10  and  C_11
REMARK    5  A    between atoms: C_11  and  C_12
REMARK                            x       y       z     vdW  Elec       q    Type
REMARK                         _______ _______ _______ _____ _____    ______ ____
ROOT
ATOM      1  C   UNL     1       3.377   5.374  18.285  0.00  0.00    +0.000 A 
ATOM      2  N   UNL     1       3.231   6.495  19.045  0.00  0.00    +0.000 NA
ATOM      3  N   UNL     1       2.277   6.259  19.947  0.00  0.00    +0.000 N 
ATOM      4  C   UNL     1       1.857   4.992  19.780  0.00  0.00    +0.000 A 
ATOM      5  C   UNL     1       0.948   4.204  20.434  0.00  0.00    +0.000 A 
ATOM      6  C   UNL     1       0.925   2.934  19.861  0.00  0.00    +0.000 A 
ATOM      7 SE   UNL     1       2.063   2.699  18.429  0.00  0.00    +0.000 Se
ATOM      8  C   UNL     1       2.499   4.421  18.762  0.00  0.00    +0.000 A 
ENDROOT
BRANCH   1  12
ATOM      9  C   UNL     1       6.070   4.929  14.951  0.00  0.00    +0.000 A 
ATOM     10  C   UNL     1       5.622   6.206  15.347  0.00  0.00    +0.000 A 
ATOM     11  C   UNL     1       4.736   6.355  16.422  0.00  0.00    +0.000 A 
ATOM     12  C   UNL     1       4.310   5.231  17.149  0.00  0.00    +0.000 A 
ATOM     13  C   UNL     1       4.769   3.965  16.766  0.00  0.00    +0.000 A 
ATOM     14  C   UNL     1       5.625   3.810  15.677  0.00  0.00    +0.000 A 
BRANCH   9  16
ATOM     15  O   UNL     1       6.742   3.963  12.917  0.00  0.00    +0.000 OA
ATOM     16  C   UNL     1       6.991   4.789  13.782  0.00  0.00    +0.000 C 
BRANCH  16  17
ATOM     17  O   UNL     1       8.114   5.532  13.645  0.00  0.00    +0.000 OA
ATOM     18  H   UNL     1       8.171   6.477  13.831  0.00  0.00    +0.000 HD
ENDBRANCH  16  17
ENDBRANCH   9  16
ENDBRANCH   1  12
BRANCH   3  19
ATOM     19  C   UNL     1       1.799   7.234  20.928  0.00  0.00    +0.000 C 
BRANCH  19  20
ATOM     20  C   UNL     1       1.169   8.424  20.244  0.00  0.00    +0.000 A 
ATOM     21  C   UNL     1       0.191   9.193  20.904  0.00  0.00    +0.000 A 
ATOM     22  C   UNL     1      -0.379  10.306  20.274  0.00  0.00    +0.000 A 
ATOM     23  C   UNL     1       0.026  10.667  18.987  0.00  0.00    +0.000 A 
ATOM     24  C   UNL     1       1.000   9.915  18.325  0.00  0.00    +0.000 A 
ATOM     25  C   UNL     1       1.568   8.798  18.947  0.00  0.00    +0.000 A 
ENDBRANCH  19  20
ENDBRANCH   3  19
TORSDOF 5
ENDMDL
MODEL 6
REMARK VINA RESULT:      -7.6      3.679      7.079
REMARK  Name = 
REMARK  5 active torsions:
REMARK  status: ('A' for Active; 'I' for Inactive)
REMARK    1  A    between atoms: C_2  and  O_3
REMARK    2  A    between atoms: C_2  and  C_4
REMARK    3  A    between atoms: C_7  and  C_8
REMARK    4  A    between atoms: N_10  and  C_11
REMARK    5  A    between atoms: C_11  and  C_12
REMARK                            x       y       z     vdW  Elec       q    Type
REMARK                         _______ _______ _______ _____ _____    ______ ____
ROOT
ATOM      1  C   UNL     1       3.347   5.392  18.305  0.00  0.00    +0.000 A 
ATOM      2  N   UNL     1       3.208   6.523  19.050  0.00  0.00    +0.000 NA
ATOM      3  N   UNL     1       2.270   6.294  19.971  0.00  0.00    +0.000 N 
ATOM      4  C   UNL     1       1.854   5.024  19.830  0.00  0.00    +0.000 A 
ATOM      5  C   UNL     1       0.960   4.240  20.509  0.00  0.00    +0.000 A 
ATOM      6  C   UNL     1       0.935   2.962  19.956  0.00  0.00    +0.000 A 
ATOM      7 SE   UNL     1       2.050   2.712  18.508  0.00  0.00    +0.000 Se
ATOM      8  C   UNL     1       2.483   4.441  18.809  0.00  0.00    +0.000 A 
ENDROOT
BRANCH   1  12
ATOM      9  C   UNL     1       6.045   4.974  14.971  0.00  0.00    +0.000 A 
ATOM     10  C   UNL     1       5.603   3.840  15.684  0.00  0.00    +0.000 A 
ATOM     11  C   UNL     1       4.737   3.972  16.777  0.00  0.00    +0.000 A 
ATOM     12  C   UNL     1       4.262   5.238  17.155  0.00  0.00    +0.000 A 
ATOM     13  C   UNL     1       4.686   6.362  16.435  0.00  0.00    +0.000 A 
ATOM     14  C   UNL     1       5.574   6.238  15.367  0.00  0.00    +0.000 A 
BRANCH   9  16
ATOM     15  O   UNL     1       7.999   5.507  13.781  0.00  0.00    +0.000 OA
ATOM     16  C   UNL     1       6.994   4.815  13.827  0.00  0.00    +0.000 C 
BRANCH  16  17
ATOM     17  O   UNL     1       6.779   3.940  12.816  0.00  0.00    +0.000 OA
ATOM     18  H   UNL     1       6.099   3.256  12.821  0.00  0.00    +0.000 HD
ENDBRANCH  16  17
ENDBRANCH   9  16
ENDBRANCH   1  12
BRANCH   3  19
ATOM     19  C   UNL     1       1.803   7.282  20.947  0.00  0.00    +0.000 C 
BRANCH  19  20
ATOM     20  C   UNL     1       1.157   8.459  20.255  0.00  0.00    +0.000 A 
ATOM     21  C   UNL     1       0.142   9.196  20.898  0.00  0.00    +0.000 A 
ATOM     22  C   UNL     1      -0.443  10.298  20.262  0.00  0.00    +0.000 A 
ATOM     23  C   UNL     1      -0.017  10.680  18.987  0.00  0.00    +0.000 A 
ATOM     24  C   UNL     1       0.992   9.960  18.344  0.00  0.00    +0.000 A 
ATOM     25  C   UNL     1       1.576   8.854  18.972  0.00  0.00    +0.000 A 
ENDBRANCH  19  20
ENDBRANCH   3  19
TORSDOF 5
ENDMDL
MODEL 7
REMARK VINA RESULT:      -7.6      3.679      7.069
REMARK  Name = 
REMARK  5 active torsions:
REMARK  status: ('A' for Active; 'I' for Inactive)
REMARK    1  A    between atoms: C_2  and  O_3
REMARK    2  A    between atoms: C_2  and  C_4
REMARK    3  A    between atoms: C_7  and  C_8
REMARK    4  A    between atoms: N_10  and  C_11
REMARK    5  A    between atoms: C_11  and  C_12
REMARK                            x       y       z     vdW  Elec       q    Type
REMARK                         _______ _______ _______ _____ _____    ______ ____
ROOT
ATOM      1  C   UNL     1       3.369   5.408  18.311  0.00  0.00    +0.000 A 
ATOM      2  N   UNL     1       3.219   6.534  19.062  0.00  0.00    +0.000 NA
ATOM      3  N   UNL     1       2.263   6.301  19.964  0.00  0.00    +0.000 N 
ATOM      4  C   UNL     1       1.848   5.032  19.806  0.00  0.00    +0.000 A 
ATOM      5  C   UNL     1       0.940   4.245  20.463  0.00  0.00    +0.000 A 
ATOM      6  C   UNL     1       0.923   2.971  19.899  0.00  0.00    +0.000 A 
ATOM      7 SE   UNL     1       2.064   2.730  18.471  0.00  0.00    +0.000 Se
ATOM      8  C   UNL     1       2.494   4.455  18.792  0.00  0.00    +0.000 A 
ENDROOT
BRANCH   1  12
ATOM      9  C   UNL     1       6.072   4.948  14.986  0.00  0.00    +0.000 A 
ATOM     10  C   UNL     1       5.599   6.224  15.356  0.00  0.00    +0.000 A 
ATOM     11  C   UNL     1       4.710   6.377  16.428  0.00  0.00    +0.000 A 
ATOM     12  C   UNL     1       4.306   5.261  17.177  0.00  0.00    +0.000 A 
ATOM     13  C   UNL     1       4.790   3.996  16.821  0.00  0.00    +0.000 A 
ATOM     14  C   UNL     1       5.649   3.835  15.735  0.00  0.00    +0.000 A 
BRANCH   9  16
ATOM     15  O   UNL     1       7.990   5.507  13.751  0.00  0.00    +0.000 OA
ATOM     16  C   UNL     1       6.995   4.802  13.820  0.00  0.00    +0.000 C 
BRANCH  16  17
ATOM     17  O   UNL     1       6.766   3.927  12.812  0.00  0.00    +0.000 OA
ATOM     18  H   UNL     1       7.243   3.098  12.689  0.00  0.00    +0.000 HD
ENDBRANCH  16  17
ENDBRANCH   9  16
ENDBRANCH   1  12
BRANCH   3  19
ATOM     19  C   UNL     1       1.780   7.282  20.938  0.00  0.00    +0.000 C 
BRANCH  19  20
ATOM     20  C   UNL     1       1.170   8.476  20.243  0.00  0.00    +0.000 A 
ATOM     21  C   UNL     1       1.558   8.814  18.931  0.00  0.00    +0.000 A 
ATOM     22  C   UNL     1       0.978   9.912  18.282  0.00  0.00    +0.000 A 
ATOM     23  C   UNL     1       0.003  10.675  18.931  0.00  0.00    +0.000 A 
ATOM     24  C   UNL     1      -0.392  10.344  20.229  0.00  0.00    +0.000 A 
ATOM     25  C   UNL     1       0.187   9.253  20.884  0.00  0.00    +0.000 A 
ENDBRANCH  19  20
ENDBRANCH   3  19
TORSDOF 5
ENDMDL
MODEL 8
REMARK VINA RESULT:      -7.5      1.226      1.652
REMARK  Name = 
REMARK  5 active torsions:
REMARK  status: ('A' for Active; 'I' for Inactive)
REMARK    1  A    between atoms: C_2  and  O_3
REMARK    2  A    between atoms: C_2  and  C_4
REMARK    3  A    between atoms: C_7  and  C_8
REMARK    4  A    between atoms: N_10  and  C_11
REMARK    5  A    between atoms: C_11  and  C_12
REMARK                            x       y       z     vdW  Elec       q    Type
REMARK                         _______ _______ _______ _____ _____    ______ ____
ROOT
ATOM      1  C   UNL     1       3.386   6.040  18.172  0.00  0.00    +0.000 A 
ATOM      2  N   UNL     1       4.679   6.052  17.743  0.00  0.00    +0.000 NA
ATOM      3  N   UNL     1       5.055   4.788  17.540  0.00  0.00    +0.000 N 
ATOM      4  C   UNL     1       3.999   3.997  17.799  0.00  0.00    +0.000 A 
ATOM      5  C   UNL     1       3.788   2.646  17.721  0.00  0.00    +0.000 A 
ATOM      6  C   UNL     1       2.475   2.351  18.080  0.00  0.00    +0.000 A 
ATOM      7 SE   UNL     1       1.449   3.805  18.565  0.00  0.00    +0.000 Se
ATOM      8  C   UNL     1       2.960   4.727  18.203  0.00  0.00    +0.000 A 
ENDROOT
BRANCH   1  12
ATOM      9  C   UNL     1       1.127   9.537  19.288  0.00  0.00    +0.000 A 
ATOM     10  C   UNL     1       1.610   9.383  17.971  0.00  0.00    +0.000 A 
ATOM     11  C   UNL     1       2.355   8.254  17.607  0.00  0.00    +0.000 A 
ATOM     12  C   UNL     1       2.601   7.236  18.542  0.00  0.00    +0.000 A 
ATOM     13  C   UNL     1       2.107   7.381  19.845  0.00  0.00    +0.000 A 
ATOM     14  C   UNL     1       1.392   8.517  20.220  0.00  0.00    +0.000 A 
BRANCH   9  16
ATOM     15  O   UNL     1      -0.489  10.694  20.538  0.00  0.00    +0.000 OA
ATOM     16  C   UNL     1       0.360  10.763  19.664  0.00  0.00    +0.000 C 
BRANCH  16  17
ATOM     17  O   UNL     1       0.553  11.958  19.059  0.00  0.00    +0.000 OA
ATOM     18  H   UNL     1       0.139  12.224  18.229  0.00  0.00    +0.000 HD
ENDBRANCH  16  17
ENDBRANCH   9  16
ENDBRANCH   1  12
BRANCH   3  19
ATOM     19  C   UNL     1       6.393   4.377  17.110  0.00  0.00    +0.000 C 
BRANCH  19  20
ATOM     20  C   UNL     1       6.509   4.408  15.604  0.00  0.00    +0.000 A 
ATOM     21  C   UNL     1       7.499   5.192  14.980  0.00  0.00    +0.000 A 
ATOM     22  C   UNL     1       7.616   5.205  13.585  0.00  0.00    +0.000 A 
ATOM     23  C   UNL     1       6.754   4.433  12.801  0.00  0.00    +0.000 A 
ATOM     24  C   UNL     1       5.772   3.648  13.410  0.00  0.00    +0.000 A 
ATOM     25  C   UNL     1       5.647   3.635  14.804  0.00  0.00    +0.000 A 
ENDBRANCH  19  20
ENDBRANCH   3  19
TORSDOF 5
ENDMDL
MODEL 9
REMARK VINA RESULT:      -7.5      1.328      1.484
REMARK  Name = 
REMARK  5 active torsions:
REMARK  status: ('A' for Active; 'I' for Inactive)
REMARK    1  A    between atoms: C_2  and  O_3
REMARK    2  A    between atoms: C_2  and  C_4
REMARK    3  A    between atoms: C_7  and  C_8
REMARK    4  A    between atoms: N_10  and  C_11
REMARK    5  A    between atoms: C_11  and  C_12
REMARK                            x       y       z     vdW  Elec       q    Type
REMARK                         _______ _______ _______ _____ _____    ______ ____
ROOT
ATOM      1  C   UNL     1       3.460   6.063  18.088  0.00  0.00    +0.000 A 
ATOM      2  N   UNL     1       4.752   6.063  17.657  0.00  0.00    +0.000 NA
ATOM      3  N   UNL     1       5.111   4.797  17.439  0.00  0.00    +0.000 N 
ATOM      4  C   UNL     1       4.046   4.016  17.692  0.00  0.00    +0.000 A 
ATOM      5  C   UNL     1       3.817   2.669  17.599  0.00  0.00    +0.000 A 
ATOM      6  C   UNL     1       2.501   2.388  17.958  0.00  0.00    +0.000 A 
ATOM      7 SE   UNL     1       1.495   3.849  18.460  0.00  0.00    +0.000 Se
ATOM      8  C   UNL     1       3.018   4.756  18.105  0.00  0.00    +0.000 A 
ENDROOT
BRANCH   1  12
ATOM      9  C   UNL     1       1.193   9.563  19.176  0.00  0.00    +0.000 A 
ATOM     10  C   UNL     1       1.421   8.534  20.114  0.00  0.00    +0.000 A 
ATOM     11  C   UNL     1       2.146   7.388  19.761  0.00  0.00    +0.000 A 
ATOM     12  C   UNL     1       2.692   7.265  18.473  0.00  0.00    +0.000 A 
ATOM     13  C   UNL     1       2.482   8.295  17.548  0.00  0.00    +0.000 A 
ATOM     14  C   UNL     1       1.733   9.422  17.885  0.00  0.00    +0.000 A 
BRANCH   9  16
ATOM     15  O   UNL     1       0.937  11.852  19.634  0.00  0.00    +0.000 OA
ATOM     16  C   UNL     1       0.390  10.762  19.563  0.00  0.00    +0.000 C 
BRANCH  16  17
ATOM     17  O   UNL     1      -0.928  10.693  19.863  0.00  0.00    +0.000 OA
ATOM     18  H   UNL     1      -1.301  10.877  20.734  0.00  0.00    +0.000 HD
ENDBRANCH  16  17
ENDBRANCH   9  16
ENDBRANCH   1  12
BRANCH   3  19
ATOM     19  C   UNL     1       6.443   4.373  17.001  0.00  0.00    +0.000 C 
BRANCH  19  20
ATOM     20  C   UNL     1       6.553   4.411  15.495  0.00  0.00    +0.000 A 
ATOM     21  C   UNL     1       7.520   5.223  14.870  0.00  0.00    +0.000 A 
ATOM     22  C   UNL     1       7.633   5.243  13.474  0.00  0.00    +0.000 A 
ATOM     23  C   UNL     1       6.790   4.450  12.692  0.00  0.00    +0.000 A 
ATOM     24  C   UNL     1       5.832   3.637  13.301  0.00  0.00    +0.000 A 
ATOM     25  C   UNL     1       5.711   3.617  14.695  0.00  0.00    +0.000 A 
ENDBRANCH  19  20
ENDBRANCH   3  19
TORSDOF 5
ENDMDL
