MODEL 1
REMARK VINA RESULT:      -8.0      0.000      0.000
REMARK  Name = 
REMARK  4 active torsions:
REMARK  status: ('A' for Active; 'I' for Inactive)
REMARK    1  A    between atoms: C_2  and  C_3
REMARK    2  A    between atoms: C_2  and  O_15
REMARK    3  A    between atoms: C_3  and  N_4
REMARK    4  A    between atoms: O_15  and  C_16
REMARK                            x       y       z     vdW  Elec       q    Type
REMARK                         _______ _______ _______ _____ _____    ______ ____
ROOT
ATOM      1  C   UNL     1       6.855   6.383  17.648  0.00  0.00    +0.000 C 
ENDROOT
BRANCH   1   2
ATOM      2  N   UNL     1       5.595   5.838  18.103  0.00  0.00    +0.000 N 
ATOM      3  C   UNL     1       4.399   6.081  17.488  0.00  0.00    +0.000 C 
ATOM      4  O   UNL     1       4.171   6.779  16.519  0.00  0.00    +0.000 OA
ATOM      5  C   UNL     1       3.389   5.327  18.227  0.00  0.00    +0.000 A 
ATOM      6  C   UNL     1       2.033   5.193  18.008  0.00  0.00    +0.000 A 
ATOM      7  C   UNL     1       1.326   4.361  18.882  0.00  0.00    +0.000 A 
ATOM      8  C   UNL     1       1.980   3.702  19.944  0.00  0.00    +0.000 A 
ATOM      9  C   UNL     1       3.355   3.861  20.150  0.00  0.00    +0.000 A 
ATOM     10  C   UNL     1       4.033   4.679  19.268  0.00  0.00    +0.000 A 
ATOM     11  C   UNL     1       5.453   5.021  19.190  0.00  0.00    +0.000 C 
ATOM     12  O   UNL     1       6.297   4.627  19.969  0.00  0.00    +0.000 OA
ENDBRANCH   1   2
BRANCH   1  14
ATOM     13  O   UNL     1       8.034   4.355  17.038  0.00  0.00    +0.000 OA
ATOM     14  C   UNL     1       7.524   5.411  16.693  0.00  0.00    +0.000 C 
BRANCH  14  15
ATOM     15  O   UNL     1       7.414   5.887  15.380  0.00  0.00    +0.000 OA
BRANCH  15  16
ATOM     16  C   UNL     1       6.960   5.066  14.323  0.00  0.00    +0.000 A 
ATOM     17  C   UNL     1       7.653   4.892  13.124  0.00  0.00    +0.000 A 
ATOM     18  C   UNL     1       7.124   4.062  12.135  0.00  0.00    +0.000 A 
ATOM     19  C   UNL     1       5.926   3.394  12.366  0.00  0.00    +0.000 A 
ATOM     20  F   UNL     1       5.420   2.599  11.414  0.00  0.00    +0.000 F 
ATOM     21  C   UNL     1       5.249   3.535  13.573  0.00  0.00    +0.000 A 
ATOM     22  C   UNL     1       5.769   4.373  14.560  0.00  0.00    +0.000 A 
ENDBRANCH  15  16
ENDBRANCH  14  15
ENDBRANCH   1  14
TORSDOF 4
ENDMDL
MODEL 2
REMARK VINA RESULT:      -7.9      0.754      2.232
REMARK  Name = 
REMARK  4 active torsions:
REMARK  status: ('A' for Active; 'I' for Inactive)
REMARK    1  A    between atoms: C_2  and  C_3
REMARK    2  A    between atoms: C_2  and  O_15
REMARK    3  A    between atoms: C_3  and  N_4
REMARK    4  A    between atoms: O_15  and  C_16
REMARK                            x       y       z     vdW  Elec       q    Type
REMARK                         _______ _______ _______ _____ _____    ______ ____
ROOT
ATOM      1  C   UNL     1       6.536   5.911  18.126  0.00  0.00    +0.000 C 
ENDROOT
BRANCH   1   2
ATOM      2  N   UNL     1       5.264   5.233  18.242  0.00  0.00    +0.000 N 
ATOM      3  C   UNL     1       5.070   4.110  18.996  0.00  0.00    +0.000 C 
ATOM      4  O   UNL     1       5.881   3.486  19.652  0.00  0.00    +0.000 OA
ATOM      5  C   UNL     1       3.655   3.766  18.875  0.00  0.00    +0.000 A 
ATOM      6  C   UNL     1       2.928   2.749  19.460  0.00  0.00    +0.000 A 
ATOM      7  C   UNL     1       1.560   2.698  19.173  0.00  0.00    +0.000 A 
ATOM      8  C   UNL     1       0.964   3.645  18.313  0.00  0.00    +0.000 A 
ATOM      9  C   UNL     1       1.725   4.662  17.727  0.00  0.00    +0.000 A 
ATOM     10  C   UNL     1       3.071   4.697  18.033  0.00  0.00    +0.000 A 
ATOM     11  C   UNL     1       4.115   5.634  17.618  0.00  0.00    +0.000 C 
ATOM     12  O   UNL     1       3.938   6.569  16.863  0.00  0.00    +0.000 OA
ENDBRANCH   1   2
BRANCH   1  14
ATOM     13  O   UNL     1       8.134   4.250  17.377  0.00  0.00    +0.000 OA
ATOM     14  C   UNL     1       7.412   5.200  17.112  0.00  0.00    +0.000 C 
BRANCH  14  15
ATOM     15  O   UNL     1       7.218   5.761  15.842  0.00  0.00    +0.000 OA
BRANCH  15  16
ATOM     16  C   UNL     1       6.781   4.990  14.742  0.00  0.00    +0.000 A 
ATOM     17  C   UNL     1       5.594   4.256  14.734  0.00  0.00    +0.000 A 
ATOM     18  C   UNL     1       5.245   3.521  13.600  0.00  0.00    +0.000 A 
ATOM     19  C   UNL     1       6.068   3.553  12.479  0.00  0.00    +0.000 A 
ATOM     20  F   UNL     1       5.731   2.846  11.393  0.00  0.00    +0.000 F 
ATOM     21  C   UNL     1       7.233   4.313  12.468  0.00  0.00    +0.000 A 
ATOM     22  C   UNL     1       7.592   5.040  13.604  0.00  0.00    +0.000 A 
ENDBRANCH  15  16
ENDBRANCH  14  15
ENDBRANCH   1  14
TORSDOF 4
ENDMDL
MODEL 3
REMARK VINA RESULT:      -7.9      0.784      1.986
REMARK  Name = 
REMARK  4 active torsions:
REMARK  status: ('A' for Active; 'I' for Inactive)
REMARK    1  A    between atoms: C_2  and  C_3
REMARK    2  A    between atoms: C_2  and  O_15
REMARK    3  A    between atoms: C_3  and  N_4
REMARK    4  A    between atoms: O_15  and  C_16
REMARK                            x       y       z     vdW  Elec       q    Type
REMARK                         _______ _______ _______ _____ _____    ______ ____
ROOT
ATOM      1  C   UNL     1       6.604   5.784  18.228  0.00  0.00    +0.000 C 
ENDROOT
BRANCH   1   2
ATOM      2  N   UNL     1       5.305   5.151  18.308  0.00  0.00    +0.000 N 
ATOM      3  C   UNL     1       5.060   4.016  19.029  0.00  0.00    +0.000 C 
ATOM      4  O   UNL     1       5.838   3.344  19.677  0.00  0.00    +0.000 OA
ATOM      5  C   UNL     1       3.635   3.729  18.879  0.00  0.00    +0.000 A 
ATOM      6  C   UNL     1       2.862   2.724  19.426  0.00  0.00    +0.000 A 
ATOM      7  C   UNL     1       1.497   2.731  19.120  0.00  0.00    +0.000 A 
ATOM      8  C   UNL     1       0.949   3.723  18.278  0.00  0.00    +0.000 A 
ATOM      9  C   UNL     1       1.756   4.727  17.731  0.00  0.00    +0.000 A 
ATOM     10  C   UNL     1       3.097   4.703  18.056  0.00  0.00    +0.000 A 
ATOM     11  C   UNL     1       4.182   5.612  17.681  0.00  0.00    +0.000 C 
ATOM     12  O   UNL     1       4.049   6.572  16.950  0.00  0.00    +0.000 OA
ENDBRANCH   1   2
BRANCH   1  14
ATOM     13  O   UNL     1       8.170   4.190  17.291  0.00  0.00    +0.000 OA
ATOM     14  C   UNL     1       7.425   5.144  17.124  0.00  0.00    +0.000 C 
BRANCH  14  15
ATOM     15  O   UNL     1       7.152   5.776  15.904  0.00  0.00    +0.000 OA
BRANCH  15  16
ATOM     16  C   UNL     1       6.836   5.045  14.737  0.00  0.00    +0.000 A 
ATOM     17  C   UNL     1       7.622   5.048  13.584  0.00  0.00    +0.000 A 
ATOM     18  C   UNL     1       7.228   4.295  12.477  0.00  0.00    +0.000 A 
ATOM     19  C   UNL     1       6.071   3.526  12.545  0.00  0.00    +0.000 A 
ATOM     20  F   UNL     1       5.695   2.806  11.481  0.00  0.00    +0.000 F 
ATOM     21  C   UNL     1       5.302   3.490  13.704  0.00  0.00    +0.000 A 
ATOM     22  C   UNL     1       5.687   4.251  14.809  0.00  0.00    +0.000 A 
ENDBRANCH  15  16
ENDBRANCH  14  15
ENDBRANCH   1  14
TORSDOF 4
ENDMDL
MODEL 4
REMARK VINA RESULT:      -7.8      3.539      6.662
REMARK  Name = 
REMARK  4 active torsions:
REMARK  status: ('A' for Active; 'I' for Inactive)
REMARK    1  A    between atoms: C_2  and  C_3
REMARK    2  A    between atoms: C_2  and  O_15
REMARK    3  A    between atoms: C_3  and  N_4
REMARK    4  A    between atoms: O_15  and  C_16
REMARK                            x       y       z     vdW  Elec       q    Type
REMARK                         _______ _______ _______ _____ _____    ______ ____
ROOT
ATOM      1  C   UNL     1       3.160   3.384  19.803  0.00  0.00    +0.000 C 
ENDROOT
BRANCH   1   2
ATOM      2  N   UNL     1       3.994   3.767  18.685  0.00  0.00    +0.000 N 
ATOM      3  C   UNL     1       5.261   4.261  18.821  0.00  0.00    +0.000 C 
ATOM      4  O   UNL     1       5.883   4.486  19.840  0.00  0.00    +0.000 OA
ATOM      5  C   UNL     1       5.767   4.486  17.468  0.00  0.00    +0.000 A 
ATOM      6  C   UNL     1       6.998   4.938  17.037  0.00  0.00    +0.000 A 
ATOM      7  C   UNL     1       7.198   5.018  15.655  0.00  0.00    +0.000 A 
ATOM      8  C   UNL     1       6.175   4.658  14.752  0.00  0.00    +0.000 A 
ATOM      9  C   UNL     1       4.933   4.210  15.216  0.00  0.00    +0.000 A 
ATOM     10  C   UNL     1       4.763   4.130  16.583  0.00  0.00    +0.000 A 
ATOM     11  C   UNL     1       3.617   3.679  17.374  0.00  0.00    +0.000 C 
ATOM     12  O   UNL     1       2.562   3.308  16.901  0.00  0.00    +0.000 OA
ENDBRANCH   1   2
BRANCH   1  14
ATOM     13  O   UNL     1       0.922   4.264  20.107  0.00  0.00    +0.000 OA
ATOM     14  C   UNL     1       2.127   4.463  20.073  0.00  0.00    +0.000 C 
BRANCH  14  15
ATOM     15  O   UNL     1       2.771   5.682  20.325  0.00  0.00    +0.000 OA
BRANCH  15  16
ATOM     16  C   UNL     1       2.294   6.904  19.799  0.00  0.00    +0.000 A 
ATOM     17  C   UNL     1       1.593   7.849  20.548  0.00  0.00    +0.000 A 
ATOM     18  C   UNL     1       1.158   9.028  19.940  0.00  0.00    +0.000 A 
ATOM     19  C   UNL     1       1.455   9.261  18.601  0.00  0.00    +0.000 A 
ATOM     20  F   UNL     1       1.036  10.393  18.021  0.00  0.00    +0.000 F 
ATOM     21  C   UNL     1       2.186   8.339  17.859  0.00  0.00    +0.000 A 
ATOM     22  C   UNL     1       2.612   7.154  18.460  0.00  0.00    +0.000 A 
ENDBRANCH  15  16
ENDBRANCH  14  15
ENDBRANCH   1  14
TORSDOF 4
ENDMDL
MODEL 5
REMARK VINA RESULT:      -7.8      3.508      6.548
REMARK  Name = 
REMARK  4 active torsions:
REMARK  status: ('A' for Active; 'I' for Inactive)
REMARK    1  A    between atoms: C_2  and  C_3
REMARK    2  A    between atoms: C_2  and  O_15
REMARK    3  A    between atoms: C_3  and  N_4
REMARK    4  A    between atoms: O_15  and  C_16
REMARK                            x       y       z     vdW  Elec       q    Type
REMARK                         _______ _______ _______ _____ _____    ______ ____
ROOT
ATOM      1  C   UNL     1       3.358   3.482  19.913  0.00  0.00    +0.000 C 
ENDROOT
BRANCH   1   2
ATOM      2  N   UNL     1       4.157   3.831  18.758  0.00  0.00    +0.000 N 
ATOM      3  C   UNL     1       5.397   4.400  18.840  0.00  0.00    +0.000 C 
ATOM      4  O   UNL     1       6.018   4.729  19.831  0.00  0.00    +0.000 OA
ATOM      5  C   UNL     1       5.873   4.557  17.467  0.00  0.00    +0.000 A 
ATOM      6  C   UNL     1       7.072   5.044  16.987  0.00  0.00    +0.000 A 
ATOM      7  C   UNL     1       7.252   5.038  15.600  0.00  0.00    +0.000 A 
ATOM      8  C   UNL     1       6.239   4.562  14.740  0.00  0.00    +0.000 A 
ATOM      9  C   UNL     1       5.030   4.080  15.252  0.00  0.00    +0.000 A 
ATOM     10  C   UNL     1       4.880   4.087  16.625  0.00  0.00    +0.000 A 
ATOM     11  C   UNL     1       3.771   3.631  17.462  0.00  0.00    +0.000 C 
ATOM     12  O   UNL     1       2.731   3.172  17.033  0.00  0.00    +0.000 OA
ENDBRANCH   1   2
BRANCH   1  14
ATOM     13  O   UNL     1       1.024   4.132  19.870  0.00  0.00    +0.000 OA
ATOM     14  C   UNL     1       2.193   4.444  20.046  0.00  0.00    +0.000 C 
BRANCH  14  15
ATOM     15  O   UNL     1       2.661   5.702  20.448  0.00  0.00    +0.000 OA
BRANCH  15  16
ATOM     16  C   UNL     1       2.328   6.883  19.747  0.00  0.00    +0.000 A 
ATOM     17  C   UNL     1       2.617   7.090  18.397  0.00  0.00    +0.000 A 
ATOM     18  C   UNL     1       2.251   8.292  17.789  0.00  0.00    +0.000 A 
ATOM     19  C   UNL     1       1.577   9.259  18.527  0.00  0.00    +0.000 A 
ATOM     20  F   UNL     1       1.228  10.411  17.941  0.00  0.00    +0.000 F 
ATOM     21  C   UNL     1       1.253   9.044  19.863  0.00  0.00    +0.000 A 
ATOM     22  C   UNL     1       1.627   7.848  20.478  0.00  0.00    +0.000 A 
ENDBRANCH  15  16
ENDBRANCH  14  15
ENDBRANCH   1  14
TORSDOF 4
ENDMDL
MODEL 6
REMARK VINA RESULT:      -7.8      3.506      6.424
REMARK  Name = 
REMARK  4 active torsions:
REMARK  status: ('A' for Active; 'I' for Inactive)
REMARK    1  A    between atoms: C_2  and  C_3
REMARK    2  A    between atoms: C_2  and  O_15
REMARK    3  A    between atoms: C_3  and  N_4
REMARK    4  A    between atoms: O_15  and  C_16
REMARK                            x       y       z     vdW  Elec       q    Type
REMARK                         _______ _______ _______ _____ _____    ______ ____
ROOT
ATOM      1  C   UNL     1       3.034   3.176  19.677  0.00  0.00    +0.000 C 
ENDROOT
BRANCH   1   2
ATOM      2  N   UNL     1       3.896   3.578  18.587  0.00  0.00    +0.000 N 
ATOM      3  C   UNL     1       3.511   3.572  17.276  0.00  0.00    +0.000 C 
ATOM      4  O   UNL     1       2.450   3.223  16.797  0.00  0.00    +0.000 OA
ATOM      5  C   UNL     1       4.646   4.077  16.507  0.00  0.00    +0.000 A 
ATOM      6  C   UNL     1       4.779   4.307  15.152  0.00  0.00    +0.000 A 
ATOM      7  C   UNL     1       5.997   4.835  14.712  0.00  0.00    +0.000 A 
ATOM      8  C   UNL     1       7.040   5.107  15.622  0.00  0.00    +0.000 A 
ATOM      9  C   UNL     1       6.883   4.858  16.990  0.00  0.00    +0.000 A 
ATOM     10  C   UNL     1       5.669   4.346  17.401  0.00  0.00    +0.000 A 
ATOM     11  C   UNL     1       5.183   4.011  18.740  0.00  0.00    +0.000 C 
ATOM     12  O   UNL     1       5.842   4.118  19.755  0.00  0.00    +0.000 OA
ENDBRANCH   1   2
BRANCH   1  14
ATOM     13  O   UNL     1       0.835   4.130  20.033  0.00  0.00    +0.000 OA
ATOM     14  C   UNL     1       2.047   4.284  19.993  0.00  0.00    +0.000 C 
BRANCH  14  15
ATOM     15  O   UNL     1       2.740   5.468  20.278  0.00  0.00    +0.000 OA
BRANCH  15  16
ATOM     16  C   UNL     1       2.332   6.718  19.759  0.00  0.00    +0.000 A 
ATOM     17  C   UNL     1       1.639   7.676  20.501  0.00  0.00    +0.000 A 
ATOM     18  C   UNL     1       1.274   8.882  19.901  0.00  0.00    +0.000 A 
ATOM     19  C   UNL     1       1.632   9.129  18.580  0.00  0.00    +0.000 A 
ATOM     20  F   UNL     1       1.281  10.288  18.007  0.00  0.00    +0.000 F 
ATOM     21  C   UNL     1       2.355   8.194  17.847  0.00  0.00    +0.000 A 
ATOM     22  C   UNL     1       2.711   6.981  18.439  0.00  0.00    +0.000 A 
ENDBRANCH  15  16
ENDBRANCH  14  15
ENDBRANCH   1  14
TORSDOF 4
ENDMDL
MODEL 7
REMARK VINA RESULT:      -7.8      3.531      6.361
REMARK  Name = 
REMARK  4 active torsions:
REMARK  status: ('A' for Active; 'I' for Inactive)
REMARK    1  A    between atoms: C_2  and  C_3
REMARK    2  A    between atoms: C_2  and  O_15
REMARK    3  A    between atoms: C_3  and  N_4
REMARK    4  A    between atoms: O_15  and  C_16
REMARK                            x       y       z     vdW  Elec       q    Type
REMARK                         _______ _______ _______ _____ _____    ______ ____
ROOT
ATOM      1  C   UNL     1       2.966   3.186  19.644  0.00  0.00    +0.000 C 
ENDROOT
BRANCH   1   2
ATOM      2  N   UNL     1       3.851   3.586  18.573  0.00  0.00    +0.000 N 
ATOM      3  C   UNL     1       3.484   3.608  17.256  0.00  0.00    +0.000 C 
ATOM      4  O   UNL     1       2.421   3.290  16.758  0.00  0.00    +0.000 OA
ATOM      5  C   UNL     1       4.640   4.099  16.510  0.00  0.00    +0.000 A 
ATOM      6  C   UNL     1       4.795   4.346  15.161  0.00  0.00    +0.000 A 
ATOM      7  C   UNL     1       6.030   4.853  14.744  0.00  0.00    +0.000 A 
ATOM      8  C   UNL     1       7.067   5.088  15.672  0.00  0.00    +0.000 A 
ATOM      9  C   UNL     1       6.887   4.822  17.033  0.00  0.00    +0.000 A 
ATOM     10  C   UNL     1       5.656   4.331  17.421  0.00  0.00    +0.000 A 
ATOM     11  C   UNL     1       5.146   3.987  18.749  0.00  0.00    +0.000 C 
ATOM     12  O   UNL     1       5.793   4.064  19.773  0.00  0.00    +0.000 OA
ENDBRANCH   1   2
BRANCH   1  14
ATOM     13  O   UNL     1       0.813   4.201  20.105  0.00  0.00    +0.000 OA
ATOM     14  C   UNL     1       2.024   4.325  19.990  0.00  0.00    +0.000 C 
BRANCH  14  15
ATOM     15  O   UNL     1       2.759   5.499  20.205  0.00  0.00    +0.000 OA
BRANCH  15  16
ATOM     16  C   UNL     1       2.396   6.728  19.611  0.00  0.00    +0.000 A 
ATOM     17  C   UNL     1       2.636   7.043  18.273  0.00  0.00    +0.000 A 
ATOM     18  C   UNL     1       2.243   8.286  17.775  0.00  0.00    +0.000 A 
ATOM     19  C   UNL     1       1.589   9.186  18.610  0.00  0.00    +0.000 A 
ATOM     20  F   UNL     1       1.214  10.378  18.129  0.00  0.00    +0.000 F 
ATOM     21  C   UNL     1       1.314   8.864  19.935  0.00  0.00    +0.000 A 
ATOM     22  C   UNL     1       1.716   7.626  20.440  0.00  0.00    +0.000 A 
ENDBRANCH  15  16
ENDBRANCH  14  15
ENDBRANCH   1  14
TORSDOF 4
ENDMDL
MODEL 8
REMARK VINA RESULT:      -7.7      2.269      5.997
REMARK  Name = 
REMARK  4 active torsions:
REMARK  status: ('A' for Active; 'I' for Inactive)
REMARK    1  A    between atoms: C_2  and  C_3
REMARK    2  A    between atoms: C_2  and  O_15
REMARK    3  A    between atoms: C_3  and  N_4
REMARK    4  A    between atoms: O_15  and  C_16
REMARK                            x       y       z     vdW  Elec       q    Type
REMARK                         _______ _______ _______ _____ _____    ______ ____
ROOT
ATOM      1  C   UNL     1       5.343   5.902  17.884  0.00  0.00    +0.000 C 
ENDROOT
BRANCH   1   2
ATOM      2  N   UNL     1       5.717   5.412  16.575  0.00  0.00    +0.000 N 
ATOM      3  C   UNL     1       4.983   4.499  15.871  0.00  0.00    +0.000 C 
ATOM      4  O   UNL     1       3.956   3.936  16.197  0.00  0.00    +0.000 OA
ATOM      5  C   UNL     1       5.675   4.301  14.599  0.00  0.00    +0.000 A 
ATOM      6  C   UNL     1       5.343   3.516  13.513  0.00  0.00    +0.000 A 
ATOM      7  C   UNL     1       6.201   3.562  12.409  0.00  0.00    +0.000 A 
ATOM      8  C   UNL     1       7.356   4.371  12.422  0.00  0.00    +0.000 A 
ATOM      9  C   UNL     1       7.674   5.152  13.539  0.00  0.00    +0.000 A 
ATOM     10  C   UNL     1       6.807   5.097  14.612  0.00  0.00    +0.000 A 
ATOM     11  C   UNL     1       6.836   5.803  15.894  0.00  0.00    +0.000 C 
ATOM     12  O   UNL     1       7.710   6.575  16.232  0.00  0.00    +0.000 OA
ENDBRANCH   1   2
BRANCH   1  14
ATOM     13  O   UNL     1       7.057   4.598  18.997  0.00  0.00    +0.000 OA
ATOM     14  C   UNL     1       5.897   4.985  18.958  0.00  0.00    +0.000 C 
BRANCH  14  15
ATOM     15  O   UNL     1       4.901   4.708  19.904  0.00  0.00    +0.000 OA
BRANCH  15  16
ATOM     16  C   UNL     1       3.741   3.971  19.575  0.00  0.00    +0.000 A 
ATOM     17  C   UNL     1       3.754   2.615  19.243  0.00  0.00    +0.000 A 
ATOM     18  C   UNL     1       2.556   1.971  18.929  0.00  0.00    +0.000 A 
ATOM     19  C   UNL     1       1.360   2.679  18.980  0.00  0.00    +0.000 A 
ATOM     20  F   UNL     1       0.213   2.057  18.679  0.00  0.00    +0.000 F 
ATOM     21  C   UNL     1       1.337   4.020  19.347  0.00  0.00    +0.000 A 
ATOM     22  C   UNL     1       2.534   4.671  19.650  0.00  0.00    +0.000 A 
ENDBRANCH  15  16
ENDBRANCH  14  15
ENDBRANCH   1  14
TORSDOF 4
ENDMDL
MODEL 9
REMARK VINA RESULT:      -7.7      1.048      1.084
REMARK  Name = 
REMARK  4 active torsions:
REMARK  status: ('A' for Active; 'I' for Inactive)
REMARK    1  A    between atoms: C_2  and  C_3
REMARK    2  A    between atoms: C_2  and  O_15
REMARK    3  A    between atoms: C_3  and  N_4
REMARK    4  A    between atoms: O_15  and  C_16
REMARK                            x       y       z     vdW  Elec       q    Type
REMARK                         _______ _______ _______ _____ _____    ______ ____
ROOT
ATOM      1  C   UNL     1       6.509   5.587  18.635  0.00  0.00    +0.000 C 
ENDROOT
BRANCH   1   2
ATOM      2  N   UNL     1       5.192   4.990  18.598  0.00  0.00    +0.000 N 
ATOM      3  C   UNL     1       4.113   5.575  17.996  0.00  0.00    +0.000 C 
ATOM      4  O   UNL     1       4.047   6.651  17.436  0.00  0.00    +0.000 OA
ATOM      5  C   UNL     1       2.997   4.644  18.149  0.00  0.00    +0.000 A 
ATOM      6  C   UNL     1       1.695   4.726  17.696  0.00  0.00    +0.000 A 
ATOM      7  C   UNL     1       0.855   3.643  17.975  0.00  0.00    +0.000 A 
ATOM      8  C   UNL     1       1.327   2.527  18.698  0.00  0.00    +0.000 A 
ATOM      9  C   UNL     1       2.649   2.472  19.152  0.00  0.00    +0.000 A 
ATOM     10  C   UNL     1       3.462   3.549  18.856  0.00  0.00    +0.000 A 
ATOM     11  C   UNL     1       4.875   3.782  19.153  0.00  0.00    +0.000 C 
ATOM     12  O   UNL     1       5.580   3.015  19.777  0.00  0.00    +0.000 OA
ENDBRANCH   1   2
BRANCH   1  14
ATOM     13  O   UNL     1       8.145   4.145  17.576  0.00  0.00    +0.000 OA
ATOM     14  C   UNL     1       7.346   5.066  17.481  0.00  0.00    +0.000 C 
BRANCH  14  15
ATOM     15  O   UNL     1       7.019   5.760  16.308  0.00  0.00    +0.000 OA
BRANCH  15  16
ATOM     16  C   UNL     1       6.765   5.091  15.089  0.00  0.00    +0.000 A 
ATOM     17  C   UNL     1       7.593   5.182  13.969  0.00  0.00    +0.000 A 
ATOM     18  C   UNL     1       7.259   4.486  12.806  0.00  0.00    +0.000 A 
ATOM     19  C   UNL     1       6.121   3.686  12.786  0.00  0.00    +0.000 A 
ATOM     20  F   UNL     1       5.804   3.021  11.668  0.00  0.00    +0.000 F 
ATOM     21  C   UNL     1       5.313   3.563  13.911  0.00  0.00    +0.000 A 
ATOM     22  C   UNL     1       5.637   4.266  15.072  0.00  0.00    +0.000 A 
ENDBRANCH  15  16
ENDBRANCH  14  15
ENDBRANCH   1  14
TORSDOF 4
ENDMDL
