MODEL 1
REMARK VINA RESULT:      -8.3      0.000      0.000
REMARK  Name = 
REMARK  2 active torsions:
REMARK  status: ('A' for Active; 'I' for Inactive)
REMARK    1  A    between atoms: C_7  and  C_8
REMARK    2  A    between atoms: C_10  and  C_11
REMARK                            x       y       z     vdW  Elec       q    Type
REMARK                         _______ _______ _______ _____ _____    ______ ____
ROOT
ATOM      1  C   UNL     1       5.324   4.894  15.232  0.00  0.00    +0.000 A 
ATOM      2  N   UNL     1       4.721   4.222  16.189  0.00  0.00    +0.000 NA
ATOM      3  C   UNL     1       4.445   5.204  17.116  0.00  0.00    +0.000 A 
ATOM      4  N   UNL     1       4.850   6.429  16.754  0.00  0.00    +0.000 NA
ATOM      5  O   UNL     1       5.433   6.226  15.506  0.00  0.00    +0.000 OA
ENDROOT
BRANCH   3   6
ATOM      6  C   UNL     1       3.784   4.852  18.346  0.00  0.00    +0.000 A 
ATOM      7  C   UNL     1       2.837   5.785  18.987  0.00  0.00    +0.000 A 
ATOM      8  C   UNL     1       2.208   5.502  20.145  0.00  0.00    +0.000 A 
ATOM      9  C   UNL     1       2.457   4.261  20.785  0.00  0.00    +0.000 A 
ATOM     10  N   UNL     1       2.014   3.714  21.895  0.00  0.00    +0.000 NA
ATOM     11  N   UNL     1       2.609   2.477  22.021  0.00  0.00    +0.000 NA
ATOM     12  C   UNL     1       3.397   2.303  20.983  0.00  0.00    +0.000 A 
ATOM     13  N   UNL     1       3.343   3.396  20.166  0.00  0.00    +0.000 N 
ATOM     14  C   UNL     1       3.995   3.673  18.973  0.00  0.00    +0.000 A 
ENDBRANCH   3   6
BRANCH   1  21
ATOM     15  F   UNL     1       4.857   2.239  11.227  0.00  0.00    +0.000 F 
ATOM     16  C   UNL     1       5.600   3.071  11.968  0.00  0.00    +0.000 A 
ATOM     17  C   UNL     1       6.858   3.451  11.513  0.00  0.00    +0.000 A 
ATOM     18  C   UNL     1       7.627   4.318  12.284  0.00  0.00    +0.000 A 
ATOM     19  C   UNL     1       7.129   4.792  13.499  0.00  0.00    +0.000 A 
ATOM     20  F   UNL     1       7.907   5.623  14.207  0.00  0.00    +0.000 F 
ATOM     21  C   UNL     1       5.865   4.415  13.968  0.00  0.00    +0.000 A 
ATOM     22  C   UNL     1       5.100   3.540  13.180  0.00  0.00    +0.000 A 
ENDBRANCH   1  21
TORSDOF 2
ENDMDL
MODEL 2
REMARK VINA RESULT:      -8.2      4.966      6.624
REMARK  Name = 
REMARK  2 active torsions:
REMARK  status: ('A' for Active; 'I' for Inactive)
REMARK    1  A    between atoms: C_7  and  C_8
REMARK    2  A    between atoms: C_10  and  C_11
REMARK                            x       y       z     vdW  Elec       q    Type
REMARK                         _______ _______ _______ _____ _____    ______ ____
ROOT
ATOM      1  C   UNL     1       2.713   7.451  18.181  0.00  0.00    +0.000 A 
ATOM      2  N   UNL     1       2.169   7.641  19.364  0.00  0.00    +0.000 NA
ATOM      3  C   UNL     1       1.579   8.878  19.229  0.00  0.00    +0.000 A 
ATOM      4  N   UNL     1       1.740   9.433  18.020  0.00  0.00    +0.000 NA
ATOM      5  O   UNL     1       2.491   8.490  17.324  0.00  0.00    +0.000 OA
ENDROOT
BRANCH   3   6
ATOM      6  C   UNL     1       0.877   9.454  20.346  0.00  0.00    +0.000 A 
ATOM      7  C   UNL     1       0.321   8.596  21.411  0.00  0.00    +0.000 A 
ATOM      8  C   UNL     1      -0.355   9.093  22.467  0.00  0.00    +0.000 A 
ATOM      9  C   UNL     1      -0.549  10.493  22.570  0.00  0.00    +0.000 A 
ATOM     10  N   UNL     1      -1.155  11.258  23.452  0.00  0.00    +0.000 NA
ATOM     11  N   UNL     1      -1.028  12.565  23.034  0.00  0.00    +0.000 NA
ATOM     12  C   UNL     1      -0.347  12.562  21.909  0.00  0.00    +0.000 A 
ATOM     13  N   UNL     1      -0.016  11.282  21.566  0.00  0.00    +0.000 N 
ATOM     14  C   UNL     1       0.685  10.786  20.476  0.00  0.00    +0.000 A 
ENDBRANCH   3   6
BRANCH   1  21
ATOM     15  F   UNL     1       6.775   5.687  16.261  0.00  0.00    +0.000 F 
ATOM     16  C   UNL     1       5.538   5.465  16.724  0.00  0.00    +0.000 A 
ATOM     17  C   UNL     1       5.031   4.170  16.723  0.00  0.00    +0.000 A 
ATOM     18  C   UNL     1       3.746   3.943  17.207  0.00  0.00    +0.000 A 
ATOM     19  C   UNL     1       2.987   5.012  17.686  0.00  0.00    +0.000 A 
ATOM     20  F   UNL     1       1.754   4.744  18.140  0.00  0.00    +0.000 F 
ATOM     21  C   UNL     1       3.486   6.320  17.691  0.00  0.00    +0.000 A 
ATOM     22  C   UNL     1       4.784   6.534  17.198  0.00  0.00    +0.000 A 
ENDBRANCH   1  21
TORSDOF 2
ENDMDL
MODEL 3
REMARK VINA RESULT:      -8.0      5.041      6.541
REMARK  Name = 
REMARK  2 active torsions:
REMARK  status: ('A' for Active; 'I' for Inactive)
REMARK    1  A    between atoms: C_7  and  C_8
REMARK    2  A    between atoms: C_10  and  C_11
REMARK                            x       y       z     vdW  Elec       q    Type
REMARK                         _______ _______ _______ _____ _____    ______ ____
ROOT
ATOM      1  C   UNL     1       2.598   7.358  18.241  0.00  0.00    +0.000 A 
ATOM      2  N   UNL     1       2.023   7.594  19.401  0.00  0.00    +0.000 NA
ATOM      3  C   UNL     1       1.553   8.880  19.247  0.00  0.00    +0.000 A 
ATOM      4  N   UNL     1       1.817   9.420  18.049  0.00  0.00    +0.000 NA
ATOM      5  O   UNL     1       2.509   8.414  17.381  0.00  0.00    +0.000 OA
ENDROOT
BRANCH   3   6
ATOM      6  C   UNL     1       0.859   9.516  20.336  0.00  0.00    +0.000 A 
ATOM      7  C   UNL     1       0.300   8.715  21.443  0.00  0.00    +0.000 A 
ATOM      8  C   UNL     1      -0.370   9.269  22.474  0.00  0.00    +0.000 A 
ATOM      9  C   UNL     1      -0.553  10.674  22.510  0.00  0.00    +0.000 A 
ATOM     10  N   UNL     1      -1.151  11.486  23.354  0.00  0.00    +0.000 NA
ATOM     11  N   UNL     1      -1.016  12.770  22.872  0.00  0.00    +0.000 NA
ATOM     12  C   UNL     1      -0.338  12.706  21.747  0.00  0.00    +0.000 A 
ATOM     13  N   UNL     1      -0.017  11.409  21.467  0.00  0.00    +0.000 N 
ATOM     14  C   UNL     1       0.677  10.854  20.401  0.00  0.00    +0.000 A 
ENDBRANCH   3   6
BRANCH   1  21
ATOM     15  F   UNL     1       2.577   2.619  17.324  0.00  0.00    +0.000 F 
ATOM     16  C   UNL     1       3.244   3.780  17.329  0.00  0.00    +0.000 A 
ATOM     17  C   UNL     1       4.565   3.810  16.896  0.00  0.00    +0.000 A 
ATOM     18  C   UNL     1       5.255   5.020  16.901  0.00  0.00    +0.000 A 
ATOM     19  C   UNL     1       4.615   6.180  17.338  0.00  0.00    +0.000 A 
ATOM     20  F   UNL     1       5.321   7.321  17.326  0.00  0.00    +0.000 F 
ATOM     21  C   UNL     1       3.286   6.162  17.778  0.00  0.00    +0.000 A 
ATOM     22  C   UNL     1       2.603   4.935  17.768  0.00  0.00    +0.000 A 
ENDBRANCH   1  21
TORSDOF 2
ENDMDL
MODEL 4
REMARK VINA RESULT:      -8.0      0.840      1.482
REMARK  Name = 
REMARK  2 active torsions:
REMARK  status: ('A' for Active; 'I' for Inactive)
REMARK    1  A    between atoms: C_7  and  C_8
REMARK    2  A    between atoms: C_10  and  C_11
REMARK                            x       y       z     vdW  Elec       q    Type
REMARK                         _______ _______ _______ _____ _____    ______ ____
ROOT
ATOM      1  C   UNL     1       5.283   4.519  15.494  0.00  0.00    +0.000 A 
ATOM      2  N   UNL     1       4.923   3.656  16.420  0.00  0.00    +0.000 NA
ATOM      3  C   UNL     1       4.449   4.472  17.424  0.00  0.00    +0.000 A 
ATOM      4  N   UNL     1       4.504   5.781  17.138  0.00  0.00    +0.000 NA
ATOM      5  O   UNL     1       5.056   5.814  15.860  0.00  0.00    +0.000 OA
ENDROOT
BRANCH   3   6
ATOM      6  C   UNL     1       3.965   3.885  18.645  0.00  0.00    +0.000 A 
ATOM      7  C   UNL     1       4.817   2.971  19.432  0.00  0.00    +0.000 A 
ATOM      8  C   UNL     1       4.398   2.387  20.573  0.00  0.00    +0.000 A 
ATOM      9  C   UNL     1       3.088   2.652  21.048  0.00  0.00    +0.000 A 
ATOM     10  N   UNL     1       2.408   2.241  22.095  0.00  0.00    +0.000 NA
ATOM     11  N   UNL     1       1.163   2.830  22.046  0.00  0.00    +0.000 NA
ATOM     12  C   UNL     1       1.119   3.586  20.971  0.00  0.00    +0.000 A 
ATOM     13  N   UNL     1       2.306   3.515  20.301  0.00  0.00    +0.000 N 
ATOM     14  C   UNL     1       2.725   4.126  19.126  0.00  0.00    +0.000 A 
ENDBRANCH   3   6
BRANCH   1  21
ATOM     15  F   UNL     1       5.055   2.440  11.143  0.00  0.00    +0.000 F 
ATOM     16  C   UNL     1       5.721   3.218  12.006  0.00  0.00    +0.000 A 
ATOM     17  C   UNL     1       6.940   3.769  11.627  0.00  0.00    +0.000 A 
ATOM     18  C   UNL     1       7.629   4.579  12.525  0.00  0.00    +0.000 A 
ATOM     19  C   UNL     1       7.090   4.828  13.788  0.00  0.00    +0.000 A 
ATOM     20  F   UNL     1       7.791   5.613  14.619  0.00  0.00    +0.000 F 
ATOM     21  C   UNL     1       5.864   4.278  14.182  0.00  0.00    +0.000 A 
ATOM     22  C   UNL     1       5.181   3.461  13.266  0.00  0.00    +0.000 A 
ENDBRANCH   1  21
TORSDOF 2
ENDMDL
MODEL 5
REMARK VINA RESULT:      -7.9      4.831      8.542
REMARK  Name = 
REMARK  2 active torsions:
REMARK  status: ('A' for Active; 'I' for Inactive)
REMARK    1  A    between atoms: C_7  and  C_8
REMARK    2  A    between atoms: C_10  and  C_11
REMARK                            x       y       z     vdW  Elec       q    Type
REMARK                         _______ _______ _______ _____ _____    ______ ____
ROOT
ATOM      1  C   UNL     1       1.704   7.597  20.199  0.00  0.00    +0.000 A 
ATOM      2  N   UNL     1       2.508   7.426  19.171  0.00  0.00    +0.000 NA
ATOM      3  C   UNL     1       2.836   6.091  19.265  0.00  0.00    +0.000 A 
ATOM      4  N   UNL     1       2.261   5.456  20.296  0.00  0.00    +0.000 NA
ATOM      5  O   UNL     1       1.511   6.452  20.917  0.00  0.00    +0.000 OA
ENDROOT
BRANCH   3   6
ATOM      6  C   UNL     1       3.733   5.512  18.299  0.00  0.00    +0.000 A 
ATOM      7  C   UNL     1       3.368   4.280  17.573  0.00  0.00    +0.000 A 
ATOM      8  C   UNL     1       4.185   3.698  16.673  0.00  0.00    +0.000 A 
ATOM      9  C   UNL     1       5.449   4.280  16.403  0.00  0.00    +0.000 A 
ATOM     10  N   UNL     1       6.441   3.952  15.605  0.00  0.00    +0.000 NA
ATOM     11  N   UNL     1       7.435   4.895  15.760  0.00  0.00    +0.000 NA
ATOM     12  C   UNL     1       7.020   5.772  16.647  0.00  0.00    +0.000 A 
ATOM     13  N   UNL     1       5.772   5.437  17.088  0.00  0.00    +0.000 N 
ATOM     14  C   UNL     1       4.941   6.050  18.015  0.00  0.00    +0.000 A 
ENDBRANCH   3   6
BRANCH   1  21
ATOM     15  F   UNL     1      -0.570  10.063  23.670  0.00  0.00    +0.000 F 
ATOM     16  C   UNL     1      -0.118  10.013  22.411  0.00  0.00    +0.000 A 
ATOM     17  C   UNL     1      -0.314  11.104  21.572  0.00  0.00    +0.000 A 
ATOM     18  C   UNL     1       0.159  11.050  20.264  0.00  0.00    +0.000 A 
ATOM     19  C   UNL     1       0.820   9.907  19.813  0.00  0.00    +0.000 A 
ATOM     20  F   UNL     1       1.255   9.901  18.544  0.00  0.00    +0.000 F 
ATOM     21  C   UNL     1       1.021   8.801  20.647  0.00  0.00    +0.000 A 
ATOM     22  C   UNL     1       0.538   8.869  21.964  0.00  0.00    +0.000 A 
ENDBRANCH   1  21
TORSDOF 2
ENDMDL
MODEL 6
REMARK VINA RESULT:      -7.9      4.655      8.472
REMARK  Name = 
REMARK  2 active torsions:
REMARK  status: ('A' for Active; 'I' for Inactive)
REMARK    1  A    between atoms: C_7  and  C_8
REMARK    2  A    between atoms: C_10  and  C_11
REMARK                            x       y       z     vdW  Elec       q    Type
REMARK                         _______ _______ _______ _____ _____    ______ ____
ROOT
ATOM      1  C   UNL     1       2.016   7.325  20.107  0.00  0.00    +0.000 A 
ATOM      2  N   UNL     1       3.025   7.328  19.262  0.00  0.00    +0.000 NA
ATOM      3  C   UNL     1       3.397   6.002  19.233  0.00  0.00    +0.000 A 
ATOM      4  N   UNL     1       2.655   5.207  20.017  0.00  0.00    +0.000 NA
ATOM      5  O   UNL     1       1.739   6.081  20.597  0.00  0.00    +0.000 OA
ENDROOT
BRANCH   3   6
ATOM      6  C   UNL     1       4.506   5.595  18.411  0.00  0.00    +0.000 A 
ATOM      7  C   UNL     1       5.830   5.329  19.008  0.00  0.00    +0.000 A 
ATOM      8  C   UNL     1       6.898   4.961  18.273  0.00  0.00    +0.000 A 
ATOM      9  C   UNL     1       6.760   4.821  16.869  0.00  0.00    +0.000 A 
ATOM     10  N   UNL     1       7.596   4.491  15.908  0.00  0.00    +0.000 NA
ATOM     11  N   UNL     1       6.902   4.521  14.718  0.00  0.00    +0.000 NA
ATOM     12  C   UNL     1       5.662   4.868  14.985  0.00  0.00    +0.000 A 
ATOM     13  N   UNL     1       5.512   5.069  16.327  0.00  0.00    +0.000 N 
ATOM     14  C   UNL     1       4.402   5.445  17.071  0.00  0.00    +0.000 A 
ENDBRANCH   3   6
BRANCH   1  21
ATOM     15  F   UNL     1      -0.151   9.715  23.698  0.00  0.00    +0.000 F 
ATOM     16  C   UNL     1       0.113   9.610  22.389  0.00  0.00    +0.000 A 
ATOM     17  C   UNL     1      -0.405  10.555  21.511  0.00  0.00    +0.000 A 
ATOM     18  C   UNL     1      -0.127  10.444  20.151  0.00  0.00    +0.000 A 
ATOM     19  C   UNL     1       0.665   9.391  19.690  0.00  0.00    +0.000 A 
ATOM     20  F   UNL     1       0.904   9.326  18.371  0.00  0.00    +0.000 F 
ATOM     21  C   UNL     1       1.191   8.433  20.564  0.00  0.00    +0.000 A 
ATOM     22  C   UNL     1       0.901   8.557  21.933  0.00  0.00    +0.000 A 
ENDBRANCH   1  21
TORSDOF 2
ENDMDL
MODEL 7
REMARK VINA RESULT:      -7.8      1.140      1.202
REMARK  Name = 
REMARK  2 active torsions:
REMARK  status: ('A' for Active; 'I' for Inactive)
REMARK    1  A    between atoms: C_7  and  C_8
REMARK    2  A    between atoms: C_10  and  C_11
REMARK                            x       y       z     vdW  Elec       q    Type
REMARK                         _______ _______ _______ _____ _____    ______ ____
ROOT
ATOM      1  C   UNL     1       6.095   4.218  15.759  0.00  0.00    +0.000 A 
ATOM      2  N   UNL     1       4.901   4.065  16.290  0.00  0.00    +0.000 NA
ATOM      3  C   UNL     1       5.161   4.134  17.641  0.00  0.00    +0.000 A 
ATOM      4  N   UNL     1       6.453   4.327  17.941  0.00  0.00    +0.000 NA
ATOM      5  O   UNL     1       7.074   4.383  16.696  0.00  0.00    +0.000 OA
ENDROOT
BRANCH   3   6
ATOM      6  C   UNL     1       4.079   3.992  18.580  0.00  0.00    +0.000 A 
ATOM      7  C   UNL     1       2.867   4.827  18.465  0.00  0.00    +0.000 A 
ATOM      8  C   UNL     1       1.838   4.737  19.331  0.00  0.00    +0.000 A 
ATOM      9  C   UNL     1       1.908   3.807  20.399  0.00  0.00    +0.000 A 
ATOM     10  N   UNL     1       1.091   3.499  21.382  0.00  0.00    +0.000 NA
ATOM     11  N   UNL     1       1.690   2.510  22.133  0.00  0.00    +0.000 NA
ATOM     12  C   UNL     1       2.855   2.242  21.586  0.00  0.00    +0.000 A 
ATOM     13  N   UNL     1       3.048   3.029  20.487  0.00  0.00    +0.000 N 
ATOM     14  C   UNL     1       4.115   3.108  19.602  0.00  0.00    +0.000 A 
ENDBRANCH   3   6
BRANCH   1  21
ATOM     15  F   UNL     1       5.660   2.480  11.277  0.00  0.00    +0.000 F 
ATOM     16  C   UNL     1       6.246   3.341  12.118  0.00  0.00    +0.000 A 
ATOM     17  C   UNL     1       7.207   4.221  11.633  0.00  0.00    +0.000 A 
ATOM     18  C   UNL     1       7.814   5.116  12.510  0.00  0.00    +0.000 A 
ATOM     19  C   UNL     1       7.452   5.118  13.858  0.00  0.00    +0.000 A 
ATOM     20  F   UNL     1       8.066   5.998  14.663  0.00  0.00    +0.000 F 
ATOM     21  C   UNL     1       6.487   4.236  14.358  0.00  0.00    +0.000 A 
ATOM     22  C   UNL     1       5.884   3.338  13.462  0.00  0.00    +0.000 A 
ENDBRANCH   1  21
TORSDOF 2
ENDMDL
MODEL 8
REMARK VINA RESULT:      -7.8      3.915      5.161
REMARK  Name = 
REMARK  2 active torsions:
REMARK  status: ('A' for Active; 'I' for Inactive)
REMARK    1  A    between atoms: C_7  and  C_8
REMARK    2  A    between atoms: C_10  and  C_11
REMARK                            x       y       z     vdW  Elec       q    Type
REMARK                         _______ _______ _______ _____ _____    ______ ____
ROOT
ATOM      1  C   UNL     1       3.804   5.694  18.338  0.00  0.00    +0.000 A 
ATOM      2  N   UNL     1       3.509   6.927  18.690  0.00  0.00    +0.000 NA
ATOM      3  C   UNL     1       2.374   6.759  19.453  0.00  0.00    +0.000 A 
ATOM      4  N   UNL     1       1.982   5.483  19.577  0.00  0.00    +0.000 NA
ATOM      5  O   UNL     1       2.928   4.776  18.840  0.00  0.00    +0.000 OA
ENDROOT
BRANCH   3   6
ATOM      6  C   UNL     1       1.725   7.911  20.021  0.00  0.00    +0.000 A 
ATOM      7  C   UNL     1       1.447   9.103  19.195  0.00  0.00    +0.000 A 
ATOM      8  C   UNL     1       0.855  10.209  19.691  0.00  0.00    +0.000 A 
ATOM      9  C   UNL     1       0.480  10.242  21.057  0.00  0.00    +0.000 A 
ATOM     10  N   UNL     1      -0.093  11.153  21.814  0.00  0.00    +0.000 NA
ATOM     11  N   UNL     1      -0.211  10.631  23.084  0.00  0.00    +0.000 NA
ATOM     12  C   UNL     1       0.291   9.416  23.067  0.00  0.00    +0.000 A 
ATOM     13  N   UNL     1       0.742   9.114  21.814  0.00  0.00    +0.000 N 
ATOM     14  C   UNL     1       1.348   7.968  21.318  0.00  0.00    +0.000 A 
ENDBRANCH   3   6
BRANCH   1  21
ATOM     15  F   UNL     1       5.440   3.993  14.127  0.00  0.00    +0.000 F 
ATOM     16  C   UNL     1       5.694   4.352  15.392  0.00  0.00    +0.000 A 
ATOM     17  C   UNL     1       6.990   4.247  15.884  0.00  0.00    +0.000 A 
ATOM     18  C   UNL     1       7.250   4.622  17.199  0.00  0.00    +0.000 A 
ATOM     19  C   UNL     1       6.212   5.097  18.002  0.00  0.00    +0.000 A 
ATOM     20  F   UNL     1       6.513   5.444  19.263  0.00  0.00    +0.000 F 
ATOM     21  C   UNL     1       4.903   5.205  17.519  0.00  0.00    +0.000 A 
ATOM     22  C   UNL     1       4.655   4.822  16.191  0.00  0.00    +0.000 A 
ENDBRANCH   1  21
TORSDOF 2
ENDMDL
MODEL 9
REMARK VINA RESULT:      -7.8      4.729      6.658
REMARK  Name = 
REMARK  2 active torsions:
REMARK  status: ('A' for Active; 'I' for Inactive)
REMARK    1  A    between atoms: C_7  and  C_8
REMARK    2  A    between atoms: C_10  and  C_11
REMARK                            x       y       z     vdW  Elec       q    Type
REMARK                         _______ _______ _______ _____ _____    ______ ____
ROOT
ATOM      1  C   UNL     1       2.669   5.834  18.788  0.00  0.00    +0.000 A 
ATOM      2  N   UNL     1       1.957   6.508  19.666  0.00  0.00    +0.000 NA
ATOM      3  C   UNL     1       2.096   7.808  19.231  0.00  0.00    +0.000 A 
ATOM      4  N   UNL     1       2.852   7.940  18.132  0.00  0.00    +0.000 NA
ATOM      5  O   UNL     1       3.232   6.634  17.836  0.00  0.00    +0.000 OA
ENDROOT
BRANCH   3   6
ATOM      6  C   UNL     1       1.458   8.872  19.961  0.00  0.00    +0.000 A 
ATOM      7  C   UNL     1       1.356  10.227  19.384  0.00  0.00    +0.000 A 
ATOM      8  C   UNL     1       0.779  11.255  20.040  0.00  0.00    +0.000 A 
ATOM      9  C   UNL     1       0.246  11.040  21.336  0.00  0.00    +0.000 A 
ATOM     10  N   UNL     1      -0.354  11.823  22.205  0.00  0.00    +0.000 NA
ATOM     11  N   UNL     1      -0.656  11.064  23.316  0.00  0.00    +0.000 NA
ATOM     12  C   UNL     1      -0.232   9.840  23.092  0.00  0.00    +0.000 A 
ATOM     13  N   UNL     1       0.346   9.763  21.858  0.00  0.00    +0.000 N 
ATOM     14  C   UNL     1       0.933   8.694  21.194  0.00  0.00    +0.000 A 
ENDBRANCH   3   6
BRANCH   1  21
ATOM     15  F   UNL     1       5.083   1.921  20.257  0.00  0.00    +0.000 F 
ATOM     16  C   UNL     1       4.148   2.456  19.462  0.00  0.00    +0.000 A 
ATOM     17  C   UNL     1       3.446   1.637  18.586  0.00  0.00    +0.000 A 
ATOM     18  C   UNL     1       2.473   2.196  17.762  0.00  0.00    +0.000 A 
ATOM     19  C   UNL     1       2.216   3.567  17.827  0.00  0.00    +0.000 A 
ATOM     20  F   UNL     1       1.271   4.060  17.013  0.00  0.00    +0.000 F 
ATOM     21  C   UNL     1       2.917   4.403  18.704  0.00  0.00    +0.000 A 
ATOM     22  C   UNL     1       3.896   3.824  19.528  0.00  0.00    +0.000 A 
ENDBRANCH   1  21
TORSDOF 2
ENDMDL
