MODEL 1
REMARK VINA RESULT:      -7.6      0.000      0.000
REMARK  Name = 
REMARK  5 active torsions:
REMARK  status: ('A' for Active; 'I' for Inactive)
REMARK    1  A    between atoms: C_1  and  N_2
REMARK    2  A    between atoms: C_3  and  C_5
REMARK    3  A    between atoms: N_10  and  C_11
REMARK    4  A    between atoms: C_11  and  C_12
REMARK    5  A    between atoms: N_21  and  C_22
REMARK                            x       y       z     vdW  Elec       q    Type
REMARK                         _______ _______ _______ _____ _____    ______ ____
ROOT
ATOM      1  C   UNL     1       3.343   5.753  19.685  0.00  0.00    +0.000 C 
ENDROOT
BRANCH   1   2
ATOM      2  C   UNL     1       2.492   6.995  19.711  0.00  0.00    +0.000 A 
ATOM      3  C   UNL     1       1.675   7.454  20.728  0.00  0.00    +0.000 A 
ATOM      4  C   UNL     1       1.003   8.616  20.277  0.00  0.00    +0.000 A 
ATOM      5  C   UNL     1       0.011   9.438  20.843  0.00  0.00    +0.000 A 
ATOM      6  C   UNL     1      -0.433  10.546  20.128  0.00  0.00    +0.000 A 
ATOM      7  F   UNL     1      -1.388  11.324  20.655  0.00  0.00    +0.000 F 
ATOM      8  C   UNL     1       0.092  10.861  18.884  0.00  0.00    +0.000 A 
ATOM      9  C   UNL     1       1.070  10.055  18.297  0.00  0.00    +0.000 A 
ATOM     10  C   UNL     1       1.506   8.918  19.009  0.00  0.00    +0.000 A 
ATOM     11  N   UNL     1       2.420   7.924  18.691  0.00  0.00    +0.000 N 
ATOM     12  C   UNL     1       3.187   7.856  17.463  0.00  0.00    +0.000 C 
ENDBRANCH   1   2
BRANCH   1  18
ATOM     13  C   UNL     1       3.780   3.606  18.609  0.00  0.00    +0.000 C 
ATOM     14  C   UNL     1       3.197   2.393  17.860  0.00  0.00    +0.000 C 
ATOM     15  C   UNL     1       2.032   1.770  18.611  0.00  0.00    +0.000 C 
ATOM     16  C   UNL     1       0.998   2.837  18.924  0.00  0.00    +0.000 C 
ATOM     17  C   UNL     1       1.625   4.029  19.647  0.00  0.00    +0.000 C 
ATOM     18  N   UNL     1       2.738   4.648  18.890  0.00  0.00    +0.000 NA
BRANCH  13  21
ATOM     19  C   UNL     1       7.345   4.621  17.681  0.00  0.00    +0.000 C 
ATOM     20  N   UNL     1       6.175   4.107  18.335  0.00  0.00    +0.000 N 
ATOM     21  C   UNL     1       4.926   4.189  17.756  0.00  0.00    +0.000 C 
ATOM     22  O   UNL     1       4.731   4.685  16.649  0.00  0.00    +0.000 OA
ATOM     23  H   UNL     1       6.262   3.564  19.187  0.00  0.00    +0.000 HD
ENDBRANCH  13  21
ENDBRANCH   1  18
TORSDOF 3
ENDMDL
MODEL 2
REMARK VINA RESULT:      -7.5      1.939      3.819
REMARK  Name = 
REMARK  5 active torsions:
REMARK  status: ('A' for Active; 'I' for Inactive)
REMARK    1  A    between atoms: C_1  and  N_2
REMARK    2  A    between atoms: C_3  and  C_5
REMARK    3  A    between atoms: N_10  and  C_11
REMARK    4  A    between atoms: C_11  and  C_12
REMARK    5  A    between atoms: N_21  and  C_22
REMARK                            x       y       z     vdW  Elec       q    Type
REMARK                         _______ _______ _______ _____ _____    ______ ____
ROOT
ATOM      1  C   UNL     1       4.174   4.731  17.827  0.00  0.00    +0.000 C 
ENDROOT
BRANCH   1   2
ATOM      2  C   UNL     1       3.353   5.889  18.329  0.00  0.00    +0.000 A 
ATOM      3  C   UNL     1       3.070   7.082  17.688  0.00  0.00    +0.000 A 
ATOM      4  C   UNL     1       2.335   7.906  18.575  0.00  0.00    +0.000 A 
ATOM      5  C   UNL     1       1.861   9.228  18.494  0.00  0.00    +0.000 A 
ATOM      6  C   UNL     1       1.134   9.749  19.560  0.00  0.00    +0.000 A 
ATOM      7  F   UNL     1       0.692  11.012  19.495  0.00  0.00    +0.000 F 
ATOM      8  C   UNL     1       0.859   8.988  20.687  0.00  0.00    +0.000 A 
ATOM      9  C   UNL     1       1.328   7.677  20.795  0.00  0.00    +0.000 A 
ATOM     10  C   UNL     1       2.084   7.153  19.726  0.00  0.00    +0.000 A 
ATOM     11  N   UNL     1       2.703   5.925  19.547  0.00  0.00    +0.000 N 
ATOM     12  C   UNL     1       2.684   4.834  20.501  0.00  0.00    +0.000 C 
ENDBRANCH   1   2
BRANCH   1  18
ATOM     13  C   UNL     1       6.052   6.066  17.022  0.00  0.00    +0.000 C 
ATOM     14  C   UNL     1       7.548   6.409  17.161  0.00  0.00    +0.000 C 
ATOM     15  C   UNL     1       7.917   6.767  18.590  0.00  0.00    +0.000 C 
ATOM     16  C   UNL     1       7.465   5.659  19.526  0.00  0.00    +0.000 C 
ATOM     17  C   UNL     1       5.983   5.338  19.339  0.00  0.00    +0.000 C 
ATOM     18  N   UNL     1       5.641   4.959  17.948  0.00  0.00    +0.000 NA
BRANCH  13  21
ATOM     19  C   UNL     1       6.159   3.968  13.830  0.00  0.00    +0.000 C 
ATOM     20  N   UNL     1       6.304   4.464  15.171  0.00  0.00    +0.000 N 
ATOM     21  C   UNL     1       5.784   5.683  15.552  0.00  0.00    +0.000 C 
ATOM     22  O   UNL     1       5.154   6.411  14.790  0.00  0.00    +0.000 OA
ATOM     23  H   UNL     1       6.691   3.871  15.896  0.00  0.00    +0.000 HD
ENDBRANCH  13  21
ENDBRANCH   1  18
TORSDOF 3
ENDMDL
MODEL 3
REMARK VINA RESULT:      -7.5      2.198      3.807
REMARK  Name = 
REMARK  5 active torsions:
REMARK  status: ('A' for Active; 'I' for Inactive)
REMARK    1  A    between atoms: C_1  and  N_2
REMARK    2  A    between atoms: C_3  and  C_5
REMARK    3  A    between atoms: N_10  and  C_11
REMARK    4  A    between atoms: C_11  and  C_12
REMARK    5  A    between atoms: N_21  and  C_22
REMARK                            x       y       z     vdW  Elec       q    Type
REMARK                         _______ _______ _______ _____ _____    ______ ____
ROOT
ATOM      1  C   UNL     1       4.676   5.026  17.950  0.00  0.00    +0.000 C 
ENDROOT
BRANCH   1   2
ATOM      2  C   UNL     1       3.717   6.128  18.318  0.00  0.00    +0.000 A 
ATOM      3  C   UNL     1       3.391   7.260  17.592  0.00  0.00    +0.000 A 
ATOM      4  C   UNL     1       2.511   8.054  18.368  0.00  0.00    +0.000 A 
ATOM      5  C   UNL     1       1.935   9.323  18.175  0.00  0.00    +0.000 A 
ATOM      6  C   UNL     1       1.074   9.825  19.147  0.00  0.00    +0.000 A 
ATOM      7  F   UNL     1       0.533  11.039  18.976  0.00  0.00    +0.000 F 
ATOM      8  C   UNL     1       0.766   9.095  20.285  0.00  0.00    +0.000 A 
ATOM      9  C   UNL     1       1.334   7.839  20.503  0.00  0.00    +0.000 A 
ATOM     10  C   UNL     1       2.224   7.336  19.532  0.00  0.00    +0.000 A 
ATOM     11  N   UNL     1       2.960   6.162  19.473  0.00  0.00    +0.000 N 
ATOM     12  C   UNL     1       2.949   5.119  20.479  0.00  0.00    +0.000 C 
ENDBRANCH   1   2
BRANCH   1  18
ATOM     13  C   UNL     1       6.766   5.068  16.691  0.00  0.00    +0.000 C 
ATOM     14  C   UNL     1       7.441   5.156  15.309  0.00  0.00    +0.000 C 
ATOM     15  C   UNL     1       6.889   4.122  14.342  0.00  0.00    +0.000 C 
ATOM     16  C   UNL     1       5.377   4.237  14.280  0.00  0.00    +0.000 C 
ATOM     17  C   UNL     1       4.752   4.167  15.673  0.00  0.00    +0.000 C 
ATOM     18  N   UNL     1       5.275   5.201  16.598  0.00  0.00    +0.000 NA
BRANCH  13  21
ATOM     19  C   UNL     1       7.900   8.570  17.716  0.00  0.00    +0.000 C 
ATOM     20  N   UNL     1       7.362   7.433  17.022  0.00  0.00    +0.000 N 
ATOM     21  C   UNL     1       7.362   6.174  17.585  0.00  0.00    +0.000 C 
ATOM     22  O   UNL     1       7.799   5.943  18.710  0.00  0.00    +0.000 OA
ATOM     23  H   UNL     1       6.862   7.556  16.149  0.00  0.00    +0.000 HD
ENDBRANCH  13  21
ENDBRANCH   1  18
TORSDOF 3
ENDMDL
MODEL 4
REMARK VINA RESULT:      -7.3      1.627      3.520
REMARK  Name = 
REMARK  5 active torsions:
REMARK  status: ('A' for Active; 'I' for Inactive)
REMARK    1  A    between atoms: C_1  and  N_2
REMARK    2  A    between atoms: C_3  and  C_5
REMARK    3  A    between atoms: N_10  and  C_11
REMARK    4  A    between atoms: C_11  and  C_12
REMARK    5  A    between atoms: N_21  and  C_22
REMARK                            x       y       z     vdW  Elec       q    Type
REMARK                         _______ _______ _______ _____ _____    ______ ____
ROOT
ATOM      1  C   UNL     1       3.318   5.924  17.730  0.00  0.00    +0.000 C 
ENDROOT
BRANCH   1   2
ATOM      2  C   UNL     1       2.568   6.998  18.473  0.00  0.00    +0.000 A 
ATOM      3  C   UNL     1       2.164   8.238  18.013  0.00  0.00    +0.000 A 
ATOM      4  C   UNL     1       1.566   8.944  19.085  0.00  0.00    +0.000 A 
ATOM      5  C   UNL     1       1.062  10.251  19.217  0.00  0.00    +0.000 A 
ATOM      6  C   UNL     1       0.506  10.638  20.434  0.00  0.00    +0.000 A 
ATOM      7  F   UNL     1       0.037  11.885  20.570  0.00  0.00    +0.000 F 
ATOM      8  C   UNL     1       0.429   9.759  21.504  0.00  0.00    +0.000 A 
ATOM      9  C   UNL     1       0.932   8.461  21.400  0.00  0.00    +0.000 A 
ATOM     10  C   UNL     1       1.516   8.073  20.177  0.00  0.00    +0.000 A 
ATOM     11  N   UNL     1       2.121   6.890  19.776  0.00  0.00    +0.000 N 
ATOM     12  C   UNL     1       2.274   5.710  20.602  0.00  0.00    +0.000 C 
ENDBRANCH   1   2
BRANCH   1  18
ATOM     13  C   UNL     1       5.383   4.629  17.616  0.00  0.00    +0.000 C 
ATOM     14  C   UNL     1       6.915   4.621  17.778  0.00  0.00    +0.000 C 
ATOM     15  C   UNL     1       7.575   5.729  16.974  0.00  0.00    +0.000 C 
ATOM     16  C   UNL     1       6.940   7.062  17.326  0.00  0.00    +0.000 C 
ATOM     17  C   UNL     1       5.420   7.017  17.171  0.00  0.00    +0.000 C 
ATOM     18  N   UNL     1       4.785   5.954  17.986  0.00  0.00    +0.000 NA
BRANCH  13  21
ATOM     19  C   UNL     1       3.464   1.439  18.475  0.00  0.00    +0.000 C 
ATOM     20  N   UNL     1       4.085   2.546  17.804  0.00  0.00    +0.000 N 
ATOM     21  C   UNL     1       4.804   3.500  18.493  0.00  0.00    +0.000 C 
ATOM     22  O   UNL     1       4.976   3.461  19.709  0.00  0.00    +0.000 OA
ATOM     23  H   UNL     1       4.107   2.583  16.791  0.00  0.00    +0.000 HD
ENDBRANCH  13  21
ENDBRANCH   1  18
TORSDOF 3
ENDMDL
MODEL 5
REMARK VINA RESULT:      -7.0      1.816      3.293
REMARK  Name = 
REMARK  5 active torsions:
REMARK  status: ('A' for Active; 'I' for Inactive)
REMARK    1  A    between atoms: C_1  and  N_2
REMARK    2  A    between atoms: C_3  and  C_5
REMARK    3  A    between atoms: N_10  and  C_11
REMARK    4  A    between atoms: C_11  and  C_12
REMARK    5  A    between atoms: N_21  and  C_22
REMARK                            x       y       z     vdW  Elec       q    Type
REMARK                         _______ _______ _______ _____ _____    ______ ____
ROOT
ATOM      1  C   UNL     1       2.673   7.210  17.785  0.00  0.00    +0.000 C 
ENDROOT
BRANCH   1   2
ATOM      2  C   UNL     1       2.046   7.963  18.929  0.00  0.00    +0.000 A 
ATOM      3  C   UNL     1       1.824   7.530  20.224  0.00  0.00    +0.000 A 
ATOM      4  C   UNL     1       1.133   8.547  20.927  0.00  0.00    +0.000 A 
ATOM      5  C   UNL     1       0.585   8.622  22.221  0.00  0.00    +0.000 A 
ATOM      6  C   UNL     1      -0.028   9.806  22.623  0.00  0.00    +0.000 A 
ATOM      7  F   UNL     1      -0.564   9.880  23.849  0.00  0.00    +0.000 F 
ATOM      8  C   UNL     1      -0.095  10.906  21.782  0.00  0.00    +0.000 A 
ATOM      9  C   UNL     1       0.431  10.851  20.490  0.00  0.00    +0.000 A 
ATOM     10  C   UNL     1       1.034   9.647  20.071  0.00  0.00    +0.000 A 
ATOM     11  N   UNL     1       1.607   9.272  18.865  0.00  0.00    +0.000 N 
ATOM     12  C   UNL     1       1.726  10.122  17.697  0.00  0.00    +0.000 C 
ENDBRANCH   1   2
BRANCH   1  18
ATOM     13  C   UNL     1       3.462   4.906  17.630  0.00  0.00    +0.000 C 
ATOM     14  C   UNL     1       4.568   3.892  17.978  0.00  0.00    +0.000 C 
ATOM     15  C   UNL     1       5.941   4.382  17.550  0.00  0.00    +0.000 C 
ATOM     16  C   UNL     1       6.191   5.765  18.124  0.00  0.00    +0.000 C 
ATOM     17  C   UNL     1       5.059   6.731  17.772  0.00  0.00    +0.000 C 
ATOM     18  N   UNL     1       3.730   6.257  18.224  0.00  0.00    +0.000 NA
BRANCH  13  21
ATOM     19  C   UNL     1       0.910   3.512  20.108  0.00  0.00    +0.000 C 
ATOM     20  N   UNL     1       2.081   4.063  19.484  0.00  0.00    +0.000 N 
ATOM     21  C   UNL     1       2.119   4.339  18.134  0.00  0.00    +0.000 C 
ATOM     22  O   UNL     1       1.163   4.154  17.384  0.00  0.00    +0.000 OA
ATOM     23  H   UNL     1       2.864   4.371  20.048  0.00  0.00    +0.000 HD
ENDBRANCH  13  21
ENDBRANCH   1  18
TORSDOF 3
ENDMDL
MODEL 6
REMARK VINA RESULT:      -7.0      1.020      1.029
REMARK  Name = 
REMARK  5 active torsions:
REMARK  status: ('A' for Active; 'I' for Inactive)
REMARK    1  A    between atoms: C_1  and  N_2
REMARK    2  A    between atoms: C_3  and  C_5
REMARK    3  A    between atoms: N_10  and  C_11
REMARK    4  A    between atoms: C_11  and  C_12
REMARK    5  A    between atoms: N_21  and  C_22
REMARK                            x       y       z     vdW  Elec       q    Type
REMARK                         _______ _______ _______ _____ _____    ______ ____
ROOT
ATOM      1  C   UNL     1       3.073   5.944  20.119  0.00  0.00    +0.000 C 
ENDROOT
BRANCH   1   2
ATOM      2  C   UNL     1       2.239   7.193  20.006  0.00  0.00    +0.000 A 
ATOM      3  C   UNL     1       1.383   7.741  20.944  0.00  0.00    +0.000 A 
ATOM      4  C   UNL     1       0.749   8.870  20.370  0.00  0.00    +0.000 A 
ATOM      5  C   UNL     1      -0.256   9.745  20.822  0.00  0.00    +0.000 A 
ATOM      6  C   UNL     1      -0.652  10.797  20.000  0.00  0.00    +0.000 A 
ATOM      7  F   UNL     1      -1.618  11.625  20.418  0.00  0.00    +0.000 F 
ATOM      8  C   UNL     1      -0.066  11.004  18.759  0.00  0.00    +0.000 A 
ATOM      9  C   UNL     1       0.926  10.142  18.286  0.00  0.00    +0.000 A 
ATOM     10  C   UNL     1       1.313   9.063  19.106  0.00  0.00    +0.000 A 
ATOM     11  N   UNL     1       2.226   8.037  18.912  0.00  0.00    +0.000 N 
ATOM     12  C   UNL     1       3.046   7.861  17.730  0.00  0.00    +0.000 C 
ENDBRANCH   1   2
BRANCH   1  18
ATOM     13  C   UNL     1       4.040   4.046  18.929  0.00  0.00    +0.000 C 
ATOM     14  C   UNL     1       3.878   3.008  17.802  0.00  0.00    +0.000 C 
ATOM     15  C   UNL     1       2.560   2.260  17.906  0.00  0.00    +0.000 C 
ATOM     16  C   UNL     1       1.414   3.254  17.976  0.00  0.00    +0.000 C 
ATOM     17  C   UNL     1       1.627   4.276  19.092  0.00  0.00    +0.000 C 
ATOM     18  N   UNL     1       2.901   5.022  18.963  0.00  0.00    +0.000 NA
BRANCH  13  21
ATOM     19  C   UNL     1       6.770   5.984  17.088  0.00  0.00    +0.000 C 
ATOM     20  N   UNL     1       5.565   5.293  17.454  0.00  0.00    +0.000 N 
ATOM     21  C   UNL     1       5.383   4.774  18.719  0.00  0.00    +0.000 C 
ATOM     22  O   UNL     1       6.218   4.880  19.614  0.00  0.00    +0.000 OA
ATOM     23  H   UNL     1       4.772   5.277  16.822  0.00  0.00    +0.000 HD
ENDBRANCH  13  21
ENDBRANCH   1  18
TORSDOF 3
ENDMDL
MODEL 7
REMARK VINA RESULT:      -7.0      1.349      1.612
REMARK  Name = 
REMARK  5 active torsions:
REMARK  status: ('A' for Active; 'I' for Inactive)
REMARK    1  A    between atoms: C_1  and  N_2
REMARK    2  A    between atoms: C_3  and  C_5
REMARK    3  A    between atoms: N_10  and  C_11
REMARK    4  A    between atoms: C_11  and  C_12
REMARK    5  A    between atoms: N_21  and  C_22
REMARK                            x       y       z     vdW  Elec       q    Type
REMARK                         _______ _______ _______ _____ _____    ______ ____
ROOT
ATOM      1  C   UNL     1       3.027   6.538  19.085  0.00  0.00    +0.000 C 
ENDROOT
BRANCH   1   2
ATOM      2  C   UNL     1       2.175   7.548  19.806  0.00  0.00    +0.000 A 
ATOM      3  C   UNL     1       1.852   7.594  21.151  0.00  0.00    +0.000 A 
ATOM      4  C   UNL     1       0.956   8.671  21.362  0.00  0.00    +0.000 A 
ATOM      5  C   UNL     1       0.249   9.130  22.488  0.00  0.00    +0.000 A 
ATOM      6  C   UNL     1      -0.555  10.260  22.363  0.00  0.00    +0.000 A 
ATOM      7  F   UNL     1      -1.242  10.694  23.428  0.00  0.00    +0.000 F 
ATOM      8  C   UNL     1      -0.657  10.944  21.161  0.00  0.00    +0.000 A 
ATOM      9  C   UNL     1       0.028  10.501  20.027  0.00  0.00    +0.000 A 
ATOM     10  C   UNL     1       0.824   9.344  20.144  0.00  0.00    +0.000 A 
ATOM     11  N   UNL     1       1.585   8.648  19.215  0.00  0.00    +0.000 N 
ATOM     12  C   UNL     1       1.738   9.012  17.821  0.00  0.00    +0.000 C 
ENDBRANCH   1   2
BRANCH   1  18
ATOM     13  C   UNL     1       3.729   4.268  19.644  0.00  0.00    +0.000 C 
ATOM     14  C   UNL     1       3.301   2.818  19.941  0.00  0.00    +0.000 C 
ATOM     15  C   UNL     1       2.245   2.752  21.031  0.00  0.00    +0.000 C 
ATOM     16  C   UNL     1       1.083   3.660  20.673  0.00  0.00    +0.000 C 
ATOM     17  C   UNL     1       1.556   5.081  20.366  0.00  0.00    +0.000 C 
ATOM     18  N   UNL     1       2.562   5.136  19.278  0.00  0.00    +0.000 NA
BRANCH  13  21
ATOM     19  C   UNL     1       7.117   4.681  17.926  0.00  0.00    +0.000 C 
ATOM     20  N   UNL     1       6.038   4.635  18.873  0.00  0.00    +0.000 N 
ATOM     21  C   UNL     1       4.769   4.236  18.506  0.00  0.00    +0.000 C 
ATOM     22  O   UNL     1       4.482   3.880  17.365  0.00  0.00    +0.000 OA
ATOM     23  H   UNL     1       6.216   4.782  19.860  0.00  0.00    +0.000 HD
ENDBRANCH  13  21
ENDBRANCH   1  18
TORSDOF 3
ENDMDL
MODEL 8
REMARK VINA RESULT:      -7.0      1.858      3.501
REMARK  Name = 
REMARK  5 active torsions:
REMARK  status: ('A' for Active; 'I' for Inactive)
REMARK    1  A    between atoms: C_1  and  N_2
REMARK    2  A    between atoms: C_3  and  C_5
REMARK    3  A    between atoms: N_10  and  C_11
REMARK    4  A    between atoms: C_11  and  C_12
REMARK    5  A    between atoms: N_21  and  C_22
REMARK                            x       y       z     vdW  Elec       q    Type
REMARK                         _______ _______ _______ _____ _____    ______ ____
ROOT
ATOM      1  C   UNL     1       3.324   5.403  17.612  0.00  0.00    +0.000 C 
ENDROOT
BRANCH   1   2
ATOM      2  C   UNL     1       2.663   6.560  18.314  0.00  0.00    +0.000 A 
ATOM      3  C   UNL     1       2.332   7.800  17.799  0.00  0.00    +0.000 A 
ATOM      4  C   UNL     1       1.806   8.597  18.845  0.00  0.00    +0.000 A 
ATOM      5  C   UNL     1       1.392   9.940  18.920  0.00  0.00    +0.000 A 
ATOM      6  C   UNL     1       0.890  10.422  20.126  0.00  0.00    +0.000 A 
ATOM      7  F   UNL     1       0.508  11.704  20.208  0.00  0.00    +0.000 F 
ATOM      8  C   UNL     1       0.779   9.605  21.241  0.00  0.00    +0.000 A 
ATOM      9  C   UNL     1       1.193   8.272  21.193  0.00  0.00    +0.000 A 
ATOM     10  C   UNL     1       1.723   7.786  19.981  0.00  0.00    +0.000 A 
ATOM     11  N   UNL     1       2.239   6.547  19.629  0.00  0.00    +0.000 N 
ATOM     12  C   UNL     1       2.332   5.401  20.511  0.00  0.00    +0.000 C 
ENDBRANCH   1   2
BRANCH   1  18
ATOM     13  C   UNL     1       5.521   4.341  17.601  0.00  0.00    +0.000 C 
ATOM     14  C   UNL     1       7.022   4.479  17.283  0.00  0.00    +0.000 C 
ATOM     15  C   UNL     1       7.257   4.961  15.861  0.00  0.00    +0.000 C 
ATOM     16  C   UNL     1       6.472   6.238  15.619  0.00  0.00    +0.000 C 
ATOM     17  C   UNL     1       4.994   6.061  15.969  0.00  0.00    +0.000 C 
ATOM     18  N   UNL     1       4.776   5.622  17.367  0.00  0.00    +0.000 NA
BRANCH  13  21
ATOM     19  C   UNL     1       4.578   2.086  20.538  0.00  0.00    +0.000 C 
ATOM     20  N   UNL     1       4.797   2.648  19.234  0.00  0.00    +0.000 N 
ATOM     21  C   UNL     1       5.384   3.885  19.068  0.00  0.00    +0.000 C 
ATOM     22  O   UNL     1       5.771   4.575  20.008  0.00  0.00    +0.000 OA
ATOM     23  H   UNL     1       4.632   2.091  18.403  0.00  0.00    +0.000 HD
ENDBRANCH  13  21
ENDBRANCH   1  18
TORSDOF 3
ENDMDL
MODEL 9
REMARK VINA RESULT:      -6.9      1.866      3.163
REMARK  Name = 
REMARK  5 active torsions:
REMARK  status: ('A' for Active; 'I' for Inactive)
REMARK    1  A    between atoms: C_1  and  N_2
REMARK    2  A    between atoms: C_3  and  C_5
REMARK    3  A    between atoms: N_10  and  C_11
REMARK    4  A    between atoms: C_11  and  C_12
REMARK    5  A    between atoms: N_21  and  C_22
REMARK                            x       y       z     vdW  Elec       q    Type
REMARK                         _______ _______ _______ _____ _____    ______ ____
ROOT
ATOM      1  C   UNL     1       2.974   6.090  17.967  0.00  0.00    +0.000 C 
ENDROOT
BRANCH   1   2
ATOM      2  C   UNL     1       2.372   7.041  18.968  0.00  0.00    +0.000 A 
ATOM      3  C   UNL     1       2.143   6.836  20.316  0.00  0.00    +0.000 A 
ATOM      4  C   UNL     1       1.482   7.974  20.839  0.00  0.00    +0.000 A 
ATOM      5  C   UNL     1       0.941   8.280  22.101  0.00  0.00    +0.000 A 
ATOM      6  C   UNL     1       0.361   9.530  22.300  0.00  0.00    +0.000 A 
ATOM      7  F   UNL     1      -0.168   9.823  23.495  0.00  0.00    +0.000 F 
ATOM      8  C   UNL     1       0.321  10.477  21.286  0.00  0.00    +0.000 A 
ATOM      9  C   UNL     1       0.841  10.192  20.022  0.00  0.00    +0.000 A 
ATOM     10  C   UNL     1       1.409   8.918  19.811  0.00  0.00    +0.000 A 
ATOM     11  N   UNL     1       1.969   8.332  18.686  0.00  0.00    +0.000 N 
ATOM     12  C   UNL     1       2.106   8.971  17.392  0.00  0.00    +0.000 C 
ENDBRANCH   1   2
BRANCH   1  18
ATOM     13  C   UNL     1       4.912   4.696  17.459  0.00  0.00    +0.000 C 
ATOM     14  C   UNL     1       6.447   4.562  17.471  0.00  0.00    +0.000 C 
ATOM     15  C   UNL     1       7.123   5.738  16.785  0.00  0.00    +0.000 C 
ATOM     16  C   UNL     1       6.629   7.037  17.394  0.00  0.00    +0.000 C 
ATOM     17  C   UNL     1       5.102   7.117  17.382  0.00  0.00    +0.000 C 
ATOM     18  N   UNL     1       4.455   5.982  18.082  0.00  0.00    +0.000 NA
BRANCH  13  21
ATOM     19  C   UNL     1       4.496   2.099  20.231  0.00  0.00    +0.000 C 
ATOM     20  N   UNL     1       4.916   3.208  19.420  0.00  0.00    +0.000 N 
ATOM     21  C   UNL     1       4.321   3.483  18.206  0.00  0.00    +0.000 C 
ATOM     22  O   UNL     1       3.392   2.820  17.749  0.00  0.00    +0.000 OA
ATOM     23  H   UNL     1       5.581   3.883  19.780  0.00  0.00    +0.000 HD
ENDBRANCH  13  21
ENDBRANCH   1  18
TORSDOF 3
ENDMDL
