MODEL 1
REMARK VINA RESULT:      -8.4      0.000      0.000
REMARK  Name = 
REMARK  8 active torsions:
REMARK  status: ('A' for Active; 'I' for Inactive)
REMARK    1  A    between atoms: C_1  and  C_2
REMARK    2  A    between atoms: C_5  and  C_6
REMARK    3  A    between atoms: C_8  and  C_10
REMARK    4  A    between atoms: C_10  and  O_11
REMARK    5  A    between atoms: O_11  and  C_12
REMARK    6  A    between atoms: C_23  and  C_24
REMARK    7  A    between atoms: C_31  and  C_32
REMARK    8  A    between atoms: C_31  and  C_33
REMARK                            x       y       z     vdW  Elec       q    Type
REMARK                         _______ _______ _______ _____ _____    ______ ____
ROOT
ATOM      1  C   UNL     1      -0.823  12.695  18.646  0.00  0.00    +0.000 C 
ATOM      2  N   UNL     1       0.204  11.629  18.541  0.00  0.00    +0.000 N 
ATOM      3  C   UNL     1       0.261  10.485  19.328  0.00  0.00    +0.000 C 
ATOM      4  O   UNL     1      -0.491  10.235  20.277  0.00  0.00    +0.000 OA
ATOM      5  N   UNL     1       1.394  12.236  18.565  0.00  0.00    +0.000 NA
ATOM      6  C   UNL     1       1.314  13.344  19.247  0.00  0.00    +0.000 C 
ATOM      7  C   UNL     1      -0.205  13.864  19.629  0.00  0.00    +0.000 C 
ATOM      8  C   UNL     1       0.278  15.366  19.080  0.00  0.00    +0.000 C 
ATOM      9  C   UNL     1      -1.558  14.558  19.935  0.00  0.00    +0.000 C 
ENDROOT
BRANCH   1  14
ATOM     10  C   UNL     1      -6.499  11.398  18.100  0.00  0.00    +0.000 C 
ATOM     11  C   UNL     1      -5.026  11.491  18.379  0.00  0.00    +0.000 A 
ATOM     12  C   UNL     1      -4.555  12.085  19.553  0.00  0.00    +0.000 A 
ATOM     13  C   UNL     1      -3.190  12.363  19.722  0.00  0.00    +0.000 A 
ATOM     14  C   UNL     1      -2.264  12.123  18.688  0.00  0.00    +0.000 A 
ATOM     15  C   UNL     1      -2.729  11.382  17.587  0.00  0.00    +0.000 A 
ATOM     16  C   UNL     1      -4.089  11.081  17.427  0.00  0.00    +0.000 A 
ENDBRANCH   1  14
BRANCH   6  17
ATOM     17  C   UNL     1       2.676  13.940  19.518  0.00  0.00    +0.000 A 
ATOM     18  C   UNL     1       3.491  14.229  18.391  0.00  0.00    +0.000 A 
ATOM     19  C   UNL     1       4.774  14.765  18.537  0.00  0.00    +0.000 A 
ATOM     20  C   UNL     1       5.260  15.015  19.812  0.00  0.00    +0.000 A 
ATOM     21 CL   UNL     1       6.811  15.737  20.007  0.00  0.00    +0.000 Cl
ATOM     22  C   UNL     1       4.493  14.687  20.931  0.00  0.00    +0.000 A 
ATOM     23  C   UNL     1       3.214  14.113  20.784  0.00  0.00    +0.000 A 
ENDBRANCH   6  17
BRANCH   3  24
ATOM     24  C   UNL     1       1.359   9.479  18.889  0.00  0.00    +0.000 C 
BRANCH  24  25
ATOM     25  O   UNL     1       1.661   8.322  19.674  0.00  0.00    +0.000 OA
BRANCH  25  26
ATOM     26  C   UNL     1       2.473   7.384  19.035  0.00  0.00    +0.000 A 
ATOM     27  C   UNL     1       3.202   7.723  17.878  0.00  0.00    +0.000 A 
ATOM     28  C   UNL     1       4.049   6.810  17.263  0.00  0.00    +0.000 A 
ATOM     29  C   UNL     1       4.164   5.532  17.781  0.00  0.00    +0.000 A 
ATOM     30  C   UNL     1       3.410   5.162  18.896  0.00  0.00    +0.000 A 
ATOM     31  C   UNL     1       3.531   3.843  19.372  0.00  0.00    +0.000 A 
ATOM     32  C   UNL     1       2.775   3.435  20.452  0.00  0.00    +0.000 A 
ATOM     33  C   UNL     1       1.922   4.354  21.025  0.00  0.00    +0.000 A 
ATOM     34  N   UNL     1       1.797   5.639  20.610  0.00  0.00    +0.000 NA
ATOM     35  C   UNL     1       2.529   6.062  19.546  0.00  0.00    +0.000 A 
ENDBRANCH  25  26
ENDBRANCH  24  25
ENDBRANCH   3  24
TORSDOF 5
ENDMDL
MODEL 2
REMARK VINA RESULT:      -8.2      2.279      3.042
REMARK  Name = 
REMARK  8 active torsions:
REMARK  status: ('A' for Active; 'I' for Inactive)
REMARK    1  A    between atoms: C_1  and  C_2
REMARK    2  A    between atoms: C_5  and  C_6
REMARK    3  A    between atoms: C_8  and  C_10
REMARK    4  A    between atoms: C_10  and  O_11
REMARK    5  A    between atoms: O_11  and  C_12
REMARK    6  A    between atoms: C_23  and  C_24
REMARK    7  A    between atoms: C_31  and  C_32
REMARK    8  A    between atoms: C_31  and  C_33
REMARK                            x       y       z     vdW  Elec       q    Type
REMARK                         _______ _______ _______ _____ _____    ______ ____
ROOT
ATOM      1  C   UNL     1      -2.245  13.174  21.239  0.00  0.00    +0.000 C 
ATOM      2  N   UNL     1      -1.531  11.918  20.899  0.00  0.00    +0.000 N 
ATOM      3  C   UNL     1      -1.183  10.919  21.800  0.00  0.00    +0.000 C 
ATOM      4  O   UNL     1      -1.353  10.973  23.023  0.00  0.00    +0.000 OA
ATOM      5  N   UNL     1      -0.450  12.268  20.196  0.00  0.00    +0.000 NA
ATOM      6  C   UNL     1      -0.056  13.459  20.549  0.00  0.00    +0.000 C 
ATOM      7  C   UNL     1      -1.097  14.329  21.491  0.00  0.00    +0.000 C 
ATOM      8  C   UNL     1      -0.827  15.600  20.442  0.00  0.00    +0.000 C 
ATOM      9  C   UNL     1      -2.019  15.319  22.247  0.00  0.00    +0.000 C 
ENDROOT
BRANCH   1  14
ATOM     10  C   UNL     1      -7.228  13.298  24.297  0.00  0.00    +0.000 C 
ATOM     11  C   UNL     1      -5.951  12.994  23.568  0.00  0.00    +0.000 A 
ATOM     12  C   UNL     1      -4.722  13.019  24.233  0.00  0.00    +0.000 A 
ATOM     13  C   UNL     1      -3.516  12.944  23.520  0.00  0.00    +0.000 A 
ATOM     14  C   UNL     1      -3.502  12.918  22.113  0.00  0.00    +0.000 A 
ATOM     15  C   UNL     1      -4.741  12.732  21.474  0.00  0.00    +0.000 A 
ATOM     16  C   UNL     1      -5.948  12.782  22.187  0.00  0.00    +0.000 A 
ENDBRANCH   1  14
BRANCH   6  17
ATOM     17  C   UNL     1       1.298  13.801  19.972  0.00  0.00    +0.000 A 
ATOM     18  C   UNL     1       1.494  13.549  18.589  0.00  0.00    +0.000 A 
ATOM     19  C   UNL     1       2.716  13.813  17.964  0.00  0.00    +0.000 A 
ATOM     20  C   UNL     1       3.760  14.331  18.717  0.00  0.00    +0.000 A 
ATOM     21 CL   UNL     1       5.251  14.726  17.950  0.00  0.00    +0.000 Cl
ATOM     22  C   UNL     1       3.601  14.535  20.089  0.00  0.00    +0.000 A 
ATOM     23  C   UNL     1       2.380  14.233  20.724  0.00  0.00    +0.000 A 
ENDBRANCH   6  17
BRANCH   3  24
ATOM     24  C   UNL     1      -0.577   9.656  21.129  0.00  0.00    +0.000 C 
BRANCH  24  25
ATOM     25  O   UNL     1       0.824   9.377  21.208  0.00  0.00    +0.000 OA
BRANCH  25  26
ATOM     26  C   UNL     1       1.398   8.956  20.007  0.00  0.00    +0.000 A 
ATOM     27  C   UNL     1       1.537   9.840  18.919  0.00  0.00    +0.000 A 
ATOM     28  C   UNL     1       2.149   9.441  17.737  0.00  0.00    +0.000 A 
ATOM     29  C   UNL     1       2.614   8.143  17.614  0.00  0.00    +0.000 A 
ATOM     30  C   UNL     1       2.437   7.239  18.663  0.00  0.00    +0.000 A 
ATOM     31  C   UNL     1       2.894   5.919  18.486  0.00  0.00    +0.000 A 
ATOM     32  C   UNL     1       2.707   4.991  19.489  0.00  0.00    +0.000 A 
ATOM     33  C   UNL     1       2.070   5.406  20.640  0.00  0.00    +0.000 A 
ATOM     34  N   UNL     1       1.640   6.674  20.856  0.00  0.00    +0.000 NA
ATOM     35  C   UNL     1       1.810   7.604  19.880  0.00  0.00    +0.000 A 
ENDBRANCH  25  26
ENDBRANCH  24  25
ENDBRANCH   3  24
TORSDOF 5
ENDMDL
MODEL 3
REMARK VINA RESULT:      -8.0      0.862      1.350
REMARK  Name = 
REMARK  8 active torsions:
REMARK  status: ('A' for Active; 'I' for Inactive)
REMARK    1  A    between atoms: C_1  and  C_2
REMARK    2  A    between atoms: C_5  and  C_6
REMARK    3  A    between atoms: C_8  and  C_10
REMARK    4  A    between atoms: C_10  and  O_11
REMARK    5  A    between atoms: O_11  and  C_12
REMARK    6  A    between atoms: C_23  and  C_24
REMARK    7  A    between atoms: C_31  and  C_32
REMARK    8  A    between atoms: C_31  and  C_33
REMARK                            x       y       z     vdW  Elec       q    Type
REMARK                         _______ _______ _______ _____ _____    ______ ____
ROOT
ATOM      1  C   UNL     1      -0.880  13.138  19.456  0.00  0.00    +0.000 C 
ATOM      2  N   UNL     1      -0.000  11.993  19.113  0.00  0.00    +0.000 N 
ATOM      3  C   UNL     1       0.207  10.870  19.905  0.00  0.00    +0.000 C 
ATOM      4  O   UNL     1      -0.253  10.705  21.041  0.00  0.00    +0.000 OA
ATOM      5  N   UNL     1       1.183  12.507  18.765  0.00  0.00    +0.000 NA
ATOM      6  C   UNL     1       1.378  13.636  19.387  0.00  0.00    +0.000 C 
ATOM      7  C   UNL     1       0.072  14.282  20.163  0.00  0.00    +0.000 C 
ATOM      8  C   UNL     1       0.474  15.726  19.426  0.00  0.00    +0.000 C 
ATOM      9  C   UNL     1      -1.085  15.086  20.810  0.00  0.00    +0.000 C 
ENDROOT
BRANCH   1  14
ATOM     10  C   UNL     1      -6.513  12.408  20.844  0.00  0.00    +0.000 C 
ATOM     11  C   UNL     1      -5.038  12.333  20.573  0.00  0.00    +0.000 A 
ATOM     12  C   UNL     1      -4.109  12.652  21.567  0.00  0.00    +0.000 A 
ATOM     13  C   UNL     1      -2.747  12.786  21.263  0.00  0.00    +0.000 A 
ATOM     14  C   UNL     1      -2.282  12.680  19.938  0.00  0.00    +0.000 A 
ATOM     15  C   UNL     1      -3.200  12.203  18.985  0.00  0.00    +0.000 A 
ATOM     16  C   UNL     1      -4.559  12.044  19.293  0.00  0.00    +0.000 A 
ENDBRANCH   1  14
BRANCH   6  17
ATOM     17  C   UNL     1       2.796  14.132  19.226  0.00  0.00    +0.000 A 
ATOM     18  C   UNL     1       3.523  14.408  20.415  0.00  0.00    +0.000 A 
ATOM     19  C   UNL     1       4.835  14.888  20.373  0.00  0.00    +0.000 A 
ATOM     20  C   UNL     1       5.436  15.102  19.141  0.00  0.00    +0.000 A 
ATOM     21 CL   UNL     1       7.074  15.629  19.071  0.00  0.00    +0.000 Cl
ATOM     22  C   UNL     1       4.717  14.887  17.963  0.00  0.00    +0.000 A 
ATOM     23  C   UNL     1       3.382  14.438  18.008  0.00  0.00    +0.000 A 
ENDBRANCH   6  17
BRANCH   3  24
ATOM     24  C   UNL     1       1.062   9.770  19.218  0.00  0.00    +0.000 C 
BRANCH  24  25
ATOM     25  O   UNL     1       1.403   8.562  19.904  0.00  0.00    +0.000 OA
BRANCH  25  26
ATOM     26  C   UNL     1       2.219   7.695  19.176  0.00  0.00    +0.000 A 
ATOM     27  C   UNL     1       2.861   8.120  17.995  0.00  0.00    +0.000 A 
ATOM     28  C   UNL     1       3.711   7.277  17.291  0.00  0.00    +0.000 A 
ATOM     29  C   UNL     1       3.917   5.985  17.741  0.00  0.00    +0.000 A 
ATOM     30  C   UNL     1       3.250   5.531  18.880  0.00  0.00    +0.000 A 
ATOM     31  C   UNL     1       3.462   4.200  19.287  0.00  0.00    +0.000 A 
ATOM     32  C   UNL     1       2.793   3.708  20.389  0.00  0.00    +0.000 A 
ATOM     33  C   UNL     1       1.933   4.557  21.053  0.00  0.00    +0.000 A 
ATOM     34  N   UNL     1       1.723   5.852  20.705  0.00  0.00    +0.000 NA
ATOM     35  C   UNL     1       2.368   6.356  19.621  0.00  0.00    +0.000 A 
ENDBRANCH  25  26
ENDBRANCH  24  25
ENDBRANCH   3  24
TORSDOF 5
ENDMDL
MODEL 4
REMARK VINA RESULT:      -8.0      1.780      2.267
REMARK  Name = 
REMARK  8 active torsions:
REMARK  status: ('A' for Active; 'I' for Inactive)
REMARK    1  A    between atoms: C_1  and  C_2
REMARK    2  A    between atoms: C_5  and  C_6
REMARK    3  A    between atoms: C_8  and  C_10
REMARK    4  A    between atoms: C_10  and  O_11
REMARK    5  A    between atoms: O_11  and  C_12
REMARK    6  A    between atoms: C_23  and  C_24
REMARK    7  A    between atoms: C_31  and  C_32
REMARK    8  A    between atoms: C_31  and  C_33
REMARK                            x       y       z     vdW  Elec       q    Type
REMARK                         _______ _______ _______ _____ _____    ______ ____
ROOT
ATOM      1  C   UNL     1      -0.559  13.464  20.822  0.00  0.00    +0.000 C 
ATOM      2  N   UNL     1       0.141  12.326  20.176  0.00  0.00    +0.000 N 
ATOM      3  C   UNL     1       0.455  11.119  20.790  0.00  0.00    +0.000 C 
ATOM      4  O   UNL     1       0.264  10.856  21.983  0.00  0.00    +0.000 OA
ATOM      5  N   UNL     1       1.240  12.824  19.603  0.00  0.00    +0.000 NA
ATOM      6  C   UNL     1       1.647  13.874  20.260  0.00  0.00    +0.000 C 
ATOM      7  C   UNL     1       0.604  14.489  21.382  0.00  0.00    +0.000 C 
ATOM      8  C   UNL     1       0.914  15.984  20.705  0.00  0.00    +0.000 C 
ATOM      9  C   UNL     1      -0.316  15.268  22.358  0.00  0.00    +0.000 C 
ENDROOT
BRANCH   1  14
ATOM     10  C   UNL     1      -5.642  12.881  23.654  0.00  0.00    +0.000 C 
ATOM     11  C   UNL     1      -4.333  12.753  22.930  0.00  0.00    +0.000 A 
ATOM     12  C   UNL     1      -3.128  12.679  23.635  0.00  0.00    +0.000 A 
ATOM     13  C   UNL     1      -1.897  12.770  22.967  0.00  0.00    +0.000 A 
ATOM     14  C   UNL     1      -1.835  13.016  21.582  0.00  0.00    +0.000 A 
ATOM     15  C   UNL     1      -3.047  12.926  20.873  0.00  0.00    +0.000 A 
ATOM     16  C   UNL     1      -4.277  12.810  21.535  0.00  0.00    +0.000 A 
ENDBRANCH   1  14
BRANCH   6  17
ATOM     17  C   UNL     1       3.017  14.326  19.811  0.00  0.00    +0.000 A 
ATOM     18  C   UNL     1       3.229  14.456  18.413  0.00  0.00    +0.000 A 
ATOM     19  C   UNL     1       4.466  14.850  17.895  0.00  0.00    +0.000 A 
ATOM     20  C   UNL     1       5.509  15.116  18.770  0.00  0.00    +0.000 A 
ATOM     21 CL   UNL     1       7.020  15.667  18.153  0.00  0.00    +0.000 Cl
ATOM     22  C   UNL     1       5.334  14.941  20.144  0.00  0.00    +0.000 A 
ATOM     23  C   UNL     1       4.096  14.508  20.662  0.00  0.00    +0.000 A 
ENDBRANCH   6  17
BRANCH   3  24
ATOM     24  C   UNL     1       1.053  10.062  19.822  0.00  0.00    +0.000 C 
BRANCH  24  25
ATOM     25  O   UNL     1       1.204   8.696  20.218  0.00  0.00    +0.000 OA
BRANCH  25  26
ATOM     26  C   UNL     1       2.013   7.935  19.373  0.00  0.00    +0.000 A 
ATOM     27  C   UNL     1       2.546   8.483  18.189  0.00  0.00    +0.000 A 
ATOM     28  C   UNL     1       3.389   7.746  17.367  0.00  0.00    +0.000 A 
ATOM     29  C   UNL     1       3.698   6.440  17.702  0.00  0.00    +0.000 A 
ATOM     30  C   UNL     1       3.137   5.864  18.844  0.00  0.00    +0.000 A 
ATOM     31  C   UNL     1       3.450   4.522  19.132  0.00  0.00    +0.000 A 
ATOM     32  C   UNL     1       2.887   3.911  20.234  0.00  0.00    +0.000 A 
ATOM     33  C   UNL     1       2.031   4.657  21.017  0.00  0.00    +0.000 A 
ATOM     34  N   UNL     1       1.727   5.958  20.784  0.00  0.00    +0.000 NA
ATOM     35  C   UNL     1       2.266   6.579  19.703  0.00  0.00    +0.000 A 
ENDBRANCH  25  26
ENDBRANCH  24  25
ENDBRANCH   3  24
TORSDOF 5
ENDMDL
MODEL 5
REMARK VINA RESULT:      -7.8      0.884      1.785
REMARK  Name = 
REMARK  8 active torsions:
REMARK  status: ('A' for Active; 'I' for Inactive)
REMARK    1  A    between atoms: C_1  and  C_2
REMARK    2  A    between atoms: C_5  and  C_6
REMARK    3  A    between atoms: C_8  and  C_10
REMARK    4  A    between atoms: C_10  and  O_11
REMARK    5  A    between atoms: O_11  and  C_12
REMARK    6  A    between atoms: C_23  and  C_24
REMARK    7  A    between atoms: C_31  and  C_32
REMARK    8  A    between atoms: C_31  and  C_33
REMARK                            x       y       z     vdW  Elec       q    Type
REMARK                         _______ _______ _______ _____ _____    ______ ____
ROOT
ATOM      1  C   UNL     1      -0.997  12.593  18.678  0.00  0.00    +0.000 C 
ATOM      2  N   UNL     1       0.023  11.524  18.543  0.00  0.00    +0.000 N 
ATOM      3  C   UNL     1       0.099  10.378  19.326  0.00  0.00    +0.000 C 
ATOM      4  O   UNL     1      -0.627  10.128  20.295  0.00  0.00    +0.000 OA
ATOM      5  N   UNL     1       1.215  12.127  18.535  0.00  0.00    +0.000 NA
ATOM      6  C   UNL     1       1.158  13.234  19.220  0.00  0.00    +0.000 C 
ATOM      7  C   UNL     1      -0.348  13.759  19.646  0.00  0.00    +0.000 C 
ATOM      8  C   UNL     1       0.124  15.259  19.086  0.00  0.00    +0.000 C 
ATOM      9  C   UNL     1      -1.690  14.455  19.991  0.00  0.00    +0.000 C 
ENDROOT
BRANCH   1  14
ATOM     10  C   UNL     1      -6.671  11.255  18.217  0.00  0.00    +0.000 C 
ATOM     11  C   UNL     1      -5.200  11.371  18.493  0.00  0.00    +0.000 A 
ATOM     12  C   UNL     1      -4.732  12.052  19.619  0.00  0.00    +0.000 A 
ATOM     13  C   UNL     1      -3.367  12.342  19.770  0.00  0.00    +0.000 A 
ATOM     14  C   UNL     1      -2.439  12.025  18.760  0.00  0.00    +0.000 A 
ATOM     15  C   UNL     1      -2.901  11.203  17.717  0.00  0.00    +0.000 A 
ATOM     16  C   UNL     1      -4.260  10.890  17.576  0.00  0.00    +0.000 A 
ENDBRANCH   1  14
BRANCH   6  17
ATOM     17  C   UNL     1       2.529  13.825  19.454  0.00  0.00    +0.000 A 
ATOM     18  C   UNL     1       3.316  14.107  18.306  0.00  0.00    +0.000 A 
ATOM     19  C   UNL     1       4.604  14.638  18.416  0.00  0.00    +0.000 A 
ATOM     20  C   UNL     1       5.123  14.891  19.677  0.00  0.00    +0.000 A 
ATOM     21 CL   UNL     1       6.682  15.607  19.830  0.00  0.00    +0.000 Cl
ATOM     22  C   UNL     1       4.384  14.570  20.818  0.00  0.00    +0.000 A 
ATOM     23  C   UNL     1       3.100  14.001  20.705  0.00  0.00    +0.000 A 
ENDBRANCH   6  17
BRANCH   3  24
ATOM     24  C   UNL     1       1.181   9.369  18.854  0.00  0.00    +0.000 C 
BRANCH  24  25
ATOM     25  O   UNL     1       2.085   8.765  19.784  0.00  0.00    +0.000 OA
BRANCH  25  26
ATOM     26  C   UNL     1       2.138   7.372  19.716  0.00  0.00    +0.000 A 
ATOM     27  C   UNL     1       1.437   6.572  20.641  0.00  0.00    +0.000 A 
ATOM     28  C   UNL     1       1.447   5.186  20.552  0.00  0.00    +0.000 A 
ATOM     29  C   UNL     1       2.178   4.572  19.550  0.00  0.00    +0.000 A 
ATOM     30  C   UNL     1       2.920   5.347  18.657  0.00  0.00    +0.000 A 
ATOM     31  C   UNL     1       3.676   4.683  17.672  0.00  0.00    +0.000 A 
ATOM     32  C   UNL     1       4.448   5.416  16.794  0.00  0.00    +0.000 A 
ATOM     33  C   UNL     1       4.442   6.790  16.923  0.00  0.00    +0.000 A 
ATOM     34  N   UNL     1       3.707   7.464  17.842  0.00  0.00    +0.000 NA
ATOM     35  C   UNL     1       2.943   6.762  18.720  0.00  0.00    +0.000 A 
ENDBRANCH  25  26
ENDBRANCH  24  25
ENDBRANCH   3  24
TORSDOF 5
ENDMDL
MODEL 6
REMARK VINA RESULT:      -7.8      3.235      7.474
REMARK  Name = 
REMARK  8 active torsions:
REMARK  status: ('A' for Active; 'I' for Inactive)
REMARK    1  A    between atoms: C_1  and  C_2
REMARK    2  A    between atoms: C_5  and  C_6
REMARK    3  A    between atoms: C_8  and  C_10
REMARK    4  A    between atoms: C_10  and  O_11
REMARK    5  A    between atoms: O_11  and  C_12
REMARK    6  A    between atoms: C_23  and  C_24
REMARK    7  A    between atoms: C_31  and  C_32
REMARK    8  A    between atoms: C_31  and  C_33
REMARK                            x       y       z     vdW  Elec       q    Type
REMARK                         _______ _______ _______ _____ _____    ______ ____
ROOT
ATOM      1  C   UNL     1      -0.148  11.471  21.925  0.00  0.00    +0.000 C 
ATOM      2  N   UNL     1      -0.040  11.877  20.502  0.00  0.00    +0.000 N 
ATOM      3  C   UNL     1      -1.111  12.097  19.644  0.00  0.00    +0.000 C 
ATOM      4  O   UNL     1      -2.300  11.911  19.926  0.00  0.00    +0.000 OA
ATOM      5  N   UNL     1       0.816  11.030  19.923  0.00  0.00    +0.000 NA
ATOM      6  C   UNL     1       0.779   9.877  20.530  0.00  0.00    +0.000 C 
ATOM      7  C   UNL     1      -0.028   9.828  21.969  0.00  0.00    +0.000 C 
ATOM      8  C   UNL     1       1.302   9.020  22.575  0.00  0.00    +0.000 C 
ATOM      9  C   UNL     1      -0.617   9.655  23.393  0.00  0.00    +0.000 C 
ENDROOT
BRANCH   1  14
ATOM     10  C   UNL     1      -4.526  14.814  23.890  0.00  0.00    +0.000 C 
ATOM     11  C   UNL     1      -3.326  13.943  23.652  0.00  0.00    +0.000 A 
ATOM     12  C   UNL     1      -2.065  14.502  23.429  0.00  0.00    +0.000 A 
ATOM     13  C   UNL     1      -0.991  13.708  23.002  0.00  0.00    +0.000 A 
ATOM     14  C   UNL     1      -1.164  12.342  22.711  0.00  0.00    +0.000 A 
ATOM     15  C   UNL     1      -2.390  11.768  23.094  0.00  0.00    +0.000 A 
ATOM     16  C   UNL     1      -3.459  12.556  23.545  0.00  0.00    +0.000 A 
ENDBRANCH   1  14
BRANCH   6  17
ATOM     17  C   UNL     1       1.536   8.814  19.768  0.00  0.00    +0.000 A 
ATOM     18  C   UNL     1       1.893   9.110  18.426  0.00  0.00    +0.000 A 
ATOM     19  C   UNL     1       2.578   8.186  17.632  0.00  0.00    +0.000 A 
ATOM     20  C   UNL     1       2.912   6.952  18.169  0.00  0.00    +0.000 A 
ATOM     21 CL   UNL     1       3.814   5.827  17.227  0.00  0.00    +0.000 Cl
ATOM     22  C   UNL     1       2.522   6.624  19.469  0.00  0.00    +0.000 A 
ATOM     23  C   UNL     1       1.799   7.543  20.256  0.00  0.00    +0.000 A 
ENDBRANCH   6  17
BRANCH   3  24
ATOM     24  C   UNL     1      -0.695  12.657  18.256  0.00  0.00    +0.000 C 
BRANCH  24  25
ATOM     25  O   UNL     1      -0.396  14.044  18.077  0.00  0.00    +0.000 OA
BRANCH  25  26
ATOM     26  C   UNL     1       0.790  14.463  18.681  0.00  0.00    +0.000 A 
ATOM     27  C   UNL     1       2.030  13.902  18.315  0.00  0.00    +0.000 A 
ATOM     28  C   UNL     1       3.220  14.346  18.878  0.00  0.00    +0.000 A 
ATOM     29  C   UNL     1       3.190  15.344  19.835  0.00  0.00    +0.000 A 
ATOM     30  C   UNL     1       1.966  15.876  20.248  0.00  0.00    +0.000 A 
ATOM     31  C   UNL     1       1.977  16.867  21.247  0.00  0.00    +0.000 A 
ATOM     32  C   UNL     1       0.784  17.390  21.702  0.00  0.00    +0.000 A 
ATOM     33  C   UNL     1      -0.384  16.911  21.147  0.00  0.00    +0.000 A 
ATOM     34  N   UNL     1      -0.431  15.975  20.165  0.00  0.00    +0.000 NA
ATOM     35  C   UNL     1       0.731  15.443  19.705  0.00  0.00    +0.000 A 
ENDBRANCH  25  26
ENDBRANCH  24  25
ENDBRANCH   3  24
TORSDOF 5
ENDMDL
MODEL 7
REMARK VINA RESULT:      -7.8      1.249      1.980
REMARK  Name = 
REMARK  8 active torsions:
REMARK  status: ('A' for Active; 'I' for Inactive)
REMARK    1  A    between atoms: C_1  and  C_2
REMARK    2  A    between atoms: C_5  and  C_6
REMARK    3  A    between atoms: C_8  and  C_10
REMARK    4  A    between atoms: C_10  and  O_11
REMARK    5  A    between atoms: O_11  and  C_12
REMARK    6  A    between atoms: C_23  and  C_24
REMARK    7  A    between atoms: C_31  and  C_32
REMARK    8  A    between atoms: C_31  and  C_33
REMARK                            x       y       z     vdW  Elec       q    Type
REMARK                         _______ _______ _______ _____ _____    ______ ____
ROOT
ATOM      1  C   UNL     1      -0.058  12.834  18.388  0.00  0.00    +0.000 C 
ATOM      2  N   UNL     1       1.027  11.839  18.210  0.00  0.00    +0.000 N 
ATOM      3  C   UNL     1       1.167  10.660  18.933  0.00  0.00    +0.000 C 
ATOM      4  O   UNL     1       0.449  10.315  19.879  0.00  0.00    +0.000 OA
ATOM      5  N   UNL     1       2.179  12.514  18.248  0.00  0.00    +0.000 NA
ATOM      6  C   UNL     1       2.047  13.578  18.990  0.00  0.00    +0.000 C 
ATOM      7  C   UNL     1       0.507  13.985  19.424  0.00  0.00    +0.000 C 
ATOM      8  C   UNL     1       0.890  15.539  18.949  0.00  0.00    +0.000 C 
ATOM      9  C   UNL     1      -0.878  14.578  19.787  0.00  0.00    +0.000 C 
ENDROOT
BRANCH   1  14
ATOM     10  C   UNL     1      -5.668  11.253  17.902  0.00  0.00    +0.000 C 
ATOM     11  C   UNL     1      -4.194  11.409  18.142  0.00  0.00    +0.000 A 
ATOM     12  C   UNL     1      -3.714  11.920  19.351  0.00  0.00    +0.000 A 
ATOM     13  C   UNL     1      -2.362  12.262  19.502  0.00  0.00    +0.000 A 
ATOM     14  C   UNL     1      -1.463  12.175  18.422  0.00  0.00    +0.000 A 
ATOM     15  C   UNL     1      -1.925  11.511  17.271  0.00  0.00    +0.000 A 
ATOM     16  C   UNL     1      -3.271  11.146  17.127  0.00  0.00    +0.000 A 
ENDBRANCH   1  14
BRANCH   6  17
ATOM     17  C   UNL     1       3.376  14.240  19.271  0.00  0.00    +0.000 A 
ATOM     18  C   UNL     1       4.222  14.490  18.159  0.00  0.00    +0.000 A 
ATOM     19  C   UNL     1       5.479  15.081  18.316  0.00  0.00    +0.000 A 
ATOM     20  C   UNL     1       5.907  15.426  19.589  0.00  0.00    +0.000 A 
ATOM     21 CL   UNL     1       7.424  16.216  19.794  0.00  0.00    +0.000 Cl
ATOM     22  C   UNL     1       5.111  15.138  20.699  0.00  0.00    +0.000 A 
ATOM     23  C   UNL     1       3.860  14.509  20.542  0.00  0.00    +0.000 A 
ENDBRANCH   6  17
BRANCH   3  24
ATOM     24  C   UNL     1       2.314   9.747  18.423  0.00  0.00    +0.000 C 
BRANCH  24  25
ATOM     25  O   UNL     1       2.037   8.508  17.764  0.00  0.00    +0.000 OA
BRANCH  25  26
ATOM     26  C   UNL     1       2.497   7.377  18.440  0.00  0.00    +0.000 A 
ATOM     27  C   UNL     1       1.934   6.988  19.672  0.00  0.00    +0.000 A 
ATOM     28  C   UNL     1       2.355   5.838  20.328  0.00  0.00    +0.000 A 
ATOM     29  C   UNL     1       3.362   5.067  19.774  0.00  0.00    +0.000 A 
ATOM     30  C   UNL     1       3.967   5.466  18.580  0.00  0.00    +0.000 A 
ATOM     31  C   UNL     1       5.010   4.672  18.067  0.00  0.00    +0.000 A 
ATOM     32  C   UNL     1       5.651   5.054  16.907  0.00  0.00    +0.000 A 
ATOM     33  C   UNL     1       5.233   6.215  16.292  0.00  0.00    +0.000 A 
ATOM     34  N   UNL     1       4.216   6.991  16.743  0.00  0.00    +0.000 NA
ATOM     35  C   UNL     1       3.573   6.636  17.886  0.00  0.00    +0.000 A 
ENDBRANCH  25  26
ENDBRANCH  24  25
ENDBRANCH   3  24
TORSDOF 5
ENDMDL
MODEL 8
REMARK VINA RESULT:      -7.7      3.219      7.468
REMARK  Name = 
REMARK  8 active torsions:
REMARK  status: ('A' for Active; 'I' for Inactive)
REMARK    1  A    between atoms: C_1  and  C_2
REMARK    2  A    between atoms: C_5  and  C_6
REMARK    3  A    between atoms: C_8  and  C_10
REMARK    4  A    between atoms: C_10  and  O_11
REMARK    5  A    between atoms: O_11  and  C_12
REMARK    6  A    between atoms: C_23  and  C_24
REMARK    7  A    between atoms: C_31  and  C_32
REMARK    8  A    between atoms: C_31  and  C_33
REMARK                            x       y       z     vdW  Elec       q    Type
REMARK                         _______ _______ _______ _____ _____    ______ ____
ROOT
ATOM      1  C   UNL     1      -0.110  11.509  21.950  0.00  0.00    +0.000 C 
ATOM      2  N   UNL     1       0.078  11.955  20.547  0.00  0.00    +0.000 N 
ATOM      3  C   UNL     1      -0.943  12.251  19.651  0.00  0.00    +0.000 C 
ATOM      4  O   UNL     1      -2.151  12.109  19.876  0.00  0.00    +0.000 OA
ATOM      5  N   UNL     1       0.921  11.090  19.977  0.00  0.00    +0.000 NA
ATOM      6  C   UNL     1       0.808   9.921  20.542  0.00  0.00    +0.000 C 
ATOM      7  C   UNL     1      -0.064   9.862  21.942  0.00  0.00    +0.000 C 
ATOM      8  C   UNL     1       1.201   8.976  22.576  0.00  0.00    +0.000 C 
ATOM      9  C   UNL     1      -0.723   9.670  23.333  0.00  0.00    +0.000 C 
ENDROOT
BRANCH   1  14
ATOM     10  C   UNL     1      -4.469  14.909  23.857  0.00  0.00    +0.000 C 
ATOM     11  C   UNL     1      -3.275  14.027  23.634  0.00  0.00    +0.000 A 
ATOM     12  C   UNL     1      -2.011  14.576  23.402  0.00  0.00    +0.000 A 
ATOM     13  C   UNL     1      -0.940  13.769  22.988  0.00  0.00    +0.000 A 
ATOM     14  C   UNL     1      -1.122  12.399  22.720  0.00  0.00    +0.000 A 
ATOM     15  C   UNL     1      -2.351  11.838  23.112  0.00  0.00    +0.000 A 
ATOM     16  C   UNL     1      -3.415  12.639  23.550  0.00  0.00    +0.000 A 
ENDBRANCH   1  14
BRANCH   6  17
ATOM     17  C   UNL     1       1.551   8.849  19.777  0.00  0.00    +0.000 A 
ATOM     18  C   UNL     1       1.868   9.125  18.421  0.00  0.00    +0.000 A 
ATOM     19  C   UNL     1       2.537   8.192  17.624  0.00  0.00    +0.000 A 
ATOM     20  C   UNL     1       2.894   6.970  18.172  0.00  0.00    +0.000 A 
ATOM     21 CL   UNL     1       3.778   5.835  17.224  0.00  0.00    +0.000 Cl
ATOM     22  C   UNL     1       2.543   6.661  19.488  0.00  0.00    +0.000 A 
ATOM     23  C   UNL     1       1.836   7.589  20.279  0.00  0.00    +0.000 A 
ENDBRANCH   6  17
BRANCH   3  24
ATOM     24  C   UNL     1      -0.442  12.836  18.303  0.00  0.00    +0.000 C 
BRANCH  24  25
ATOM     25  O   UNL     1       0.632  13.780  18.260  0.00  0.00    +0.000 OA
BRANCH  25  26
ATOM     26  C   UNL     1       0.516  14.829  19.173  0.00  0.00    +0.000 A 
ATOM     27  C   UNL     1      -0.550  15.748  19.094  0.00  0.00    +0.000 A 
ATOM     28  C   UNL     1      -0.697  16.766  20.027  0.00  0.00    +0.000 A 
ATOM     29  C   UNL     1       0.232  16.900  21.043  0.00  0.00    +0.000 A 
ATOM     30  C   UNL     1       1.323  16.031  21.106  0.00  0.00    +0.000 A 
ATOM     31  C   UNL     1       2.264  16.220  22.137  0.00  0.00    +0.000 A 
ATOM     32  C   UNL     1       3.371  15.401  22.209  0.00  0.00    +0.000 A 
ATOM     33  C   UNL     1       3.508  14.416  21.253  0.00  0.00    +0.000 A 
ATOM     34  N   UNL     1       2.610  14.188  20.263  0.00  0.00    +0.000 NA
ATOM     35  C   UNL     1       1.514  14.986  20.169  0.00  0.00    +0.000 A 
ENDBRANCH  25  26
ENDBRANCH  24  25
ENDBRANCH   3  24
TORSDOF 5
ENDMDL
MODEL 9
REMARK VINA RESULT:      -7.7      4.204      6.878
REMARK  Name = 
REMARK  8 active torsions:
REMARK  status: ('A' for Active; 'I' for Inactive)
REMARK    1  A    between atoms: C_1  and  C_2
REMARK    2  A    between atoms: C_5  and  C_6
REMARK    3  A    between atoms: C_8  and  C_10
REMARK    4  A    between atoms: C_10  and  O_11
REMARK    5  A    between atoms: O_11  and  C_12
REMARK    6  A    between atoms: C_23  and  C_24
REMARK    7  A    between atoms: C_31  and  C_32
REMARK    8  A    between atoms: C_31  and  C_33
REMARK                            x       y       z     vdW  Elec       q    Type
REMARK                         _______ _______ _______ _____ _____    ______ ____
ROOT
ATOM      1  C   UNL     1      -4.102  13.305  21.606  0.00  0.00    +0.000 C 
ATOM      2  N   UNL     1      -2.695  13.466  21.164  0.00  0.00    +0.000 N 
ATOM      3  C   UNL     1      -2.081  14.673  20.852  0.00  0.00    +0.000 C 
ATOM      4  O   UNL     1      -2.645  15.774  20.825  0.00  0.00    +0.000 OA
ATOM      5  N   UNL     1      -2.507  12.608  20.157  0.00  0.00    +0.000 NA
ATOM      6  C   UNL     1      -3.631  12.407  19.528  0.00  0.00    +0.000 C 
ATOM      7  C   UNL     1      -4.996  12.975  20.262  0.00  0.00    +0.000 C 
ATOM      8  C   UNL     1      -5.667  11.478  19.950  0.00  0.00    +0.000 C 
ATOM      9  C   UNL     1      -6.373  13.316  20.888  0.00  0.00    +0.000 C 
ENDROOT
BRANCH   1  14
ATOM     10  C   UNL     1      -4.865  17.759  25.319  0.00  0.00    +0.000 C 
ATOM     11  C   UNL     1      -4.862  16.488  24.519  0.00  0.00    +0.000 A 
ATOM     12  C   UNL     1      -4.028  15.422  24.868  0.00  0.00    +0.000 A 
ATOM     13  C   UNL     1      -3.868  14.323  24.011  0.00  0.00    +0.000 A 
ATOM     14  C   UNL     1      -4.479  14.292  22.743  0.00  0.00    +0.000 A 
ATOM     15  C   UNL     1      -5.434  15.291  22.481  0.00  0.00    +0.000 A 
ATOM     16  C   UNL     1      -5.615  16.378  23.347  0.00  0.00    +0.000 A 
ENDBRANCH   1  14
BRANCH   6  17
ATOM     17  C   UNL     1      -3.428  11.647  18.238  0.00  0.00    +0.000 A 
ATOM     18  C   UNL     1      -4.386  11.850  17.210  0.00  0.00    +0.000 A 
ATOM     19  C   UNL     1      -4.298  11.180  15.987  0.00  0.00    +0.000 A 
ATOM     20  C   UNL     1      -3.251  10.295  15.777  0.00  0.00    +0.000 A 
ATOM     21 CL   UNL     1      -3.088   9.512  14.251  0.00  0.00    +0.000 Cl
ATOM     22  C   UNL     1      -2.330  10.043  16.796  0.00  0.00    +0.000 A 
ATOM     23  C   UNL     1      -2.442  10.692  18.042  0.00  0.00    +0.000 A 
ENDBRANCH   6  17
BRANCH   3  24
ATOM     24  C   UNL     1      -0.561  14.545  20.564  0.00  0.00    +0.000 C 
BRANCH  24  25
ATOM     25  O   UNL     1       0.261  13.647  21.315  0.00  0.00    +0.000 OA
BRANCH  25  26
ATOM     26  C   UNL     1       0.503  12.423  20.688  0.00  0.00    +0.000 A 
ATOM     27  C   UNL     1       0.997  12.368  19.369  0.00  0.00    +0.000 A 
ATOM     28  C   UNL     1       1.284  11.156  18.755  0.00  0.00    +0.000 A 
ATOM     29  C   UNL     1       1.061   9.974  19.440  0.00  0.00    +0.000 A 
ATOM     30  C   UNL     1       0.524  10.009  20.729  0.00  0.00    +0.000 A 
ATOM     31  C   UNL     1       0.282   8.784  21.380  0.00  0.00    +0.000 A 
ATOM     32  C   UNL     1      -0.279   8.780  22.640  0.00  0.00    +0.000 A 
ATOM     33  C   UNL     1      -0.581   9.997  23.215  0.00  0.00    +0.000 A 
ATOM     34  N   UNL     1      -0.339  11.196  22.628  0.00  0.00    +0.000 NA
ATOM     35  C   UNL     1       0.209  11.224  21.386  0.00  0.00    +0.000 A 
ENDBRANCH  25  26
ENDBRANCH  24  25
ENDBRANCH   3  24
TORSDOF 5
ENDMDL
