MODEL 1
REMARK VINA RESULT:      -8.7      0.000      0.000
REMARK  Name = 
REMARK  6 active torsions:
REMARK  status: ('A' for Active; 'I' for Inactive)
REMARK    1  A    between atoms: C_2  and  C_3
REMARK    2  A    between atoms: C_3  and  O_4
REMARK    3  A    between atoms: O_4  and  C_5
REMARK    4  A    between atoms: C_8  and  C_9
REMARK    5  A    between atoms: C_15  and  C_16
REMARK    6  A    between atoms: C_21  and  O_22
REMARK                            x       y       z     vdW  Elec       q    Type
REMARK                         _______ _______ _______ _____ _____    ______ ____
ROOT
ATOM      1  C   UNL     1       4.063   6.204  17.187  0.00  0.00    +0.000 A 
ATOM      2  C   UNL     1       4.918   6.835  16.294  0.00  0.00    +0.000 A 
ATOM      3  N   UNL     1       5.807   6.226  15.483  0.00  0.00    +0.000 NA
ATOM      4  C   UNL     1       5.848   4.901  15.571  0.00  0.00    +0.000 A 
ATOM      5  N   UNL     1       6.792   4.243  14.815  0.00  0.00    +0.000 N 
ATOM      6  N   UNL     1       5.028   4.168  16.319  0.00  0.00    +0.000 NA
ATOM      7  C   UNL     1       4.150   4.800  17.145  0.00  0.00    +0.000 A 
ATOM      8  H   UNL     1       7.031   4.782  13.998  0.00  0.00    +0.000 HD
ATOM      9  H   UNL     1       6.517   3.280  14.689  0.00  0.00    +0.000 HD
ENDROOT
BRANCH   1  13
ATOM     10  C   UNL     1       1.492   8.576  19.716  0.00  0.00    +0.000 A 
ATOM     11  C   UNL     1       1.801   8.998  18.425  0.00  0.00    +0.000 A 
ATOM     12  C   UNL     1       2.618   8.220  17.602  0.00  0.00    +0.000 A 
ATOM     13  C   UNL     1       3.187   7.018  18.061  0.00  0.00    +0.000 A 
ATOM     14  C   UNL     1       2.909   6.647  19.391  0.00  0.00    +0.000 A 
ATOM     15  C   UNL     1       2.051   7.400  20.204  0.00  0.00    +0.000 A 
BRANCH  10  16
ATOM     16  O   UNL     1       0.684   9.412  20.424  0.00  0.00    +0.000 OA
BRANCH  16  17
ATOM     17  C   UNL     1      -0.274   8.805  21.294  0.00  0.00    +0.000 C 
BRANCH  17  19
ATOM     18  N   UNL     1       0.258   9.733  23.862  0.00  0.00    +0.000 NA
ATOM     19  C   UNL     1       0.016   9.313  22.698  0.00  0.00    +0.000 C 
ENDBRANCH  17  19
ENDBRANCH  16  17
ENDBRANCH  10  16
ENDBRANCH   1  13
BRANCH   7  20
ATOM     20  C   UNL     1       3.314   3.856  17.946  0.00  0.00    +0.000 A 
ATOM     21  C   UNL     1       1.929   3.722  17.703  0.00  0.00    +0.000 A 
ATOM     22  C   UNL     1       1.113   2.904  18.494  0.00  0.00    +0.000 A 
ATOM     23  C   UNL     1       1.670   2.134  19.507  0.00  0.00    +0.000 A 
ATOM     24  C   UNL     1       3.041   2.188  19.735  0.00  0.00    +0.000 A 
ATOM     25  C   UNL     1       3.844   3.050  18.976  0.00  0.00    +0.000 A 
BRANCH  25  26
ATOM     26  O   UNL     1       5.174   3.119  19.298  0.00  0.00    +0.000 OA
ATOM     27  H   UNL     1       5.398   2.377  19.882  0.00  0.00    +0.000 HD
ENDBRANCH  25  26
ENDBRANCH   7  20
TORSDOF 6
ENDMDL
MODEL 2
REMARK VINA RESULT:      -8.5      0.538      1.117
REMARK  Name = 
REMARK  6 active torsions:
REMARK  status: ('A' for Active; 'I' for Inactive)
REMARK    1  A    between atoms: C_2  and  C_3
REMARK    2  A    between atoms: C_3  and  O_4
REMARK    3  A    between atoms: O_4  and  C_5
REMARK    4  A    between atoms: C_8  and  C_9
REMARK    5  A    between atoms: C_15  and  C_16
REMARK    6  A    between atoms: C_21  and  O_22
REMARK                            x       y       z     vdW  Elec       q    Type
REMARK                         _______ _______ _______ _____ _____    ______ ____
ROOT
ATOM      1  C   UNL     1       4.258   6.414  17.449  0.00  0.00    +0.000 A 
ATOM      2  C   UNL     1       5.255   7.069  16.738  0.00  0.00    +0.000 A 
ATOM      3  N   UNL     1       6.282   6.481  16.093  0.00  0.00    +0.000 NA
ATOM      4  C   UNL     1       6.321   5.155  16.163  0.00  0.00    +0.000 A 
ATOM      5  N   UNL     1       7.393   4.519  15.580  0.00  0.00    +0.000 N 
ATOM      6  N   UNL     1       5.386   4.402  16.735  0.00  0.00    +0.000 NA
ATOM      7  C   UNL     1       4.365   5.012  17.399  0.00  0.00    +0.000 A 
ATOM      8  H   UNL     1       7.771   5.075  14.829  0.00  0.00    +0.000 HD
ATOM      9  H   UNL     1       7.156   3.556  15.388  0.00  0.00    +0.000 HD
ENDROOT
BRANCH   1  13
ATOM     10  C   UNL     1       1.277   8.720  19.554  0.00  0.00    +0.000 A 
ATOM     11  C   UNL     1       1.874   7.615  20.156  0.00  0.00    +0.000 A 
ATOM     12  C   UNL     1       2.851   6.881  19.480  0.00  0.00    +0.000 A 
ATOM     13  C   UNL     1       3.229   7.205  18.164  0.00  0.00    +0.000 A 
ATOM     14  C   UNL     1       2.565   8.287  17.557  0.00  0.00    +0.000 A 
ATOM     15  C   UNL     1       1.619   9.056  18.249  0.00  0.00    +0.000 A 
BRANCH  10  16
ATOM     16  O   UNL     1       0.342   9.360  20.309  0.00  0.00    +0.000 OA
BRANCH  16  17
ATOM     17  C   UNL     1      -0.033   8.737  21.540  0.00  0.00    +0.000 C 
BRANCH  17  19
ATOM     18  N   UNL     1      -0.573  10.778  23.352  0.00  0.00    +0.000 NA
ATOM     19  C   UNL     1      -0.328   9.853  22.530  0.00  0.00    +0.000 C 
ENDBRANCH  17  19
ENDBRANCH  16  17
ENDBRANCH  10  16
ENDBRANCH   1  13
BRANCH   7  20
ATOM     20  C   UNL     1       3.407   4.047  18.016  0.00  0.00    +0.000 A 
ATOM     21  C   UNL     1       2.045   4.031  17.643  0.00  0.00    +0.000 A 
ATOM     22  C   UNL     1       1.115   3.191  18.267  0.00  0.00    +0.000 A 
ATOM     23  C   UNL     1       1.532   2.283  19.232  0.00  0.00    +0.000 A 
ATOM     24  C   UNL     1       2.877   2.222  19.581  0.00  0.00    +0.000 A 
ATOM     25  C   UNL     1       3.794   3.104  18.992  0.00  0.00    +0.000 A 
BRANCH  25  26
ATOM     26  O   UNL     1       5.091   3.050  19.432  0.00  0.00    +0.000 OA
ATOM     27  H   UNL     1       5.671   2.829  18.685  0.00  0.00    +0.000 HD
ENDBRANCH  25  26
ENDBRANCH   7  20
TORSDOF 6
ENDMDL
MODEL 3
REMARK VINA RESULT:      -8.3      1.109      1.111
REMARK  Name = 
REMARK  6 active torsions:
REMARK  status: ('A' for Active; 'I' for Inactive)
REMARK    1  A    between atoms: C_2  and  C_3
REMARK    2  A    between atoms: C_3  and  O_4
REMARK    3  A    between atoms: O_4  and  C_5
REMARK    4  A    between atoms: C_8  and  C_9
REMARK    5  A    between atoms: C_15  and  C_16
REMARK    6  A    between atoms: C_21  and  O_22
REMARK                            x       y       z     vdW  Elec       q    Type
REMARK                         _______ _______ _______ _____ _____    ______ ____
ROOT
ATOM      1  C   UNL     1       4.047   6.245  17.210  0.00  0.00    +0.000 A 
ATOM      2  C   UNL     1       4.895   6.895  16.324  0.00  0.00    +0.000 A 
ATOM      3  N   UNL     1       5.790   6.305  15.507  0.00  0.00    +0.000 NA
ATOM      4  C   UNL     1       5.848   4.979  15.582  0.00  0.00    +0.000 A 
ATOM      5  N   UNL     1       6.800   4.341  14.820  0.00  0.00    +0.000 N 
ATOM      6  N   UNL     1       5.037   4.230  16.322  0.00  0.00    +0.000 NA
ATOM      7  C   UNL     1       4.151   4.842  17.155  0.00  0.00    +0.000 A 
ATOM      8  H   UNL     1       7.032   4.891  14.007  0.00  0.00    +0.000 HD
ATOM      9  H   UNL     1       6.537   3.375  14.684  0.00  0.00    +0.000 HD
ENDROOT
BRANCH   1  13
ATOM     10  C   UNL     1       1.447   8.560  19.763  0.00  0.00    +0.000 A 
ATOM     11  C   UNL     1       1.752   8.998  18.476  0.00  0.00    +0.000 A 
ATOM     12  C   UNL     1       2.578   8.239  17.645  0.00  0.00    +0.000 A 
ATOM     13  C   UNL     1       3.161   7.039  18.093  0.00  0.00    +0.000 A 
ATOM     14  C   UNL     1       2.887   6.651  19.418  0.00  0.00    +0.000 A 
ATOM     15  C   UNL     1       2.019   7.386  20.238  0.00  0.00    +0.000 A 
BRANCH  10  16
ATOM     16  O   UNL     1       0.629   9.379  20.478  0.00  0.00    +0.000 OA
BRANCH  16  17
ATOM     17  C   UNL     1       0.183  10.574  19.832  0.00  0.00    +0.000 C 
BRANCH  17  19
ATOM     18  N   UNL     1       0.749  12.687  21.552  0.00  0.00    +0.000 NA
ATOM     19  C   UNL     1       0.492  11.729  20.772  0.00  0.00    +0.000 C 
ENDBRANCH  17  19
ENDBRANCH  16  17
ENDBRANCH  10  16
ENDBRANCH   1  13
BRANCH   7  20
ATOM     20  C   UNL     1       3.326   3.880  17.946  0.00  0.00    +0.000 A 
ATOM     21  C   UNL     1       1.943   3.734  17.703  0.00  0.00    +0.000 A 
ATOM     22  C   UNL     1       1.137   2.898  18.486  0.00  0.00    +0.000 A 
ATOM     23  C   UNL     1       1.704   2.123  19.489  0.00  0.00    +0.000 A 
ATOM     24  C   UNL     1       3.075   2.190  19.717  0.00  0.00    +0.000 A 
ATOM     25  C   UNL     1       3.867   3.069  18.966  0.00  0.00    +0.000 A 
BRANCH  25  26
ATOM     26  O   UNL     1       5.197   3.149  19.287  0.00  0.00    +0.000 OA
ATOM     27  H   UNL     1       5.669   3.607  18.573  0.00  0.00    +0.000 HD
ENDBRANCH  25  26
ENDBRANCH   7  20
TORSDOF 6
ENDMDL
MODEL 4
REMARK VINA RESULT:      -8.2      1.222      1.836
REMARK  Name = 
REMARK  6 active torsions:
REMARK  status: ('A' for Active; 'I' for Inactive)
REMARK    1  A    between atoms: C_2  and  C_3
REMARK    2  A    between atoms: C_3  and  O_4
REMARK    3  A    between atoms: O_4  and  C_5
REMARK    4  A    between atoms: C_8  and  C_9
REMARK    5  A    between atoms: C_15  and  C_16
REMARK    6  A    between atoms: C_21  and  O_22
REMARK                            x       y       z     vdW  Elec       q    Type
REMARK                         _______ _______ _______ _____ _____    ______ ____
ROOT
ATOM      1  C   UNL     1       3.799   6.013  17.504  0.00  0.00    +0.000 A 
ATOM      2  C   UNL     1       4.668   6.390  16.489  0.00  0.00    +0.000 A 
ATOM      3  N   UNL     1       5.497   5.570  15.811  0.00  0.00    +0.000 NA
ATOM      4  C   UNL     1       5.460   4.292  16.172  0.00  0.00    +0.000 A 
ATOM      5  N   UNL     1       6.343   3.433  15.558  0.00  0.00    +0.000 N 
ATOM      6  N   UNL     1       4.617   3.784  17.066  0.00  0.00    +0.000 NA
ATOM      7  C   UNL     1       3.800   4.628  17.754  0.00  0.00    +0.000 A 
ATOM      8  H   UNL     1       6.593   3.775  14.643  0.00  0.00    +0.000 HD
ATOM      9  H   UNL     1       6.007   2.484  15.638  0.00  0.00    +0.000 HD
ENDROOT
BRANCH   1  13
ATOM     10  C   UNL     1       1.479   9.019  19.557  0.00  0.00    +0.000 A 
ATOM     11  C   UNL     1       1.867   7.853  20.213  0.00  0.00    +0.000 A 
ATOM     12  C   UNL     1       2.633   6.890  19.552  0.00  0.00    +0.000 A 
ATOM     13  C   UNL     1       2.997   7.044  18.202  0.00  0.00    +0.000 A 
ATOM     14  C   UNL     1       2.538   8.203  17.546  0.00  0.00    +0.000 A 
ATOM     15  C   UNL     1       1.811   9.194  18.219  0.00  0.00    +0.000 A 
BRANCH  10  16
ATOM     16  O   UNL     1       0.740   9.887  20.302  0.00  0.00    +0.000 OA
BRANCH  16  17
ATOM     17  C   UNL     1      -0.358   9.338  21.035  0.00  0.00    +0.000 C 
BRANCH  17  19
ATOM     18  N   UNL     1       0.173   9.766  23.732  0.00  0.00    +0.000 NA
ATOM     19  C   UNL     1      -0.068   9.571  22.510  0.00  0.00    +0.000 C 
ENDBRANCH  17  19
ENDBRANCH  16  17
ENDBRANCH  10  16
ENDBRANCH   1  13
BRANCH   7  20
ATOM     20  C   UNL     1       2.929   3.926  18.744  0.00  0.00    +0.000 A 
ATOM     21  C   UNL     1       3.431   3.525  20.001  0.00  0.00    +0.000 A 
ATOM     22  C   UNL     1       2.655   2.795  20.911  0.00  0.00    +0.000 A 
ATOM     23  C   UNL     1       1.327   2.508  20.622  0.00  0.00    +0.000 A 
ATOM     24  C   UNL     1       0.777   2.943  19.421  0.00  0.00    +0.000 A 
ATOM     25  C   UNL     1       1.573   3.626  18.492  0.00  0.00    +0.000 A 
BRANCH  25  26
ATOM     26  O   UNL     1       0.998   3.960  17.294  0.00  0.00    +0.000 OA
ATOM     27  H   UNL     1       0.305   4.623  17.448  0.00  0.00    +0.000 HD
ENDBRANCH  25  26
ENDBRANCH   7  20
TORSDOF 6
ENDMDL
MODEL 5
REMARK VINA RESULT:      -8.0      1.697      2.171
REMARK  Name = 
REMARK  6 active torsions:
REMARK  status: ('A' for Active; 'I' for Inactive)
REMARK    1  A    between atoms: C_2  and  C_3
REMARK    2  A    between atoms: C_3  and  O_4
REMARK    3  A    between atoms: O_4  and  C_5
REMARK    4  A    between atoms: C_8  and  C_9
REMARK    5  A    between atoms: C_15  and  C_16
REMARK    6  A    between atoms: C_21  and  O_22
REMARK                            x       y       z     vdW  Elec       q    Type
REMARK                         _______ _______ _______ _____ _____    ______ ____
ROOT
ATOM      1  C   UNL     1       3.604   6.505  17.895  0.00  0.00    +0.000 A 
ATOM      2  C   UNL     1       4.561   6.901  16.971  0.00  0.00    +0.000 A 
ATOM      3  N   UNL     1       5.517   6.116  16.434  0.00  0.00    +0.000 NA
ATOM      4  C   UNL     1       5.522   4.854  16.849  0.00  0.00    +0.000 A 
ATOM      5  N   UNL     1       6.526   4.036  16.383  0.00  0.00    +0.000 N 
ATOM      6  N   UNL     1       4.613   4.324  17.662  0.00  0.00    +0.000 NA
ATOM      7  C   UNL     1       3.666   5.134  18.209  0.00  0.00    +0.000 A 
ATOM      8  H   UNL     1       6.860   4.358  15.488  0.00  0.00    +0.000 HD
ATOM      9  H   UNL     1       6.246   3.070  16.469  0.00  0.00    +0.000 HD
ENDROOT
BRANCH   1  13
ATOM     10  C   UNL     1       0.865   9.420  19.518  0.00  0.00    +0.000 A 
ATOM     11  C   UNL     1       1.332   8.370  20.306  0.00  0.00    +0.000 A 
ATOM     12  C   UNL     1       2.232   7.439  19.784  0.00  0.00    +0.000 A 
ATOM     13  C   UNL     1       2.658   7.504  18.445  0.00  0.00    +0.000 A 
ATOM     14  C   UNL     1       2.123   8.537  17.654  0.00  0.00    +0.000 A 
ATOM     15  C   UNL     1       1.257   9.503  18.187  0.00  0.00    +0.000 A 
BRANCH  10  16
ATOM     16  O   UNL     1      -0.004  10.268  20.134  0.00  0.00    +0.000 OA
BRANCH  16  17
ATOM     17  C   UNL     1       0.563  11.292  20.955  0.00  0.00    +0.000 C 
BRANCH  17  19
ATOM     18  N   UNL     1      -1.090  11.563  23.175  0.00  0.00    +0.000 NA
ATOM     19  C   UNL     1      -0.340  11.439  22.169  0.00  0.00    +0.000 C 
ENDBRANCH  17  19
ENDBRANCH  16  17
ENDBRANCH  10  16
ENDBRANCH   1  13
BRANCH   7  20
ATOM     20  C   UNL     1       2.731   4.412  19.124  0.00  0.00    +0.000 A 
ATOM     21  C   UNL     1       2.983   4.334  20.511  0.00  0.00    +0.000 A 
ATOM     22  C   UNL     1       2.163   3.594  21.372  0.00  0.00    +0.000 A 
ATOM     23  C   UNL     1       1.021   2.971  20.885  0.00  0.00    +0.000 A 
ATOM     24  C   UNL     1       0.704   3.079  19.535  0.00  0.00    +0.000 A 
ATOM     25  C   UNL     1       1.557   3.775  18.668  0.00  0.00    +0.000 A 
BRANCH  25  26
ATOM     26  O   UNL     1       1.234   3.781  17.337  0.00  0.00    +0.000 OA
ATOM     27  H   UNL     1       1.586   4.589  16.928  0.00  0.00    +0.000 HD
ENDBRANCH  25  26
ENDBRANCH   7  20
TORSDOF 6
ENDMDL
MODEL 6
REMARK VINA RESULT:      -8.0      1.672      2.016
REMARK  Name = 
REMARK  6 active torsions:
REMARK  status: ('A' for Active; 'I' for Inactive)
REMARK    1  A    between atoms: C_2  and  C_3
REMARK    2  A    between atoms: C_3  and  O_4
REMARK    3  A    between atoms: O_4  and  C_5
REMARK    4  A    between atoms: C_8  and  C_9
REMARK    5  A    between atoms: C_15  and  C_16
REMARK    6  A    between atoms: C_21  and  O_22
REMARK                            x       y       z     vdW  Elec       q    Type
REMARK                         _______ _______ _______ _____ _____    ______ ____
ROOT
ATOM      1  C   UNL     1       4.402   6.401  17.572  0.00  0.00    +0.000 A 
ATOM      2  C   UNL     1       5.461   7.044  16.945  0.00  0.00    +0.000 A 
ATOM      3  N   UNL     1       6.530   6.444  16.383  0.00  0.00    +0.000 NA
ATOM      4  C   UNL     1       6.547   5.118  16.454  0.00  0.00    +0.000 A 
ATOM      5  N   UNL     1       7.655   4.469  15.958  0.00  0.00    +0.000 N 
ATOM      6  N   UNL     1       5.560   4.376  16.948  0.00  0.00    +0.000 NA
ATOM      7  C   UNL     1       4.497   4.998  17.528  0.00  0.00    +0.000 A 
ATOM      8  H   UNL     1       8.099   5.021  15.241  0.00  0.00    +0.000 HD
ATOM      9  H   UNL     1       7.422   3.509  15.747  0.00  0.00    +0.000 HD
ENDROOT
BRANCH   1  13
ATOM     10  C   UNL     1       1.290   8.743  19.433  0.00  0.00    +0.000 A 
ATOM     11  C   UNL     1       1.864   7.666  20.104  0.00  0.00    +0.000 A 
ATOM     12  C   UNL     1       2.883   6.921  19.507  0.00  0.00    +0.000 A 
ATOM     13  C   UNL     1       3.329   7.204  18.203  0.00  0.00    +0.000 A 
ATOM     14  C   UNL     1       2.689   8.258  17.524  0.00  0.00    +0.000 A 
ATOM     15  C   UNL     1       1.699   9.038  18.138  0.00  0.00    +0.000 A 
BRANCH  10  16
ATOM     16  O   UNL     1       0.310   9.398  20.114  0.00  0.00    +0.000 OA
BRANCH  16  17
ATOM     17  C   UNL     1      -0.134  10.644  19.572  0.00  0.00    +0.000 C 
BRANCH  17  19
ATOM     18  N   UNL     1      -2.392  10.104  18.040  0.00  0.00    +0.000 NA
ATOM     19  C   UNL     1      -1.369  10.350  18.735  0.00  0.00    +0.000 C 
ENDBRANCH  17  19
ENDBRANCH  16  17
ENDBRANCH  10  16
ENDBRANCH   1  13
BRANCH   7  20
ATOM     20  C   UNL     1       3.480   4.044  18.065  0.00  0.00    +0.000 A 
ATOM     21  C   UNL     1       2.135   4.096  17.640  0.00  0.00    +0.000 A 
ATOM     22  C   UNL     1       1.150   3.265  18.190  0.00  0.00    +0.000 A 
ATOM     23  C   UNL     1       1.496   2.302  19.129  0.00  0.00    +0.000 A 
ATOM     24  C   UNL     1       2.823   2.175  19.525  0.00  0.00    +0.000 A 
ATOM     25  C   UNL     1       3.794   3.045  19.012  0.00  0.00    +0.000 A 
BRANCH  25  26
ATOM     26  O   UNL     1       5.069   2.924  19.498  0.00  0.00    +0.000 OA
ATOM     27  H   UNL     1       5.319   1.986  19.504  0.00  0.00    +0.000 HD
ENDBRANCH  25  26
ENDBRANCH   7  20
TORSDOF 6
ENDMDL
MODEL 7
REMARK VINA RESULT:      -8.0      1.986      2.220
REMARK  Name = 
REMARK  6 active torsions:
REMARK  status: ('A' for Active; 'I' for Inactive)
REMARK    1  A    between atoms: C_2  and  C_3
REMARK    2  A    between atoms: C_3  and  O_4
REMARK    3  A    between atoms: O_4  and  C_5
REMARK    4  A    between atoms: C_8  and  C_9
REMARK    5  A    between atoms: C_15  and  C_16
REMARK    6  A    between atoms: C_21  and  O_22
REMARK                            x       y       z     vdW  Elec       q    Type
REMARK                         _______ _______ _______ _____ _____    ______ ____
ROOT
ATOM      1  C   UNL     1       3.593   6.425  17.851  0.00  0.00    +0.000 A 
ATOM      2  C   UNL     1       4.521   6.799  16.887  0.00  0.00    +0.000 A 
ATOM      3  N   UNL     1       5.440   5.993  16.319  0.00  0.00    +0.000 NA
ATOM      4  C   UNL     1       5.438   4.733  16.741  0.00  0.00    +0.000 A 
ATOM      5  N   UNL     1       6.408   3.894  16.242  0.00  0.00    +0.000 N 
ATOM      6  N   UNL     1       4.552   4.224  17.593  0.00  0.00    +0.000 NA
ATOM      7  C   UNL     1       3.643   5.056  18.171  0.00  0.00    +0.000 A 
ATOM      8  H   UNL     1       6.713   4.205  15.333  0.00  0.00    +0.000 HD
ATOM      9  H   UNL     1       6.114   2.933  16.345  0.00  0.00    +0.000 HD
ENDROOT
BRANCH   1  13
ATOM     10  C   UNL     1       0.939   9.393  19.518  0.00  0.00    +0.000 A 
ATOM     11  C   UNL     1       1.363   9.485  18.195  0.00  0.00    +0.000 A 
ATOM     12  C   UNL     1       2.207   8.514  17.651  0.00  0.00    +0.000 A 
ATOM     13  C   UNL     1       2.688   7.445  18.430  0.00  0.00    +0.000 A 
ATOM     14  C   UNL     1       2.295   7.411  19.781  0.00  0.00    +0.000 A 
ATOM     15  C   UNL     1       1.409   8.356  20.316  0.00  0.00    +0.000 A 
BRANCH  10  16
ATOM     16  O   UNL     1       0.115  10.393  19.936  0.00  0.00    +0.000 OA
BRANCH  16  17
ATOM     17  C   UNL     1       0.384  11.705  19.437  0.00  0.00    +0.000 C 
BRANCH  17  19
ATOM     18  N   UNL     1       0.882  13.325  21.642  0.00  0.00    +0.000 NA
ATOM     19  C   UNL     1       0.656  12.591  20.642  0.00  0.00    +0.000 C 
ENDBRANCH  17  19
ENDBRANCH  16  17
ENDBRANCH  10  16
ENDBRANCH   1  13
BRANCH   7  20
ATOM     20  C   UNL     1       2.731   4.356  19.126  0.00  0.00    +0.000 A 
ATOM     21  C   UNL     1       3.032   4.287  20.503  0.00  0.00    +0.000 A 
ATOM     22  C   UNL     1       2.233   3.568  21.401  0.00  0.00    +0.000 A 
ATOM     23  C   UNL     1       1.065   2.957  20.962  0.00  0.00    +0.000 A 
ATOM     24  C   UNL     1       0.700   3.058  19.624  0.00  0.00    +0.000 A 
ATOM     25  C   UNL     1       1.531   3.733  18.719  0.00  0.00    +0.000 A 
BRANCH  25  26
ATOM     26  O   UNL     1       1.160   3.733  17.401  0.00  0.00    +0.000 OA
ATOM     27  H   UNL     1       1.616   3.008  16.943  0.00  0.00    +0.000 HD
ENDBRANCH  25  26
ENDBRANCH   7  20
TORSDOF 6
ENDMDL
MODEL 8
REMARK VINA RESULT:      -8.0      2.227      2.497
REMARK  Name = 
REMARK  6 active torsions:
REMARK  status: ('A' for Active; 'I' for Inactive)
REMARK    1  A    between atoms: C_2  and  C_3
REMARK    2  A    between atoms: C_3  and  O_4
REMARK    3  A    between atoms: O_4  and  C_5
REMARK    4  A    between atoms: C_8  and  C_9
REMARK    5  A    between atoms: C_15  and  C_16
REMARK    6  A    between atoms: C_21  and  O_22
REMARK                            x       y       z     vdW  Elec       q    Type
REMARK                         _______ _______ _______ _____ _____    ______ ____
ROOT
ATOM      1  C   UNL     1       3.555   6.465  17.921  0.00  0.00    +0.000 A 
ATOM      2  C   UNL     1       4.497   6.855  16.978  0.00  0.00    +0.000 A 
ATOM      3  N   UNL     1       5.435   6.062  16.420  0.00  0.00    +0.000 NA
ATOM      4  C   UNL     1       5.437   4.800  16.833  0.00  0.00    +0.000 A 
ATOM      5  N   UNL     1       6.425   3.974  16.346  0.00  0.00    +0.000 N 
ATOM      6  N   UNL     1       4.541   4.275  17.664  0.00  0.00    +0.000 NA
ATOM      7  C   UNL     1       3.612   5.093  18.231  0.00  0.00    +0.000 A 
ATOM      8  H   UNL     1       6.743   4.295  15.444  0.00  0.00    +0.000 HD
ATOM      9  H   UNL     1       6.139   3.010  16.435  0.00  0.00    +0.000 HD
ENDROOT
BRANCH   1  13
ATOM     10  C   UNL     1       0.840   9.392  19.562  0.00  0.00    +0.000 A 
ATOM     11  C   UNL     1       1.240   9.464  18.229  0.00  0.00    +0.000 A 
ATOM     12  C   UNL     1       2.104   8.506  17.695  0.00  0.00    +0.000 A 
ATOM     13  C   UNL     1       2.630   7.471  18.491  0.00  0.00    +0.000 A 
ATOM     14  C   UNL     1       2.259   7.458  19.849  0.00  0.00    +0.000 A 
ATOM     15  C   UNL     1       1.354   8.389  20.376  0.00  0.00    +0.000 A 
BRANCH  10  16
ATOM     16  O   UNL     1      -0.007  10.376  19.970  0.00  0.00    +0.000 OA
BRANCH  16  17
ATOM     17  C   UNL     1      -0.223  11.461  19.064  0.00  0.00    +0.000 C 
BRANCH  17  19
ATOM     18  N   UNL     1      -2.976  11.777  18.816  0.00  0.00    +0.000 NA
ATOM     19  C   UNL     1      -1.728  11.633  18.928  0.00  0.00    +0.000 C 
ENDBRANCH  17  19
ENDBRANCH  16  17
ENDBRANCH  10  16
ENDBRANCH   1  13
BRANCH   7  20
ATOM     20  C   UNL     1       2.690   4.377  19.163  0.00  0.00    +0.000 A 
ATOM     21  C   UNL     1       2.955   4.318  20.549  0.00  0.00    +0.000 A 
ATOM     22  C   UNL     1       2.148   3.585  21.428  0.00  0.00    +0.000 A 
ATOM     23  C   UNL     1       1.005   2.949  20.959  0.00  0.00    +0.000 A 
ATOM     24  C   UNL     1       0.675   3.038  19.611  0.00  0.00    +0.000 A 
ATOM     25  C   UNL     1       1.516   3.728  18.727  0.00  0.00    +0.000 A 
BRANCH  25  26
ATOM     26  O   UNL     1       1.180   3.715  17.399  0.00  0.00    +0.000 OA
ATOM     27  H   UNL     1       1.828   3.179  16.913  0.00  0.00    +0.000 HD
ENDBRANCH  25  26
ENDBRANCH   7  20
TORSDOF 6
ENDMDL
MODEL 9
REMARK VINA RESULT:      -8.0      2.971      4.845
REMARK  Name = 
REMARK  6 active torsions:
REMARK  status: ('A' for Active; 'I' for Inactive)
REMARK    1  A    between atoms: C_2  and  C_3
REMARK    2  A    between atoms: C_3  and  O_4
REMARK    3  A    between atoms: O_4  and  C_5
REMARK    4  A    between atoms: C_8  and  C_9
REMARK    5  A    between atoms: C_15  and  C_16
REMARK    6  A    between atoms: C_21  and  O_22
REMARK                            x       y       z     vdW  Elec       q    Type
REMARK                         _______ _______ _______ _____ _____    ______ ____
ROOT
ATOM      1  C   UNL     1       5.359   4.701  15.610  0.00  0.00    +0.000 A 
ATOM      2  C   UNL     1       5.115   4.065  14.400  0.00  0.00    +0.000 A 
ATOM      3  N   UNL     1       5.933   4.062  13.329  0.00  0.00    +0.000 NA
ATOM      4  C   UNL     1       7.067   4.740  13.471  0.00  0.00    +0.000 A 
ATOM      5  N   UNL     1       7.898   4.825  12.377  0.00  0.00    +0.000 N 
ATOM      6  N   UNL     1       7.463   5.320  14.600  0.00  0.00    +0.000 NA
ATOM      7  C   UNL     1       6.617   5.330  15.666  0.00  0.00    +0.000 A 
ATOM      8  H   UNL     1       7.762   4.034  11.766  0.00  0.00    +0.000 HD
ATOM      9  H   UNL     1       8.837   5.040  12.678  0.00  0.00    +0.000 HD
ENDROOT
BRANCH   1  13
ATOM     10  C   UNL     1       2.346   4.629  18.701  0.00  0.00    +0.000 A 
ATOM     11  C   UNL     1       3.007   5.813  18.382  0.00  0.00    +0.000 A 
ATOM     12  C   UNL     1       3.968   5.838  17.370  0.00  0.00    +0.000 A 
ATOM     13  C   UNL     1       4.330   4.669  16.675  0.00  0.00    +0.000 A 
ATOM     14  C   UNL     1       3.691   3.475  17.060  0.00  0.00    +0.000 A 
ATOM     15  C   UNL     1       2.691   3.455  18.042  0.00  0.00    +0.000 A 
BRANCH  10  16
ATOM     16  O   UNL     1       1.427   4.727  19.700  0.00  0.00    +0.000 OA
BRANCH  16  17
ATOM     17  C   UNL     1       1.926   4.958  21.020  0.00  0.00    +0.000 C 
BRANCH  17  19
ATOM     18  N   UNL     1       2.506   2.469  22.118  0.00  0.00    +0.000 NA
ATOM     19  C   UNL     1       2.243   3.597  21.620  0.00  0.00    +0.000 C 
ENDBRANCH  17  19
ENDBRANCH  16  17
ENDBRANCH  10  16
ENDBRANCH   1  13
BRANCH   7  20
ATOM     20  C   UNL     1       7.178   6.039  16.855  0.00  0.00    +0.000 A 
ATOM     21  C   UNL     1       7.363   7.439  16.849  0.00  0.00    +0.000 A 
ATOM     22  C   UNL     1       7.962   8.113  17.921  0.00  0.00    +0.000 A 
ATOM     23  C   UNL     1       8.327   7.416  19.066  0.00  0.00    +0.000 A 
ATOM     24  C   UNL     1       8.101   6.046  19.137  0.00  0.00    +0.000 A 
ATOM     25  C   UNL     1       7.551   5.369  18.040  0.00  0.00    +0.000 A 
BRANCH  25  26
ATOM     26  O   UNL     1       7.424   4.008  18.138  0.00  0.00    +0.000 OA
ATOM     27  H   UNL     1       7.619   3.736  19.050  0.00  0.00    +0.000 HD
ENDBRANCH  25  26
ENDBRANCH   7  20
TORSDOF 6
ENDMDL
