MODEL 1
REMARK VINA RESULT:      -7.1      0.000      0.000
REMARK  Name = 
REMARK  6 active torsions:
REMARK  status: ('A' for Active; 'I' for Inactive)
REMARK    1  A    between atoms: C_2  and  C_3
REMARK    2  A    between atoms: C_6  and  C_7
REMARK    3  A    between atoms: C_16  and  C_17
REMARK    4  A    between atoms: C_17  and  O_19
REMARK    5  A    between atoms: O_19  and  C_20
REMARK    6  A    between atoms: C_20  and  C_21
REMARK                            x       y       z     vdW  Elec       q    Type
REMARK                         _______ _______ _______ _____ _____    ______ ____
ROOT
ATOM      1  C   UNL     1       2.574   6.013  19.652  0.00  0.00    +0.000 C 
ATOM      2  O   UNL     1       2.079   6.132  20.765  0.00  0.00    +0.000 OA
ATOM      3  N   UNL     1       3.267   4.891  19.229  0.00  0.00    +0.000 N 
ATOM      4  C   UNL     1       4.036   4.887  18.004  0.00  0.00    +0.000 C 
ATOM      5  S   UNL     1       4.211   3.115  17.629  0.00  0.00    +0.000 S 
ATOM      6  C   UNL     1       4.225   2.646  19.376  0.00  0.00    +0.000 C 
ATOM      7  C   UNL     1       3.645   3.828  20.178  0.00  0.00    +0.000 C 
ENDROOT
BRANCH   4   8
ATOM      8  C   UNL     1       5.398   5.568  18.069  0.00  0.00    +0.000 A 
ATOM      9  C   UNL     1       6.297   5.186  19.085  0.00  0.00    +0.000 A 
ATOM     10  C   UNL     1       7.535   5.821  19.234  0.00  0.00    +0.000 A 
ATOM     11  C   UNL     1       7.906   6.845  18.368  0.00  0.00    +0.000 A 
ATOM     12  C   UNL     1       7.055   7.217  17.340  0.00  0.00    +0.000 A 
ATOM     13  C   UNL     1       5.827   6.571  17.188  0.00  0.00    +0.000 A 
ATOM     14  F   UNL     1       5.081   6.962  16.149  0.00  0.00    +0.000 F 
ENDBRANCH   4   8
BRANCH   1  16
ATOM     15  C   UNL     1       2.302   8.046  17.966  0.00  0.00    +0.000 C 
ATOM     16  C   UNL     1       2.411   7.094  18.699  0.00  0.00    +0.000 C 
ENDBRANCH   1  16
BRANCH   7  17
ATOM     17  C   UNL     1       2.556   3.242  21.066  0.00  0.00    +0.000 C 
ATOM     18  O   UNL     1       2.531   3.420  22.283  0.00  0.00    +0.000 OA
BRANCH  17  19
ATOM     19  O   UNL     1       1.800   2.332  20.394  0.00  0.00    +0.000 OA
BRANCH  19  20
ATOM     20  C   UNL     1       0.554   2.834  19.904  0.00  0.00    +0.000 C 
ATOM     21  C   UNL     1       0.557   2.658  18.396  0.00  0.00    +0.000 C 
ENDBRANCH  19  20
ENDBRANCH  17  19
ENDBRANCH   7  17
TORSDOF 5
ENDMDL
MODEL 2
REMARK VINA RESULT:      -6.8      2.975      5.654
REMARK  Name = 
REMARK  6 active torsions:
REMARK  status: ('A' for Active; 'I' for Inactive)
REMARK    1  A    between atoms: C_2  and  C_3
REMARK    2  A    between atoms: C_6  and  C_7
REMARK    3  A    between atoms: C_16  and  C_17
REMARK    4  A    between atoms: C_17  and  O_19
REMARK    5  A    between atoms: O_19  and  C_20
REMARK    6  A    between atoms: C_20  and  C_21
REMARK                            x       y       z     vdW  Elec       q    Type
REMARK                         _______ _______ _______ _____ _____    ______ ____
ROOT
ATOM      1  C   UNL     1       3.180   7.231  18.050  0.00  0.00    +0.000 C 
ATOM      2  O   UNL     1       3.068   7.904  17.034  0.00  0.00    +0.000 OA
ATOM      3  N   UNL     1       4.036   6.149  18.171  0.00  0.00    +0.000 N 
ATOM      4  C   UNL     1       3.963   5.242  19.294  0.00  0.00    +0.000 C 
ATOM      5  S   UNL     1       5.593   4.435  19.283  0.00  0.00    +0.000 S 
ATOM      6  C   UNL     1       5.742   4.538  17.483  0.00  0.00    +0.000 C 
ATOM      7  C   UNL     1       4.730   5.594  16.995  0.00  0.00    +0.000 C 
ENDROOT
BRANCH   4   8
ATOM      8  C   UNL     1       2.843   4.210  19.247  0.00  0.00    +0.000 A 
ATOM      9  C   UNL     1       2.797   3.312  18.162  0.00  0.00    +0.000 A 
ATOM     10  C   UNL     1       1.757   2.385  18.031  0.00  0.00    +0.000 A 
ATOM     11  C   UNL     1       0.744   2.329  18.983  0.00  0.00    +0.000 A 
ATOM     12  C   UNL     1       0.783   3.177  20.078  0.00  0.00    +0.000 A 
ATOM     13  C   UNL     1       1.831   4.091  20.210  0.00  0.00    +0.000 A 
ATOM     14  F   UNL     1       1.816   4.848  21.313  0.00  0.00    +0.000 F 
ENDBRANCH   4   8
BRANCH   1  16
ATOM     15  C   UNL     1       1.788   7.960  20.191  0.00  0.00    +0.000 C 
ATOM     16  C   UNL     1       2.394   7.592  19.214  0.00  0.00    +0.000 C 
ENDBRANCH   1  16
BRANCH   7  17
ATOM     17  C   UNL     1       5.513   6.551  16.109  0.00  0.00    +0.000 C 
ATOM     18  O   UNL     1       5.062   6.991  15.052  0.00  0.00    +0.000 OA
BRANCH  17  19
ATOM     19  O   UNL     1       6.812   6.646  16.501  0.00  0.00    +0.000 OA
BRANCH  19  20
ATOM     20  C   UNL     1       7.104   7.767  17.340  0.00  0.00    +0.000 C 
ATOM     21  C   UNL     1       8.082   7.296  18.401  0.00  0.00    +0.000 C 
ENDBRANCH  19  20
ENDBRANCH  17  19
ENDBRANCH   7  17
TORSDOF 5
ENDMDL
MODEL 3
REMARK VINA RESULT:      -6.7      3.477      5.493
REMARK  Name = 
REMARK  6 active torsions:
REMARK  status: ('A' for Active; 'I' for Inactive)
REMARK    1  A    between atoms: C_2  and  C_3
REMARK    2  A    between atoms: C_6  and  C_7
REMARK    3  A    between atoms: C_16  and  C_17
REMARK    4  A    between atoms: C_17  and  O_19
REMARK    5  A    between atoms: O_19  and  C_20
REMARK    6  A    between atoms: C_20  and  C_21
REMARK                            x       y       z     vdW  Elec       q    Type
REMARK                         _______ _______ _______ _____ _____    ______ ____
ROOT
ATOM      1  C   UNL     1       4.182   7.027  16.805  0.00  0.00    +0.000 C 
ATOM      2  O   UNL     1       4.401   7.308  15.634  0.00  0.00    +0.000 OA
ATOM      3  N   UNL     1       4.884   6.068  17.515  0.00  0.00    +0.000 N 
ATOM      4  C   UNL     1       4.439   5.601  18.810  0.00  0.00    +0.000 C 
ATOM      5  S   UNL     1       5.942   4.868  19.526  0.00  0.00    +0.000 S 
ATOM      6  C   UNL     1       6.576   4.348  17.913  0.00  0.00    +0.000 C 
ATOM      7  C   UNL     1       5.820   5.153  16.837  0.00  0.00    +0.000 C 
ENDROOT
BRANCH   4   8
ATOM      8  C   UNL     1       3.293   4.598  18.800  0.00  0.00    +0.000 A 
ATOM      9  C   UNL     1       3.333   3.536  17.873  0.00  0.00    +0.000 A 
ATOM     10  C   UNL     1       2.279   2.620  17.774  0.00  0.00    +0.000 A 
ATOM     11  C   UNL     1       1.166   2.740  18.601  0.00  0.00    +0.000 A 
ATOM     12  C   UNL     1       1.117   3.754  19.544  0.00  0.00    +0.000 A 
ATOM     13  C   UNL     1       2.177   4.657  19.647  0.00  0.00    +0.000 A 
ATOM     14  F   UNL     1       2.070   5.583  20.606  0.00  0.00    +0.000 F 
ENDBRANCH   4   8
BRANCH   1  16
ATOM     15  C   UNL     1       2.257   8.390  18.026  0.00  0.00    +0.000 C 
ATOM     16  C   UNL     1       3.144   7.754  17.511  0.00  0.00    +0.000 C 
ENDBRANCH   1  16
BRANCH   7  17
ATOM     17  C   UNL     1       6.887   5.760  15.938  0.00  0.00    +0.000 C 
ATOM     18  O   UNL     1       7.624   6.672  16.311  0.00  0.00    +0.000 OA
BRANCH  17  19
ATOM     19  O   UNL     1       6.747   5.348  14.649  0.00  0.00    +0.000 OA
BRANCH  19  20
ATOM     20  C   UNL     1       6.084   4.091  14.491  0.00  0.00    +0.000 C 
ATOM     21  C   UNL     1       6.161   3.720  13.021  0.00  0.00    +0.000 C 
ENDBRANCH  19  20
ENDBRANCH  17  19
ENDBRANCH   7  17
TORSDOF 5
ENDMDL
MODEL 4
REMARK VINA RESULT:      -6.4      1.618      2.292
REMARK  Name = 
REMARK  6 active torsions:
REMARK  status: ('A' for Active; 'I' for Inactive)
REMARK    1  A    between atoms: C_2  and  C_3
REMARK    2  A    between atoms: C_6  and  C_7
REMARK    3  A    between atoms: C_16  and  C_17
REMARK    4  A    between atoms: C_17  and  O_19
REMARK    5  A    between atoms: O_19  and  C_20
REMARK    6  A    between atoms: C_20  and  C_21
REMARK                            x       y       z     vdW  Elec       q    Type
REMARK                         _______ _______ _______ _____ _____    ______ ____
ROOT
ATOM      1  C   UNL     1       2.579   5.944  18.552  0.00  0.00    +0.000 C 
ATOM      2  O   UNL     1       1.817   5.594  19.443  0.00  0.00    +0.000 OA
ATOM      3  N   UNL     1       3.392   5.074  17.843  0.00  0.00    +0.000 N 
ATOM      4  C   UNL     1       4.443   5.552  16.973  0.00  0.00    +0.000 C 
ATOM      5  S   UNL     1       4.763   4.129  15.886  0.00  0.00    +0.000 S 
ATOM      6  C   UNL     1       4.352   2.927  17.174  0.00  0.00    +0.000 C 
ATOM      7  C   UNL     1       3.552   3.670  18.263  0.00  0.00    +0.000 C 
ENDROOT
BRANCH   4   8
ATOM      8  C   UNL     1       5.723   6.011  17.662  0.00  0.00    +0.000 A 
ATOM      9  C   UNL     1       6.436   7.094  17.110  0.00  0.00    +0.000 A 
ATOM     10  C   UNL     1       7.650   7.519  17.661  0.00  0.00    +0.000 A 
ATOM     11  C   UNL     1       8.175   6.877  18.779  0.00  0.00    +0.000 A 
ATOM     12  C   UNL     1       7.477   5.832  19.362  0.00  0.00    +0.000 A 
ATOM     13  C   UNL     1       6.259   5.421  18.816  0.00  0.00    +0.000 A 
ATOM     14  F   UNL     1       5.630   4.432  19.458  0.00  0.00    +0.000 F 
ENDBRANCH   4   8
BRANCH   1  16
ATOM     15  C   UNL     1       2.748   8.512  17.900  0.00  0.00    +0.000 C 
ATOM     16  C   UNL     1       2.627   7.346  18.188  0.00  0.00    +0.000 C 
ENDBRANCH   1  16
BRANCH   7  17
ATOM     17  C   UNL     1       2.295   2.846  18.499  0.00  0.00    +0.000 C 
ATOM     18  O   UNL     1       1.246   3.055  17.891  0.00  0.00    +0.000 OA
BRANCH  17  19
ATOM     19  O   UNL     1       2.415   2.056  19.600  0.00  0.00    +0.000 OA
BRANCH  19  20
ATOM     20  C   UNL     1       2.924   2.720  20.760  0.00  0.00    +0.000 C 
ATOM     21  C   UNL     1       1.767   2.893  21.727  0.00  0.00    +0.000 C 
ENDBRANCH  19  20
ENDBRANCH  17  19
ENDBRANCH   7  17
TORSDOF 5
ENDMDL
MODEL 5
REMARK VINA RESULT:      -6.3      3.358      5.383
REMARK  Name = 
REMARK  6 active torsions:
REMARK  status: ('A' for Active; 'I' for Inactive)
REMARK    1  A    between atoms: C_2  and  C_3
REMARK    2  A    between atoms: C_6  and  C_7
REMARK    3  A    between atoms: C_16  and  C_17
REMARK    4  A    between atoms: C_17  and  O_19
REMARK    5  A    between atoms: O_19  and  C_20
REMARK    6  A    between atoms: C_20  and  C_21
REMARK                            x       y       z     vdW  Elec       q    Type
REMARK                         _______ _______ _______ _____ _____    ______ ____
ROOT
ATOM      1  C   UNL     1       4.208   7.057  16.765  0.00  0.00    +0.000 C 
ATOM      2  O   UNL     1       4.436   7.296  15.587  0.00  0.00    +0.000 OA
ATOM      3  N   UNL     1       4.877   6.095  17.503  0.00  0.00    +0.000 N 
ATOM      4  C   UNL     1       4.418   5.681  18.811  0.00  0.00    +0.000 C 
ATOM      5  S   UNL     1       5.895   4.918  19.548  0.00  0.00    +0.000 S 
ATOM      6  C   UNL     1       6.510   4.331  17.952  0.00  0.00    +0.000 C 
ATOM      7  C   UNL     1       5.782   5.130  16.853  0.00  0.00    +0.000 C 
ENDROOT
BRANCH   4   8
ATOM      8  C   UNL     1       3.238   4.717  18.829  0.00  0.00    +0.000 A 
ATOM      9  C   UNL     1       2.400   4.697  19.963  0.00  0.00    +0.000 A 
ATOM     10  C   UNL     1       1.340   3.790  20.065  0.00  0.00    +0.000 A 
ATOM     11  C   UNL     1       1.089   2.887  19.036  0.00  0.00    +0.000 A 
ATOM     12  C   UNL     1       1.876   2.909  17.896  0.00  0.00    +0.000 A 
ATOM     13  C   UNL     1       2.924   3.825  17.794  0.00  0.00    +0.000 A 
ATOM     14  F   UNL     1       3.613   3.807  16.648  0.00  0.00    +0.000 F 
ENDBRANCH   4   8
BRANCH   1  16
ATOM     15  C   UNL     1       2.324   8.416  18.050  0.00  0.00    +0.000 C 
ATOM     16  C   UNL     1       3.196   7.838  17.450  0.00  0.00    +0.000 C 
ENDBRANCH   1  16
BRANCH   7  17
ATOM     17  C   UNL     1       6.869   5.674  15.937  0.00  0.00    +0.000 C 
ATOM     18  O   UNL     1       7.678   6.524  16.305  0.00  0.00    +0.000 OA
BRANCH  17  19
ATOM     19  O   UNL     1       6.669   5.295  14.645  0.00  0.00    +0.000 OA
BRANCH  19  20
ATOM     20  C   UNL     1       6.152   3.971  14.483  0.00  0.00    +0.000 C 
ATOM     21  C   UNL     1       6.163   3.660  12.997  0.00  0.00    +0.000 C 
ENDBRANCH  19  20
ENDBRANCH  17  19
ENDBRANCH   7  17
TORSDOF 5
ENDMDL
MODEL 6
REMARK VINA RESULT:      -6.3      3.145      5.462
REMARK  Name = 
REMARK  6 active torsions:
REMARK  status: ('A' for Active; 'I' for Inactive)
REMARK    1  A    between atoms: C_2  and  C_3
REMARK    2  A    between atoms: C_6  and  C_7
REMARK    3  A    between atoms: C_16  and  C_17
REMARK    4  A    between atoms: C_17  and  O_19
REMARK    5  A    between atoms: O_19  and  C_20
REMARK    6  A    between atoms: C_20  and  C_21
REMARK                            x       y       z     vdW  Elec       q    Type
REMARK                         _______ _______ _______ _____ _____    ______ ____
ROOT
ATOM      1  C   UNL     1       3.360   7.223  17.798  0.00  0.00    +0.000 C 
ATOM      2  O   UNL     1       3.353   7.772  16.705  0.00  0.00    +0.000 OA
ATOM      3  N   UNL     1       4.191   6.165  18.128  0.00  0.00    +0.000 N 
ATOM      4  C   UNL     1       4.002   5.396  19.337  0.00  0.00    +0.000 C 
ATOM      5  S   UNL     1       5.619   4.599  19.580  0.00  0.00    +0.000 S 
ATOM      6  C   UNL     1       5.943   4.491  17.804  0.00  0.00    +0.000 C 
ATOM      7  C   UNL     1       4.992   5.478  17.099  0.00  0.00    +0.000 C 
ENDROOT
BRANCH   4   8
ATOM      8  C   UNL     1       2.883   4.362  19.302  0.00  0.00    +0.000 A 
ATOM      9  C   UNL     1       2.858   3.430  18.245  0.00  0.00    +0.000 A 
ATOM     10  C   UNL     1       1.820   2.498  18.124  0.00  0.00    +0.000 A 
ATOM     11  C   UNL     1       0.790   2.472  19.059  0.00  0.00    +0.000 A 
ATOM     12  C   UNL     1       0.808   3.355  20.126  0.00  0.00    +0.000 A 
ATOM     13  C   UNL     1       1.853   4.273  20.249  0.00  0.00    +0.000 A 
ATOM     14  F   UNL     1       1.817   5.065  21.326  0.00  0.00    +0.000 F 
ENDBRANCH   4   8
BRANCH   1  16
ATOM     15  C   UNL     1       1.716   8.047  19.713  0.00  0.00    +0.000 C 
ATOM     16  C   UNL     1       2.467   7.716  18.829  0.00  0.00    +0.000 C 
ENDBRANCH   1  16
BRANCH   7  17
ATOM     17  C   UNL     1       5.866   6.327  16.187  0.00  0.00    +0.000 C 
ATOM     18  O   UNL     1       6.602   7.214  16.617  0.00  0.00    +0.000 OA
BRANCH  17  19
ATOM     19  O   UNL     1       5.543   6.148  14.877  0.00  0.00    +0.000 OA
BRANCH  19  20
ATOM     20  C   UNL     1       5.460   4.782  14.463  0.00  0.00    +0.000 C 
ATOM     21  C   UNL     1       6.803   4.408  13.863  0.00  0.00    +0.000 C 
ENDBRANCH  19  20
ENDBRANCH  17  19
ENDBRANCH   7  17
TORSDOF 5
ENDMDL
MODEL 7
REMARK VINA RESULT:      -6.2      2.792      5.519
REMARK  Name = 
REMARK  6 active torsions:
REMARK  status: ('A' for Active; 'I' for Inactive)
REMARK    1  A    between atoms: C_2  and  C_3
REMARK    2  A    between atoms: C_6  and  C_7
REMARK    3  A    between atoms: C_16  and  C_17
REMARK    4  A    between atoms: C_17  and  O_19
REMARK    5  A    between atoms: O_19  and  C_20
REMARK    6  A    between atoms: C_20  and  C_21
REMARK                            x       y       z     vdW  Elec       q    Type
REMARK                         _______ _______ _______ _____ _____    ______ ____
ROOT
ATOM      1  C   UNL     1       3.142   7.318  18.063  0.00  0.00    +0.000 C 
ATOM      2  O   UNL     1       3.046   7.988  17.043  0.00  0.00    +0.000 OA
ATOM      3  N   UNL     1       3.968   6.213  18.189  0.00  0.00    +0.000 N 
ATOM      4  C   UNL     1       3.873   5.315  19.318  0.00  0.00    +0.000 C 
ATOM      5  S   UNL     1       5.480   4.464  19.309  0.00  0.00    +0.000 S 
ATOM      6  C   UNL     1       5.629   4.553  17.509  0.00  0.00    +0.000 C 
ATOM      7  C   UNL     1       4.645   5.632  17.015  0.00  0.00    +0.000 C 
ENDROOT
BRANCH   4   8
ATOM      8  C   UNL     1       2.725   4.314  19.278  0.00  0.00    +0.000 A 
ATOM      9  C   UNL     1       1.851   4.244  20.383  0.00  0.00    +0.000 A 
ATOM     10  C   UNL     1       0.818   3.301  20.432  0.00  0.00    +0.000 A 
ATOM     11  C   UNL     1       0.630   2.412  19.378  0.00  0.00    +0.000 A 
ATOM     12  C   UNL     1       1.453   2.483  18.265  0.00  0.00    +0.000 A 
ATOM     13  C   UNL     1       2.473   3.434  18.216  0.00  0.00    +0.000 A 
ATOM     14  F   UNL     1       3.199   3.461  17.093  0.00  0.00    +0.000 F 
ENDBRANCH   4   8
BRANCH   1  16
ATOM     15  C   UNL     1       1.693   8.094  20.148  0.00  0.00    +0.000 C 
ATOM     16  C   UNL     1       2.368   7.707  19.226  0.00  0.00    +0.000 C 
ENDBRANCH   1  16
BRANCH   7  17
ATOM     17  C   UNL     1       5.453   6.563  16.122  0.00  0.00    +0.000 C 
ATOM     18  O   UNL     1       5.012   7.008  15.063  0.00  0.00    +0.000 OA
BRANCH  17  19
ATOM     19  O   UNL     1       6.754   6.625  16.513  0.00  0.00    +0.000 OA
BRANCH  19  20
ATOM     20  C   UNL     1       7.076   7.742  17.347  0.00  0.00    +0.000 C 
ATOM     21  C   UNL     1       8.066   7.257  18.391  0.00  0.00    +0.000 C 
ENDBRANCH  19  20
ENDBRANCH  17  19
ENDBRANCH   7  17
TORSDOF 5
ENDMDL
MODEL 8
REMARK VINA RESULT:      -6.1      1.255      1.771
REMARK  Name = 
REMARK  6 active torsions:
REMARK  status: ('A' for Active; 'I' for Inactive)
REMARK    1  A    between atoms: C_2  and  C_3
REMARK    2  A    between atoms: C_6  and  C_7
REMARK    3  A    between atoms: C_16  and  C_17
REMARK    4  A    between atoms: C_17  and  O_19
REMARK    5  A    between atoms: O_19  and  C_20
REMARK    6  A    between atoms: C_20  and  C_21
REMARK                            x       y       z     vdW  Elec       q    Type
REMARK                         _______ _______ _______ _____ _____    ______ ____
ROOT
ATOM      1  C   UNL     1       2.591   5.947  18.629  0.00  0.00    +0.000 C 
ATOM      2  O   UNL     1       1.838   5.664  19.551  0.00  0.00    +0.000 OA
ATOM      3  N   UNL     1       3.343   5.017  17.931  0.00  0.00    +0.000 N 
ATOM      4  C   UNL     1       4.391   5.416  17.018  0.00  0.00    +0.000 C 
ATOM      5  S   UNL     1       4.615   3.943  15.974  0.00  0.00    +0.000 S 
ATOM      6  C   UNL     1       4.185   2.806  17.313  0.00  0.00    +0.000 C 
ATOM      7  C   UNL     1       3.450   3.622  18.395  0.00  0.00    +0.000 C 
ENDROOT
BRANCH   4   8
ATOM      8  C   UNL     1       5.708   5.837  17.658  0.00  0.00    +0.000 A 
ATOM      9  C   UNL     1       6.150   5.152  18.808  0.00  0.00    +0.000 A 
ATOM     10  C   UNL     1       7.318   5.536  19.476  0.00  0.00    +0.000 A 
ATOM     11  C   UNL     1       8.075   6.606  19.007  0.00  0.00    +0.000 A 
ATOM     12  C   UNL     1       7.682   7.273  17.859  0.00  0.00    +0.000 A 
ATOM     13  C   UNL     1       6.522   6.878  17.189  0.00  0.00    +0.000 A 
ATOM     14  F   UNL     1       6.232   7.549  16.069  0.00  0.00    +0.000 F 
ENDBRANCH   4   8
BRANCH   1  16
ATOM     15  C   UNL     1       2.795   8.459  17.794  0.00  0.00    +0.000 C 
ATOM     16  C   UNL     1       2.693   7.333  18.215  0.00  0.00    +0.000 C 
ENDBRANCH   1  16
BRANCH   7  17
ATOM     17  C   UNL     1       2.163   2.866  18.692  0.00  0.00    +0.000 C 
ATOM     18  O   UNL     1       1.133   3.038  18.043  0.00  0.00    +0.000 OA
BRANCH  17  19
ATOM     19  O   UNL     1       2.238   2.199  19.875  0.00  0.00    +0.000 OA
BRANCH  19  20
ATOM     20  C   UNL     1       1.313   2.642  20.872  0.00  0.00    +0.000 C 
ATOM     21  C   UNL     1       2.126   3.183  22.035  0.00  0.00    +0.000 C 
ENDBRANCH  19  20
ENDBRANCH  17  19
ENDBRANCH   7  17
TORSDOF 5
ENDMDL
MODEL 9
REMARK VINA RESULT:      -6.0      4.047      5.879
REMARK  Name = 
REMARK  6 active torsions:
REMARK  status: ('A' for Active; 'I' for Inactive)
REMARK    1  A    between atoms: C_2  and  C_3
REMARK    2  A    between atoms: C_6  and  C_7
REMARK    3  A    between atoms: C_16  and  C_17
REMARK    4  A    between atoms: C_17  and  O_19
REMARK    5  A    between atoms: O_19  and  C_20
REMARK    6  A    between atoms: C_20  and  C_21
REMARK                            x       y       z     vdW  Elec       q    Type
REMARK                         _______ _______ _______ _____ _____    ______ ____
ROOT
ATOM      1  C   UNL     1       7.152   5.836  17.206  0.00  0.00    +0.000 C 
ATOM      2  O   UNL     1       7.886   6.391  16.399  0.00  0.00    +0.000 OA
ATOM      3  N   UNL     1       6.051   5.074  16.853  0.00  0.00    +0.000 N 
ATOM      4  C   UNL     1       5.080   4.639  17.833  0.00  0.00    +0.000 C 
ATOM      5  S   UNL     1       4.248   3.249  17.005  0.00  0.00    +0.000 S 
ATOM      6  C   UNL     1       4.455   3.975  15.361  0.00  0.00    +0.000 C 
ATOM      7  C   UNL     1       5.554   5.051  15.465  0.00  0.00    +0.000 C 
ENDROOT
BRANCH   4   8
ATOM      8  C   UNL     1       4.072   5.688  18.285  0.00  0.00    +0.000 A 
ATOM      9  C   UNL     1       3.895   6.841  17.492  0.00  0.00    +0.000 A 
ATOM     10  C   UNL     1       3.031   7.868  17.888  0.00  0.00    +0.000 A 
ATOM     11  C   UNL     1       2.320   7.765  19.079  0.00  0.00    +0.000 A 
ATOM     12  C   UNL     1       2.448   6.627  19.860  0.00  0.00    +0.000 A 
ATOM     13  C   UNL     1       3.302   5.600  19.453  0.00  0.00    +0.000 A 
ATOM     14  F   UNL     1       3.342   4.521  20.242  0.00  0.00    +0.000 F 
ENDBRANCH   4   8
BRANCH   1  16
ATOM     15  C   UNL     1       7.765   5.988  19.785  0.00  0.00    +0.000 C 
ATOM     16  C   UNL     1       7.457   5.953  18.619  0.00  0.00    +0.000 C 
ENDBRANCH   1  16
BRANCH   7  17
ATOM     17  C   UNL     1       6.549   4.748  14.355  0.00  0.00    +0.000 C 
ATOM     18  O   UNL     1       7.330   5.593  13.919  0.00  0.00    +0.000 OA
BRANCH  17  19
ATOM     19  O   UNL     1       6.291   3.547  13.768  0.00  0.00    +0.000 OA
BRANCH  19  20
ATOM     20  C   UNL     1       6.435   3.533  12.345  0.00  0.00    +0.000 C 
ATOM     21  C   UNL     1       5.128   3.025  11.763  0.00  0.00    +0.000 C 
ENDBRANCH  19  20
ENDBRANCH  17  19
ENDBRANCH   7  17
TORSDOF 5
ENDMDL
