MODEL 1
REMARK VINA RESULT:      -7.7      0.000      0.000
REMARK  Name = 
REMARK  9 active torsions:
REMARK  status: ('A' for Active; 'I' for Inactive)
REMARK    1  A    between atoms: C_1  and  O_2
REMARK    2  A    between atoms: O_2  and  C_3
REMARK    3  A    between atoms: C_6  and  C_7
REMARK    4  A    between atoms: C_10  and  S_11
REMARK    5  A    between atoms: S_11  and  C_12
REMARK    6  A    between atoms: C_12  and  C_13
REMARK    7  A    between atoms: N_15  and  C_16
REMARK    8  A    between atoms: C_23  and  C_24
REMARK    9  A    between atoms: C_24  and  O_26
REMARK                            x       y       z     vdW  Elec       q    Type
REMARK                         _______ _______ _______ _____ _____    ______ ____
ROOT
ATOM      1  C   UNL     1       5.969   4.403  17.548  0.00  0.00    +0.000 C 
ATOM      2  O   UNL     1       5.253   4.214  16.569  0.00  0.00    +0.000 OA
ATOM      3  N   UNL     1       5.508   4.314  18.860  0.00  0.00    +0.000 N 
ATOM      4  H   UNL     1       5.896   5.039  19.471  0.00  0.00    +0.000 HD
ENDROOT
BRANCH   3   5
ATOM      5  C   UNL     1       4.144   3.978  19.126  0.00  0.00    +0.000 A 
ATOM      6  C   UNL     1       3.168   4.983  18.979  0.00  0.00    +0.000 A 
ATOM      7 CL   UNL     1       3.605   6.596  18.543  0.00  0.00    +0.000 Cl
ATOM      8  C   UNL     1       1.811   4.711  19.154  0.00  0.00    +0.000 A 
ATOM      9  C   UNL     1       1.409   3.432  19.513  0.00  0.00    +0.000 A 
ATOM     10 CL   UNL     1      -0.262   3.102  19.752  0.00  0.00    +0.000 Cl
ATOM     11  C   UNL     1       2.350   2.427  19.712  0.00  0.00    +0.000 A 
ATOM     12  C   UNL     1       3.720   2.692  19.530  0.00  0.00    +0.000 A 
BRANCH  12  13
ATOM     13  C   UNL     1       4.631   1.570  19.895  0.00  0.00    +0.000 C 
ATOM     14  O   UNL     1       5.434   1.637  20.806  0.00  0.00    +0.000 OA
BRANCH  13  15
ATOM     15  O   UNL     1       4.599   0.545  19.014  0.00  0.00    +0.000 OA
ATOM     16  H   UNL     1       4.358   0.805  18.106  0.00  0.00    +0.000 HD
ENDBRANCH  13  15
ENDBRANCH  12  13
ENDBRANCH   3   5
BRANCH   1  17
ATOM     17  C   UNL     1       7.439   4.774  17.422  0.00  0.00    +0.000 C 
BRANCH  17  18
ATOM     18  S   UNL     1       8.022   5.619  18.920  0.00  0.00    +0.000 S 
BRANCH  18  22
ATOM     19  C   UNL     1       8.441   9.347  18.203  0.00  0.00    +0.000 A 
ATOM     20  N   UNL     1       7.663   9.027  17.186  0.00  0.00    +0.000 NA
ATOM     21  N   UNL     1       7.420   7.676  17.282  0.00  0.00    +0.000 NA
ATOM     22  C   UNL     1       8.041   7.262  18.367  0.00  0.00    +0.000 A 
ATOM     23  O   UNL     1       8.713   8.271  19.008  0.00  0.00    +0.000 OA
BRANCH  19  27
ATOM     24  C   UNL     1      10.183  13.104  19.311  0.00  0.00    +0.000 A 
ATOM     25  C   UNL     1      10.449  11.943  20.037  0.00  0.00    +0.000 A 
ATOM     26  C   UNL     1       9.889  10.720  19.651  0.00  0.00    +0.000 A 
ATOM     27  C   UNL     1       9.038  10.635  18.541  0.00  0.00    +0.000 A 
ATOM     28  C   UNL     1       8.770  11.810  17.819  0.00  0.00    +0.000 A 
ATOM     29  C   UNL     1       9.340  13.036  18.204  0.00  0.00    +0.000 A 
BRANCH  24  31
ATOM     30  C   UNL     1      10.726  15.383  18.966  0.00  0.00    +0.000 C 
ATOM     31  O   UNL     1      10.760  14.238  19.809  0.00  0.00    +0.000 OA
ENDBRANCH  24  31
ENDBRANCH  19  27
ENDBRANCH  18  22
ENDBRANCH  17  18
ENDBRANCH   1  17
TORSDOF 8
ENDMDL
MODEL 2
REMARK VINA RESULT:      -7.5      7.463     10.499
REMARK  Name = 
REMARK  9 active torsions:
REMARK  status: ('A' for Active; 'I' for Inactive)
REMARK    1  A    between atoms: C_1  and  O_2
REMARK    2  A    between atoms: O_2  and  C_3
REMARK    3  A    between atoms: C_6  and  C_7
REMARK    4  A    between atoms: C_10  and  S_11
REMARK    5  A    between atoms: S_11  and  C_12
REMARK    6  A    between atoms: C_12  and  C_13
REMARK    7  A    between atoms: N_15  and  C_16
REMARK    8  A    between atoms: C_23  and  C_24
REMARK    9  A    between atoms: C_24  and  O_26
REMARK                            x       y       z     vdW  Elec       q    Type
REMARK                         _______ _______ _______ _____ _____    ______ ____
ROOT
ATOM      1  C   UNL     1      -0.544  12.582  18.978  0.00  0.00    +0.000 C 
ATOM      2  O   UNL     1      -0.760  13.542  18.245  0.00  0.00    +0.000 OA
ATOM      3  N   UNL     1      -1.522  11.655  19.334  0.00  0.00    +0.000 N 
ATOM      4  H   UNL     1      -1.460  11.364  20.314  0.00  0.00    +0.000 HD
ENDROOT
BRANCH   3   5
ATOM      5  C   UNL     1      -2.856  11.785  18.834  0.00  0.00    +0.000 A 
ATOM      6  C   UNL     1      -3.831  12.354  19.675  0.00  0.00    +0.000 A 
ATOM      7 CL   UNL     1      -3.449  12.836  21.289  0.00  0.00    +0.000 Cl
ATOM      8  C   UNL     1      -5.135  12.576  19.232  0.00  0.00    +0.000 A 
ATOM      9  C   UNL     1      -5.495  12.199  17.946  0.00  0.00    +0.000 A 
ATOM     10 CL   UNL     1      -7.109  12.449  17.406  0.00  0.00    +0.000 Cl
ATOM     11  C   UNL     1      -4.569  11.591  17.104  0.00  0.00    +0.000 A 
ATOM     12  C   UNL     1      -3.250  11.371  17.542  0.00  0.00    +0.000 A 
BRANCH  12  13
ATOM     13  C   UNL     1      -2.394  10.601  16.595  0.00  0.00    +0.000 C 
ATOM     14  O   UNL     1      -2.587  10.580  15.395  0.00  0.00    +0.000 OA
BRANCH  13  15
ATOM     15  O   UNL     1      -1.497   9.799  17.213  0.00  0.00    +0.000 OA
ATOM     16  H   UNL     1      -1.008  10.229  17.937  0.00  0.00    +0.000 HD
ENDBRANCH  13  15
ENDBRANCH  12  13
ENDBRANCH   3   5
BRANCH   1  17
ATOM     17  C   UNL     1       0.824  12.317  19.591  0.00  0.00    +0.000 C 
BRANCH  17  18
ATOM     18  S   UNL     1       0.754  10.918  20.746  0.00  0.00    +0.000 S 
BRANCH  18  22
ATOM     19  C   UNL     1       1.982   7.739  19.020  0.00  0.00    +0.000 A 
ATOM     20  N   UNL     1       1.992   8.555  17.982  0.00  0.00    +0.000 NA
ATOM     21  N   UNL     1       1.549   9.777  18.434  0.00  0.00    +0.000 NA
ATOM     22  C   UNL     1       1.323   9.638  19.724  0.00  0.00    +0.000 A 
ATOM     23  O   UNL     1       1.579   8.367  20.170  0.00  0.00    +0.000 OA
BRANCH  19  27
ATOM     24  C   UNL     1       2.978   3.580  19.310  0.00  0.00    +0.000 A 
ATOM     25  C   UNL     1       2.502   4.287  20.414  0.00  0.00    +0.000 A 
ATOM     26  C   UNL     1       2.162   5.639  20.299  0.00  0.00    +0.000 A 
ATOM     27  C   UNL     1       2.307   6.318  19.082  0.00  0.00    +0.000 A 
ATOM     28  C   UNL     1       2.794   5.601  17.976  0.00  0.00    +0.000 A 
ATOM     29  C   UNL     1       3.127   4.240  18.092  0.00  0.00    +0.000 A 
BRANCH  24  31
ATOM     30  C   UNL     1       3.592   1.472  18.423  0.00  0.00    +0.000 C 
ATOM     31  O   UNL     1       3.308   2.278  19.560  0.00  0.00    +0.000 OA
ENDBRANCH  24  31
ENDBRANCH  19  27
ENDBRANCH  18  22
ENDBRANCH  17  18
ENDBRANCH   1  17
TORSDOF 8
ENDMDL
MODEL 3
REMARK VINA RESULT:      -7.5      5.630      7.894
REMARK  Name = 
REMARK  9 active torsions:
REMARK  status: ('A' for Active; 'I' for Inactive)
REMARK    1  A    between atoms: C_1  and  O_2
REMARK    2  A    between atoms: O_2  and  C_3
REMARK    3  A    between atoms: C_6  and  C_7
REMARK    4  A    between atoms: C_10  and  S_11
REMARK    5  A    between atoms: S_11  and  C_12
REMARK    6  A    between atoms: C_12  and  C_13
REMARK    7  A    between atoms: N_15  and  C_16
REMARK    8  A    between atoms: C_23  and  C_24
REMARK    9  A    between atoms: C_24  and  O_26
REMARK                            x       y       z     vdW  Elec       q    Type
REMARK                         _______ _______ _______ _____ _____    ______ ____
ROOT
ATOM      1  C   UNL     1       1.593   5.987  20.753  0.00  0.00    +0.000 C 
ATOM      2  O   UNL     1       0.484   5.721  20.299  0.00  0.00    +0.000 OA
ATOM      3  N   UNL     1       2.150   7.264  20.709  0.00  0.00    +0.000 N 
ATOM      4  H   UNL     1       3.152   7.256  20.496  0.00  0.00    +0.000 HD
ENDROOT
BRANCH   3   5
ATOM      5  C   UNL     1       1.425   8.350  20.126  0.00  0.00    +0.000 A 
ATOM      6  C   UNL     1       1.686   8.681  18.783  0.00  0.00    +0.000 A 
ATOM      7 CL   UNL     1       2.888   7.841  17.871  0.00  0.00    +0.000 Cl
ATOM      8  C   UNL     1       0.968   9.682  18.128  0.00  0.00    +0.000 A 
ATOM      9  C   UNL     1      -0.004  10.393  18.818  0.00  0.00    +0.000 A 
ATOM     10 CL   UNL     1      -0.873  11.643  18.019  0.00  0.00    +0.000 Cl
ATOM     11  C   UNL     1      -0.254  10.123  20.160  0.00  0.00    +0.000 A 
ATOM     12  C   UNL     1       0.461   9.109  20.825  0.00  0.00    +0.000 A 
BRANCH  12  13
ATOM     13  C   UNL     1       0.188   9.004  22.287  0.00  0.00    +0.000 C 
ATOM     14  O   UNL     1      -0.745   8.371  22.742  0.00  0.00    +0.000 OA
BRANCH  13  15
ATOM     15  O   UNL     1       0.967   9.813  23.038  0.00  0.00    +0.000 OA
ATOM     16  H   UNL     1       1.613  10.334  22.528  0.00  0.00    +0.000 HD
ENDBRANCH  13  15
ENDBRANCH  12  13
ENDBRANCH   3   5
BRANCH   1  17
ATOM     17  C   UNL     1       2.484   4.934  21.396  0.00  0.00    +0.000 C 
BRANCH  17  18
ATOM     18  S   UNL     1       1.907   3.262  20.985  0.00  0.00    +0.000 S 
BRANCH  18  22
ATOM     19  C   UNL     1       4.065   3.229  17.833  0.00  0.00    +0.000 A 
ATOM     20  N   UNL     1       3.480   2.054  17.695  0.00  0.00    +0.000 NA
ATOM     21  N   UNL     1       2.656   1.891  18.785  0.00  0.00    +0.000 NA
ATOM     22  C   UNL     1       2.768   2.988  19.505  0.00  0.00    +0.000 A 
ATOM     23  O   UNL     1       3.647   3.889  18.960  0.00  0.00    +0.000 OA
BRANCH  19  27
ATOM     24  C   UNL     1       6.981   5.037  15.262  0.00  0.00    +0.000 A 
ATOM     25  C   UNL     1       5.709   4.709  14.793  0.00  0.00    +0.000 A 
ATOM     26  C   UNL     1       4.761   4.138  15.650  0.00  0.00    +0.000 A 
ATOM     27  C   UNL     1       5.070   3.867  16.988  0.00  0.00    +0.000 A 
ATOM     28  C   UNL     1       6.356   4.193  17.452  0.00  0.00    +0.000 A 
ATOM     29  C   UNL     1       7.304   4.774  16.592  0.00  0.00    +0.000 A 
BRANCH  24  31
ATOM     30  C   UNL     1       7.719   5.008  13.013  0.00  0.00    +0.000 C 
ATOM     31  O   UNL     1       7.825   5.555  14.321  0.00  0.00    +0.000 OA
ENDBRANCH  24  31
ENDBRANCH  19  27
ENDBRANCH  18  22
ENDBRANCH  17  18
ENDBRANCH   1  17
TORSDOF 8
ENDMDL
MODEL 4
REMARK VINA RESULT:      -7.5      2.122      2.705
REMARK  Name = 
REMARK  9 active torsions:
REMARK  status: ('A' for Active; 'I' for Inactive)
REMARK    1  A    between atoms: C_1  and  O_2
REMARK    2  A    between atoms: O_2  and  C_3
REMARK    3  A    between atoms: C_6  and  C_7
REMARK    4  A    between atoms: C_10  and  S_11
REMARK    5  A    between atoms: S_11  and  C_12
REMARK    6  A    between atoms: C_12  and  C_13
REMARK    7  A    between atoms: N_15  and  C_16
REMARK    8  A    between atoms: C_23  and  C_24
REMARK    9  A    between atoms: C_24  and  O_26
REMARK                            x       y       z     vdW  Elec       q    Type
REMARK                         _______ _______ _______ _____ _____    ______ ____
ROOT
ATOM      1  C   UNL     1       5.012   5.044  18.647  0.00  0.00    +0.000 C 
ATOM      2  O   UNL     1       5.487   5.394  19.723  0.00  0.00    +0.000 OA
ATOM      3  N   UNL     1       3.686   5.278  18.285  0.00  0.00    +0.000 N 
ATOM      4  H   UNL     1       3.262   4.489  17.788  0.00  0.00    +0.000 HD
ENDROOT
BRANCH   3   5
ATOM      5  C   UNL     1       2.804   5.965  19.176  0.00  0.00    +0.000 A 
ATOM      6  C   UNL     1       2.579   7.339  18.965  0.00  0.00    +0.000 A 
ATOM      7 CL   UNL     1       3.385   8.193  17.698  0.00  0.00    +0.000 Cl
ATOM      8  C   UNL     1       1.678   8.058  19.750  0.00  0.00    +0.000 A 
ATOM      9  C   UNL     1       1.010   7.420  20.786  0.00  0.00    +0.000 A 
ATOM     10 CL   UNL     1      -0.083   8.312  21.771  0.00  0.00    +0.000 Cl
ATOM     11  C   UNL     1       1.244   6.075  21.052  0.00  0.00    +0.000 A 
ATOM     12  C   UNL     1       2.146   5.341  20.259  0.00  0.00    +0.000 A 
BRANCH  12  13
ATOM     13  C   UNL     1       2.401   3.948  20.724  0.00  0.00    +0.000 C 
ATOM     14  O   UNL     1       2.560   3.014  19.961  0.00  0.00    +0.000 OA
BRANCH  13  15
ATOM     15  O   UNL     1       2.267   3.795  22.060  0.00  0.00    +0.000 OA
ATOM     16  H   UNL     1       2.197   4.632  22.554  0.00  0.00    +0.000 HD
ENDBRANCH  13  15
ENDBRANCH  12  13
ENDBRANCH   3   5
BRANCH   1  17
ATOM     17  C   UNL     1       5.827   4.299  17.600  0.00  0.00    +0.000 C 
BRANCH  17  18
ATOM     18  S   UNL     1       7.587   4.730  17.726  0.00  0.00    +0.000 S 
BRANCH  18  22
ATOM     19  C   UNL     1       7.858   8.539  17.823  0.00  0.00    +0.000 A 
ATOM     20  N   UNL     1       6.905   8.422  16.917  0.00  0.00    +0.000 NA
ATOM     21  N   UNL     1       6.686   7.075  16.742  0.00  0.00    +0.000 NA
ATOM     22  C   UNL     1       7.500   6.455  17.572  0.00  0.00    +0.000 A 
ATOM     23  O   UNL     1       8.277   7.321  18.296  0.00  0.00    +0.000 OA
BRANCH  19  27
ATOM     24  C   UNL     1       9.789  12.103  19.218  0.00  0.00    +0.000 A 
ATOM     25  C   UNL     1       9.082  12.088  18.015  0.00  0.00    +0.000 A 
ATOM     26  C   UNL     1       8.441  10.922  17.583  0.00  0.00    +0.000 A 
ATOM     27  C   UNL     1       8.505   9.742  18.335  0.00  0.00    +0.000 A 
ATOM     28  C   UNL     1       9.225   9.763  19.542  0.00  0.00    +0.000 A 
ATOM     29  C   UNL     1       9.862  10.937  19.978  0.00  0.00    +0.000 A 
BRANCH  24  31
ATOM     30  C   UNL     1      10.406  14.265  18.476  0.00  0.00    +0.000 C 
ATOM     31  O   UNL     1      10.399  13.289  19.511  0.00  0.00    +0.000 OA
ENDBRANCH  24  31
ENDBRANCH  19  27
ENDBRANCH  18  22
ENDBRANCH  17  18
ENDBRANCH   1  17
TORSDOF 8
ENDMDL
MODEL 5
REMARK VINA RESULT:      -7.3      5.274      7.310
REMARK  Name = 
REMARK  9 active torsions:
REMARK  status: ('A' for Active; 'I' for Inactive)
REMARK    1  A    between atoms: C_1  and  O_2
REMARK    2  A    between atoms: O_2  and  C_3
REMARK    3  A    between atoms: C_6  and  C_7
REMARK    4  A    between atoms: C_10  and  S_11
REMARK    5  A    between atoms: S_11  and  C_12
REMARK    6  A    between atoms: C_12  and  C_13
REMARK    7  A    between atoms: N_15  and  C_16
REMARK    8  A    between atoms: C_23  and  C_24
REMARK    9  A    between atoms: C_24  and  O_26
REMARK                            x       y       z     vdW  Elec       q    Type
REMARK                         _______ _______ _______ _____ _____    ______ ____
ROOT
ATOM      1  C   UNL     1       1.705   5.190  20.696  0.00  0.00    +0.000 C 
ATOM      2  O   UNL     1       0.682   5.055  20.031  0.00  0.00    +0.000 OA
ATOM      3  N   UNL     1       2.420   6.385  20.765  0.00  0.00    +0.000 N 
ATOM      4  H   UNL     1       3.435   6.244  20.754  0.00  0.00    +0.000 HD
ENDROOT
BRANCH   3   5
ATOM      5  C   UNL     1       1.970   7.539  20.051  0.00  0.00    +0.000 A 
ATOM      6  C   UNL     1       1.113   8.439  20.712  0.00  0.00    +0.000 A 
ATOM      7 CL   UNL     1       0.570   8.138  22.324  0.00  0.00    +0.000 Cl
ATOM      8  C   UNL     1       0.689   9.621  20.104  0.00  0.00    +0.000 A 
ATOM      9  C   UNL     1       1.091   9.906  18.806  0.00  0.00    +0.000 A 
ATOM     10 CL   UNL     1       0.550  11.351  18.046  0.00  0.00    +0.000 Cl
ATOM     11  C   UNL     1       1.900   9.016  18.108  0.00  0.00    +0.000 A 
ATOM     12  C   UNL     1       2.336   7.825  18.718  0.00  0.00    +0.000 A 
BRANCH  12  13
ATOM     13  C   UNL     1       3.091   6.901  17.824  0.00  0.00    +0.000 C 
ATOM     14  O   UNL     1       4.064   7.248  17.182  0.00  0.00    +0.000 OA
BRANCH  13  15
ATOM     15  O   UNL     1       2.491   5.700  17.663  0.00  0.00    +0.000 OA
ATOM     16  H   UNL     1       2.889   5.144  16.969  0.00  0.00    +0.000 HD
ENDBRANCH  13  15
ENDBRANCH  12  13
ENDBRANCH   3   5
BRANCH   1  17
ATOM     17  C   UNL     1       2.308   4.049  21.503  0.00  0.00    +0.000 C 
BRANCH  17  18
ATOM     18  S   UNL     1       2.863   2.709  20.409  0.00  0.00    +0.000 S 
BRANCH  18  22
ATOM     19  C   UNL     1       5.484   4.197  18.063  0.00  0.00    +0.000 A 
ATOM     20  N   UNL     1       5.935   4.676  19.207  0.00  0.00    +0.000 NA
ATOM     21  N   UNL     1       5.074   4.238  20.188  0.00  0.00    +0.000 NA
ATOM     22  C   UNL     1       4.169   3.497  19.584  0.00  0.00    +0.000 A 
ATOM     23  O   UNL     1       4.365   3.423  18.230  0.00  0.00    +0.000 OA
BRANCH  19  27
ATOM     24  C   UNL     1       6.965   4.689  14.070  0.00  0.00    +0.000 A 
ATOM     25  C   UNL     1       5.978   3.748  14.363  0.00  0.00    +0.000 A 
ATOM     26  C   UNL     1       5.490   3.613  15.668  0.00  0.00    +0.000 A 
ATOM     27  C   UNL     1       5.991   4.404  16.710  0.00  0.00    +0.000 A 
ATOM     28  C   UNL     1       6.989   5.345  16.408  0.00  0.00    +0.000 A 
ATOM     29  C   UNL     1       7.473   5.484  15.096  0.00  0.00    +0.000 A 
BRANCH  24  31
ATOM     30  C   UNL     1       6.752   3.764  11.901  0.00  0.00    +0.000 C 
ATOM     31  O   UNL     1       7.381   4.698  12.769  0.00  0.00    +0.000 OA
ENDBRANCH  24  31
ENDBRANCH  19  27
ENDBRANCH  18  22
ENDBRANCH  17  18
ENDBRANCH   1  17
TORSDOF 8
ENDMDL
MODEL 6
REMARK VINA RESULT:      -7.3      2.197      2.941
REMARK  Name = 
REMARK  9 active torsions:
REMARK  status: ('A' for Active; 'I' for Inactive)
REMARK    1  A    between atoms: C_1  and  O_2
REMARK    2  A    between atoms: O_2  and  C_3
REMARK    3  A    between atoms: C_6  and  C_7
REMARK    4  A    between atoms: C_10  and  S_11
REMARK    5  A    between atoms: S_11  and  C_12
REMARK    6  A    between atoms: C_12  and  C_13
REMARK    7  A    between atoms: N_15  and  C_16
REMARK    8  A    between atoms: C_23  and  C_24
REMARK    9  A    between atoms: C_24  and  O_26
REMARK                            x       y       z     vdW  Elec       q    Type
REMARK                         _______ _______ _______ _____ _____    ______ ____
ROOT
ATOM      1  C   UNL     1       4.774   3.922  17.364  0.00  0.00    +0.000 C 
ATOM      2  O   UNL     1       3.782   3.395  16.870  0.00  0.00    +0.000 OA
ATOM      3  N   UNL     1       4.902   4.184  18.727  0.00  0.00    +0.000 N 
ATOM      4  H   UNL     1       5.346   5.087  18.921  0.00  0.00    +0.000 HD
ENDROOT
BRANCH   3   5
ATOM      5  C   UNL     1       3.854   3.828  19.633  0.00  0.00    +0.000 A 
ATOM      6  C   UNL     1       3.886   2.549  20.220  0.00  0.00    +0.000 A 
ATOM      7 CL   UNL     1       5.124   1.412  19.821  0.00  0.00    +0.000 Cl
ATOM      8  C   UNL     1       2.937   2.157  21.165  0.00  0.00    +0.000 A 
ATOM      9  C   UNL     1       1.917   3.031  21.515  0.00  0.00    +0.000 A 
ATOM     10 CL   UNL     1       0.734   2.541  22.662  0.00  0.00    +0.000 Cl
ATOM     11  C   UNL     1       1.829   4.286  20.920  0.00  0.00    +0.000 A 
ATOM     12  C   UNL     1       2.787   4.690  19.971  0.00  0.00    +0.000 A 
BRANCH  12  13
ATOM     13  C   UNL     1       2.510   6.001  19.318  0.00  0.00    +0.000 C 
ATOM     14  O   UNL     1       2.410   7.042  19.939  0.00  0.00    +0.000 OA
BRANCH  13  15
ATOM     15  O   UNL     1       2.212   5.894  18.004  0.00  0.00    +0.000 OA
ATOM     16  H   UNL     1       1.904   5.010  17.734  0.00  0.00    +0.000 HD
ENDBRANCH  13  15
ENDBRANCH  12  13
ENDBRANCH   3   5
BRANCH   1  17
ATOM     17  C   UNL     1       5.965   4.361  16.525  0.00  0.00    +0.000 C 
BRANCH  17  18
ATOM     18  S   UNL     1       5.778   6.088  15.993  0.00  0.00    +0.000 S 
BRANCH  18  22
ATOM     19  C   UNL     1       8.044   8.348  18.077  0.00  0.00    +0.000 A 
ATOM     20  N   UNL     1       8.250   7.209  18.711  0.00  0.00    +0.000 NA
ATOM     21  N   UNL     1       7.474   6.261  18.083  0.00  0.00    +0.000 NA
ATOM     22  C   UNL     1       6.867   6.875  17.090  0.00  0.00    +0.000 A 
ATOM     23  O   UNL     1       7.182   8.207  17.020  0.00  0.00    +0.000 OA
BRANCH  19  27
ATOM     24  C   UNL     1       9.609  12.271  18.811  0.00  0.00    +0.000 A 
ATOM     25  C   UNL     1       8.700  12.038  17.779  0.00  0.00    +0.000 A 
ATOM     26  C   UNL     1       8.183  10.756  17.564  0.00  0.00    +0.000 A 
ATOM     27  C   UNL     1       8.576   9.677  18.366  0.00  0.00    +0.000 A 
ATOM     28  C   UNL     1       9.497   9.918  19.399  0.00  0.00    +0.000 A 
ATOM     29  C   UNL     1      10.010  11.208  19.618  0.00  0.00    +0.000 A 
BRANCH  24  31
ATOM     30  C   UNL     1      11.185  13.879  18.078  0.00  0.00    +0.000 C 
ATOM     31  O   UNL     1      10.067  13.556  18.895  0.00  0.00    +0.000 OA
ENDBRANCH  24  31
ENDBRANCH  19  27
ENDBRANCH  18  22
ENDBRANCH  17  18
ENDBRANCH   1  17
TORSDOF 8
ENDMDL
MODEL 7
REMARK VINA RESULT:      -7.3      2.254      2.885
REMARK  Name = 
REMARK  9 active torsions:
REMARK  status: ('A' for Active; 'I' for Inactive)
REMARK    1  A    between atoms: C_1  and  O_2
REMARK    2  A    between atoms: O_2  and  C_3
REMARK    3  A    between atoms: C_6  and  C_7
REMARK    4  A    between atoms: C_10  and  S_11
REMARK    5  A    between atoms: S_11  and  C_12
REMARK    6  A    between atoms: C_12  and  C_13
REMARK    7  A    between atoms: N_15  and  C_16
REMARK    8  A    between atoms: C_23  and  C_24
REMARK    9  A    between atoms: C_24  and  O_26
REMARK                            x       y       z     vdW  Elec       q    Type
REMARK                         _______ _______ _______ _____ _____    ______ ____
ROOT
ATOM      1  C   UNL     1       4.966   4.596  17.614  0.00  0.00    +0.000 C 
ATOM      2  O   UNL     1       5.660   4.086  18.488  0.00  0.00    +0.000 OA
ATOM      3  N   UNL     1       3.578   4.695  17.701  0.00  0.00    +0.000 N 
ATOM      4  H   UNL     1       3.107   4.511  16.810  0.00  0.00    +0.000 HD
ENDROOT
BRANCH   3   5
ATOM      5  C   UNL     1       2.889   4.202  18.853  0.00  0.00    +0.000 A 
ATOM      6  C   UNL     1       2.682   2.814  18.962  0.00  0.00    +0.000 A 
ATOM      7 CL   UNL     1       3.193   1.732  17.717  0.00  0.00    +0.000 Cl
ATOM      8  C   UNL     1       2.079   2.254  20.090  0.00  0.00    +0.000 A 
ATOM      9  C   UNL     1       1.642   3.081  21.115  0.00  0.00    +0.000 A 
ATOM     10 CL   UNL     1       0.878   2.395  22.494  0.00  0.00    +0.000 Cl
ATOM     11  C   UNL     1       1.790   4.461  21.018  0.00  0.00    +0.000 A 
ATOM     12  C   UNL     1       2.403   5.032  19.887  0.00  0.00    +0.000 A 
BRANCH  12  13
ATOM     13  C   UNL     1       2.387   6.522  19.849  0.00  0.00    +0.000 C 
ATOM     14  O   UNL     1       2.946   7.168  18.983  0.00  0.00    +0.000 OA
BRANCH  13  15
ATOM     15  O   UNL     1       1.844   7.082  20.953  0.00  0.00    +0.000 OA
ATOM     16  H   UNL     1       1.729   6.466  21.699  0.00  0.00    +0.000 HD
ENDBRANCH  13  15
ENDBRANCH  12  13
ENDBRANCH   3   5
BRANCH   1  17
ATOM     17  C   UNL     1       5.557   5.158  16.329  0.00  0.00    +0.000 C 
BRANCH  17  18
ATOM     18  S   UNL     1       5.350   6.961  16.258  0.00  0.00    +0.000 S 
BRANCH  18  22
ATOM     19  C   UNL     1       8.183   8.675  18.162  0.00  0.00    +0.000 A 
ATOM     20  N   UNL     1       8.458   7.421  18.468  0.00  0.00    +0.000 NA
ATOM     21  N   UNL     1       7.497   6.645  17.860  0.00  0.00    +0.000 NA
ATOM     22  C   UNL     1       6.714   7.472  17.199  0.00  0.00    +0.000 A 
ATOM     23  O   UNL     1       7.089   8.782  17.342  0.00  0.00    +0.000 OA
BRANCH  19  27
ATOM     24  C   UNL     1      10.081  12.272  19.518  0.00  0.00    +0.000 A 
ATOM     25  C   UNL     1       9.718  11.266  20.413  0.00  0.00    +0.000 A 
ATOM     26  C   UNL     1       9.117  10.089  19.953  0.00  0.00    +0.000 A 
ATOM     27  C   UNL     1       8.852   9.900  18.591  0.00  0.00    +0.000 A 
ATOM     28  C   UNL     1       9.214  10.920  17.696  0.00  0.00    +0.000 A 
ATOM     29  C   UNL     1       9.825  12.099  18.159  0.00  0.00    +0.000 A 
BRANCH  24  31
ATOM     30  C   UNL     1      10.591  14.575  19.317  0.00  0.00    +0.000 C 
ATOM     31  O   UNL     1      10.626  13.384  20.094  0.00  0.00    +0.000 OA
ENDBRANCH  24  31
ENDBRANCH  19  27
ENDBRANCH  18  22
ENDBRANCH  17  18
ENDBRANCH   1  17
TORSDOF 8
ENDMDL
MODEL 8
REMARK VINA RESULT:      -7.2      4.926      7.487
REMARK  Name = 
REMARK  9 active torsions:
REMARK  status: ('A' for Active; 'I' for Inactive)
REMARK    1  A    between atoms: C_1  and  O_2
REMARK    2  A    between atoms: O_2  and  C_3
REMARK    3  A    between atoms: C_6  and  C_7
REMARK    4  A    between atoms: C_10  and  S_11
REMARK    5  A    between atoms: S_11  and  C_12
REMARK    6  A    between atoms: C_12  and  C_13
REMARK    7  A    between atoms: N_15  and  C_16
REMARK    8  A    between atoms: C_23  and  C_24
REMARK    9  A    between atoms: C_24  and  O_26
REMARK                            x       y       z     vdW  Elec       q    Type
REMARK                         _______ _______ _______ _____ _____    ______ ____
ROOT
ATOM      1  C   UNL     1       4.195   3.443  19.743  0.00  0.00    +0.000 C 
ATOM      2  O   UNL     1       4.612   2.365  19.329  0.00  0.00    +0.000 OA
ATOM      3  N   UNL     1       4.467   4.659  19.118  0.00  0.00    +0.000 N 
ATOM      4  H   UNL     1       4.656   5.416  19.782  0.00  0.00    +0.000 HD
ENDROOT
BRANCH   3   5
ATOM      5  C   UNL     1       5.258   4.699  17.927  0.00  0.00    +0.000 A 
ATOM      6  C   UNL     1       4.712   4.160  16.746  0.00  0.00    +0.000 A 
ATOM      7 CL   UNL     1       3.152   3.419  16.738  0.00  0.00    +0.000 Cl
ATOM      8  C   UNL     1       5.397   4.226  15.532  0.00  0.00    +0.000 A 
ATOM      9  C   UNL     1       6.657   4.804  15.487  0.00  0.00    +0.000 A 
ATOM     10 CL   UNL     1       7.512   4.865  13.995  0.00  0.00    +0.000 Cl
ATOM     11  C   UNL     1       7.245   5.305  16.644  0.00  0.00    +0.000 A 
ATOM     12  C   UNL     1       6.558   5.248  17.871  0.00  0.00    +0.000 A 
BRANCH  12  13
ATOM     13  C   UNL     1       7.344   5.701  19.053  0.00  0.00    +0.000 C 
ATOM     14  O   UNL     1       7.108   5.332  20.187  0.00  0.00    +0.000 OA
BRANCH  13  15
ATOM     15  O   UNL     1       8.224   6.687  18.767  0.00  0.00    +0.000 OA
ATOM     16  H   UNL     1       9.064   6.629  19.258  0.00  0.00    +0.000 HD
ENDBRANCH  13  15
ENDBRANCH  12  13
ENDBRANCH   3   5
BRANCH   1  17
ATOM     17  C   UNL     1       3.347   3.559  21.002  0.00  0.00    +0.000 C 
BRANCH  17  18
ATOM     18  S   UNL     1       1.607   3.863  20.581  0.00  0.00    +0.000 S 
BRANCH  18  22
ATOM     19  C   UNL     1       1.252   7.665  20.689  0.00  0.00    +0.000 A 
ATOM     20  N   UNL     1       2.071   7.563  19.660  0.00  0.00    +0.000 NA
ATOM     21  N   UNL     1       2.326   6.221  19.486  0.00  0.00    +0.000 NA
ATOM     22  C   UNL     1       1.623   5.588  20.402  0.00  0.00    +0.000 A 
ATOM     23  O   UNL     1       0.912   6.441  21.205  0.00  0.00    +0.000 OA
BRANCH  19  27
ATOM     24  C   UNL     1      -0.427  11.120  22.592  0.00  0.00    +0.000 A 
ATOM     25  C   UNL     1      -0.623   9.841  23.114  0.00  0.00    +0.000 A 
ATOM     26  C   UNL     1      -0.052   8.725  22.493  0.00  0.00    +0.000 A 
ATOM     27  C   UNL     1       0.713   8.862  21.328  0.00  0.00    +0.000 A 
ATOM     28  C   UNL     1       0.901  10.151  20.804  0.00  0.00    +0.000 A 
ATOM     29  C   UNL     1       0.333  11.272  21.433  0.00  0.00    +0.000 A 
BRANCH  24  31
ATOM     30  C   UNL     1      -0.759  13.448  22.861  0.00  0.00    +0.000 C 
ATOM     31  O   UNL     1      -1.065  12.121  23.269  0.00  0.00    +0.000 OA
ENDBRANCH  24  31
ENDBRANCH  19  27
ENDBRANCH  18  22
ENDBRANCH  17  18
ENDBRANCH   1  17
TORSDOF 8
ENDMDL
MODEL 9
REMARK VINA RESULT:      -7.1      7.883     10.724
REMARK  Name = 
REMARK  9 active torsions:
REMARK  status: ('A' for Active; 'I' for Inactive)
REMARK    1  A    between atoms: C_1  and  O_2
REMARK    2  A    between atoms: O_2  and  C_3
REMARK    3  A    between atoms: C_6  and  C_7
REMARK    4  A    between atoms: C_10  and  S_11
REMARK    5  A    between atoms: S_11  and  C_12
REMARK    6  A    between atoms: C_12  and  C_13
REMARK    7  A    between atoms: N_15  and  C_16
REMARK    8  A    between atoms: C_23  and  C_24
REMARK    9  A    between atoms: C_24  and  O_26
REMARK                            x       y       z     vdW  Elec       q    Type
REMARK                         _______ _______ _______ _____ _____    ______ ____
ROOT
ATOM      1  C   UNL     1      -0.544  12.590  19.350  0.00  0.00    +0.000 C 
ATOM      2  O   UNL     1      -0.754  13.657  18.781  0.00  0.00    +0.000 OA
ATOM      3  N   UNL     1      -1.536  11.638  19.581  0.00  0.00    +0.000 N 
ATOM      4  H   UNL     1      -1.459  11.196  20.501  0.00  0.00    +0.000 HD
ENDROOT
BRANCH   3   5
ATOM      5  C   UNL     1      -2.877  11.870  19.140  0.00  0.00    +0.000 A 
ATOM      6  C   UNL     1      -3.269  11.347  17.894  0.00  0.00    +0.000 A 
ATOM      7 CL   UNL     1      -2.152  10.493  16.890  0.00  0.00    +0.000 Cl
ATOM      8  C   UNL     1      -4.579  11.473  17.431  0.00  0.00    +0.000 A 
ATOM      9  C   UNL     1      -5.513  12.158  18.196  0.00  0.00    +0.000 A 
ATOM     10 CL   UNL     1      -7.122  12.335  17.615  0.00  0.00    +0.000 Cl
ATOM     11  C   UNL     1      -5.147  12.728  19.411  0.00  0.00    +0.000 A 
ATOM     12  C   UNL     1      -3.829  12.598  19.887  0.00  0.00    +0.000 A 
BRANCH  12  13
ATOM     13  C   UNL     1      -3.535  13.357  21.136  0.00  0.00    +0.000 C 
ATOM     14  O   UNL     1      -4.070  13.115  22.200  0.00  0.00    +0.000 OA
BRANCH  13  15
ATOM     15  O   UNL     1      -2.753  14.441  20.933  0.00  0.00    +0.000 OA
ATOM     16  H   UNL     1      -3.219  15.293  21.019  0.00  0.00    +0.000 HD
ENDBRANCH  13  15
ENDBRANCH  12  13
ENDBRANCH   3   5
BRANCH   1  17
ATOM     17  C   UNL     1       0.830  12.206  19.880  0.00  0.00    +0.000 C 
BRANCH  17  18
ATOM     18  S   UNL     1       0.773  10.595  20.716  0.00  0.00    +0.000 S 
BRANCH  18  22
ATOM     19  C   UNL     1       2.150   7.882  18.407  0.00  0.00    +0.000 A 
ATOM     20  N   UNL     1       2.088   8.877  17.543  0.00  0.00    +0.000 NA
ATOM     21  N   UNL     1       1.583   9.962  18.222  0.00  0.00    +0.000 NA
ATOM     22  C   UNL     1       1.394   9.569  19.464  0.00  0.00    +0.000 A 
ATOM     23  O   UNL     1       1.734   8.255  19.660  0.00  0.00    +0.000 OA
BRANCH  19  27
ATOM     24  C   UNL     1       3.446   3.853  17.727  0.00  0.00    +0.000 A 
ATOM     25  C   UNL     1       4.363   4.873  17.983  0.00  0.00    +0.000 A 
ATOM     26  C   UNL     1       3.923   6.179  18.223  0.00  0.00    +0.000 A 
ATOM     27  C   UNL     1       2.559   6.497  18.196  0.00  0.00    +0.000 A 
ATOM     28  C   UNL     1       1.642   5.466  17.930  0.00  0.00    +0.000 A 
ATOM     29  C   UNL     1       2.086   4.153  17.697  0.00  0.00    +0.000 A 
BRANCH  24  31
ATOM     30  C   UNL     1       3.612   1.572  18.339  0.00  0.00    +0.000 C 
ATOM     31  O   UNL     1       4.002   2.631  17.474  0.00  0.00    +0.000 OA
ENDBRANCH  24  31
ENDBRANCH  19  27
ENDBRANCH  18  22
ENDBRANCH  17  18
ENDBRANCH   1  17
TORSDOF 8
ENDMDL
