MODEL 1
REMARK VINA RESULT:      -5.7      0.000      0.000
REMARK  Name = 
REMARK  11 active torsions:
REMARK  status: ('A' for Active; 'I' for Inactive)
REMARK    1  A    between atoms: C_1  and  N_2
REMARK    2  A    between atoms: N_2  and  C_3
REMARK    3  A    between atoms: N_2  and  N_7
REMARK    4  A    between atoms: C_3  and  C_4
REMARK    5  A    between atoms: C_4  and  O_6
REMARK    6  A    between atoms: C_8  and  C_10
REMARK    7  A    between atoms: C_10  and  C_11
REMARK    8  A    between atoms: C_11  and  N_12
REMARK    9  A    between atoms: C_11  and  C_13
REMARK   10  A    between atoms: C_13  and  C_14
REMARK   11  A    between atoms: C_16  and  N_17
REMARK                            x       y       z     vdW  Elec       q    Type
REMARK                         _______ _______ _______ _____ _____    ______ ____
ROOT
ATOM      1  C   UNL     1       2.761   5.750  18.104  0.00  0.00    +0.000 C 
ENDROOT
BRANCH   1   3
ATOM      2  N   UNL     1       4.789   5.366  16.806  0.00  0.00    +0.000 N 
ATOM      3  C   UNL     1       3.667   4.778  17.376  0.00  0.00    +0.000 C 
ATOM      4  O   UNL     1       3.403   3.577  17.324  0.00  0.00    +0.000 OA
ATOM      5  H   UNL     1       5.033   6.330  17.036  0.00  0.00    +0.000 HD
BRANCH   2   7
ATOM      6  C   UNL     1       5.670   4.585  14.735  0.00  0.00    +0.000 C 
ATOM      7  N   UNL     1       5.773   4.554  16.193  0.00  0.00    +0.000 NA
BRANCH   7   8
ATOM      8  C   UNL     1       7.138   4.846  16.681  0.00  0.00    +0.000 C 
BRANCH   8   9
ATOM      9  C   UNL     1       7.276   6.179  17.417  0.00  0.00    +0.000 C 
ATOM     10  O   UNL     1       7.433   7.277  16.900  0.00  0.00    +0.000 OA
BRANCH   9  11
ATOM     11  O   UNL     1       7.183   6.038  18.765  0.00  0.00    +0.000 OA
ATOM     12  H   UNL     1       6.277   5.872  19.091  0.00  0.00    +0.000 HD
ENDBRANCH   9  11
ENDBRANCH   8   9
ENDBRANCH   7   8
ENDBRANCH   2   7
ENDBRANCH   1   3
BRANCH   1  13
ATOM     13  C   UNL     1       3.104   5.892  19.593  0.00  0.00    +0.000 C 
BRANCH  13  14
ATOM     14  N   UNL     1       4.463   5.351  19.797  0.00  0.00    +0.000 NA
ATOM     15  H   UNL     1       4.872   5.117  18.890  0.00  0.00    +0.000 HD
ATOM     16  H   UNL     1       4.398   4.461  20.293  0.00  0.00    +0.000 HD
ENDBRANCH  13  14
BRANCH  13  17
ATOM     17  C   UNL     1       2.087   5.174  20.511  0.00  0.00    +0.000 C 
BRANCH  17  18
ATOM     18  C   UNL     1       2.225   3.671  20.473  0.00  0.00    +0.000 C 
ATOM     19  C   UNL     1       1.271   2.826  21.280  0.00  0.00    +0.000 C 
ATOM     20  C   UNL     1       1.188   2.822  19.782  0.00  0.00    +0.000 C 
BRANCH  20  21
ATOM     21  N   UNL     1       1.591   1.624  19.056  0.00  0.00    +0.000 NA
ATOM     22  H   UNL     1       0.905   1.354  18.352  0.00  0.00    +0.000 HD
ATOM     23  H   UNL     1       1.696   0.825  19.680  0.00  0.00    +0.000 HD
ENDBRANCH  20  21
ENDBRANCH  17  18
ENDBRANCH  13  17
ENDBRANCH   1  13
TORSDOF 10
ENDMDL
MODEL 2
REMARK VINA RESULT:      -5.5      1.967      3.007
REMARK  Name = 
REMARK  11 active torsions:
REMARK  status: ('A' for Active; 'I' for Inactive)
REMARK    1  A    between atoms: C_1  and  N_2
REMARK    2  A    between atoms: N_2  and  C_3
REMARK    3  A    between atoms: N_2  and  N_7
REMARK    4  A    between atoms: C_3  and  C_4
REMARK    5  A    between atoms: C_4  and  O_6
REMARK    6  A    between atoms: C_8  and  C_10
REMARK    7  A    between atoms: C_10  and  C_11
REMARK    8  A    between atoms: C_11  and  N_12
REMARK    9  A    between atoms: C_11  and  C_13
REMARK   10  A    between atoms: C_13  and  C_14
REMARK   11  A    between atoms: C_16  and  N_17
REMARK                            x       y       z     vdW  Elec       q    Type
REMARK                         _______ _______ _______ _____ _____    ______ ____
ROOT
ATOM      1  C   UNL     1       3.136   3.092  17.427  0.00  0.00    +0.000 C 
ENDROOT
BRANCH   1   3
ATOM      2  N   UNL     1       5.395   4.006  17.387  0.00  0.00    +0.000 N 
ATOM      3  C   UNL     1       4.043   4.304  17.491  0.00  0.00    +0.000 C 
ATOM      4  O   UNL     1       3.584   5.438  17.617  0.00  0.00    +0.000 OA
ATOM      5  H   UNL     1       5.693   3.068  17.112  0.00  0.00    +0.000 HD
BRANCH   2   7
ATOM      6  C   UNL     1       7.668   4.615  17.757  0.00  0.00    +0.000 C 
ATOM      7  N   UNL     1       6.343   5.054  17.321  0.00  0.00    +0.000 NA
BRANCH   7   8
ATOM      8  C   UNL     1       6.362   5.725  16.004  0.00  0.00    +0.000 C 
BRANCH   8   9
ATOM      9  C   UNL     1       6.858   4.848  14.854  0.00  0.00    +0.000 C 
ATOM     10  O   UNL     1       6.428   3.743  14.551  0.00  0.00    +0.000 OA
BRANCH   9  11
ATOM     11  O   UNL     1       7.856   5.437  14.146  0.00  0.00    +0.000 OA
ATOM     12  H   UNL     1       7.870   5.201  13.198  0.00  0.00    +0.000 HD
ENDBRANCH   9  11
ENDBRANCH   8   9
ENDBRANCH   7   8
ENDBRANCH   2   7
ENDBRANCH   1   3
BRANCH   1  13
ATOM     13  C   UNL     1       3.269   2.177  18.652  0.00  0.00    +0.000 C 
BRANCH  13  14
ATOM     14  N   UNL     1       3.892   0.914  18.207  0.00  0.00    +0.000 NA
ATOM     15  H   UNL     1       3.612   0.160  18.837  0.00  0.00    +0.000 HD
ATOM     16  H   UNL     1       4.904   0.984  18.314  0.00  0.00    +0.000 HD
ENDBRANCH  13  14
BRANCH  13  17
ATOM     17  C   UNL     1       1.913   1.903  19.342  0.00  0.00    +0.000 C 
BRANCH  17  18
ATOM     18  C   UNL     1       1.430   3.072  20.168  0.00  0.00    +0.000 C 
ATOM     19  C   UNL     1       1.540   3.004  21.670  0.00  0.00    +0.000 C 
ATOM     20  C   UNL     1       2.412   3.952  20.899  0.00  0.00    +0.000 C 
BRANCH  20  21
ATOM     21  N   UNL     1       2.166   5.385  21.010  0.00  0.00    +0.000 NA
ATOM     22  H   UNL     1       1.966   5.809  20.105  0.00  0.00    +0.000 HD
ATOM     23  H   UNL     1       2.974   5.876  21.387  0.00  0.00    +0.000 HD
ENDBRANCH  20  21
ENDBRANCH  17  18
ENDBRANCH  13  17
ENDBRANCH   1  13
TORSDOF 10
ENDMDL
MODEL 3
REMARK VINA RESULT:      -5.5      1.404      1.568
REMARK  Name = 
REMARK  11 active torsions:
REMARK  status: ('A' for Active; 'I' for Inactive)
REMARK    1  A    between atoms: C_1  and  N_2
REMARK    2  A    between atoms: N_2  and  C_3
REMARK    3  A    between atoms: N_2  and  N_7
REMARK    4  A    between atoms: C_3  and  C_4
REMARK    5  A    between atoms: C_4  and  O_6
REMARK    6  A    between atoms: C_8  and  C_10
REMARK    7  A    between atoms: C_10  and  C_11
REMARK    8  A    between atoms: C_11  and  N_12
REMARK    9  A    between atoms: C_11  and  C_13
REMARK   10  A    between atoms: C_13  and  C_14
REMARK   11  A    between atoms: C_16  and  N_17
REMARK                            x       y       z     vdW  Elec       q    Type
REMARK                         _______ _______ _______ _____ _____    ______ ____
ROOT
ATOM      1  C   UNL     1       2.596   4.729  17.909  0.00  0.00    +0.000 C 
ENDROOT
BRANCH   1   3
ATOM      2  N   UNL     1       4.847   5.084  17.044  0.00  0.00    +0.000 N 
ATOM      3  C   UNL     1       4.014   4.222  17.745  0.00  0.00    +0.000 C 
ATOM      4  O   UNL     1       4.362   3.139  18.213  0.00  0.00    +0.000 OA
ATOM      5  H   UNL     1       4.540   6.037  16.838  0.00  0.00    +0.000 HD
BRANCH   2   7
ATOM      6  C   UNL     1       6.558   4.343  15.562  0.00  0.00    +0.000 C 
ATOM      7  N   UNL     1       6.224   4.783  16.916  0.00  0.00    +0.000 NA
BRANCH   7   8
ATOM      8  C   UNL     1       7.095   5.875  17.400  0.00  0.00    +0.000 C 
BRANCH   8   9
ATOM      9  C   UNL     1       7.359   5.854  18.906  0.00  0.00    +0.000 C 
ATOM     10  O   UNL     1       6.714   5.238  19.744  0.00  0.00    +0.000 OA
BRANCH   9  11
ATOM     11  O   UNL     1       8.439   6.600  19.253  0.00  0.00    +0.000 OA
ATOM     12  H   UNL     1       8.219   7.480  19.619  0.00  0.00    +0.000 HD
ENDBRANCH   9  11
ENDBRANCH   8   9
ENDBRANCH   7   8
ENDBRANCH   2   7
ENDBRANCH   1   3
BRANCH   1  13
ATOM     13  C   UNL     1       2.389   5.528  19.203  0.00  0.00    +0.000 C 
BRANCH  13  14
ATOM     14  N   UNL     1       3.714   5.744  19.817  0.00  0.00    +0.000 NA
ATOM     15  H   UNL     1       3.803   6.724  20.090  0.00  0.00    +0.000 HD
ATOM     16  H   UNL     1       4.438   5.601  19.112  0.00  0.00    +0.000 HD
ENDBRANCH  13  14
BRANCH  13  17
ATOM     17  C   UNL     1       1.437   4.821  20.195  0.00  0.00    +0.000 C 
BRANCH  17  18
ATOM     18  C   UNL     1       2.169   3.959  21.196  0.00  0.00    +0.000 C 
ATOM     19  C   UNL     1       1.475   2.749  21.770  0.00  0.00    +0.000 C 
ATOM     20  C   UNL     1       2.626   2.571  20.824  0.00  0.00    +0.000 C 
BRANCH  20  21
ATOM     21  N   UNL     1       3.889   2.056  21.339  0.00  0.00    +0.000 NA
ATOM     22  H   UNL     1       4.308   2.684  22.024  0.00  0.00    +0.000 HD
ATOM     23  H   UNL     1       4.577   1.938  20.596  0.00  0.00    +0.000 HD
ENDBRANCH  20  21
ENDBRANCH  17  18
ENDBRANCH  13  17
ENDBRANCH   1  13
TORSDOF 10
ENDMDL
MODEL 4
REMARK VINA RESULT:      -5.3      2.334      6.200
REMARK  Name = 
REMARK  11 active torsions:
REMARK  status: ('A' for Active; 'I' for Inactive)
REMARK    1  A    between atoms: C_1  and  N_2
REMARK    2  A    between atoms: N_2  and  C_3
REMARK    3  A    between atoms: N_2  and  N_7
REMARK    4  A    between atoms: C_3  and  C_4
REMARK    5  A    between atoms: C_4  and  O_6
REMARK    6  A    between atoms: C_8  and  C_10
REMARK    7  A    between atoms: C_10  and  C_11
REMARK    8  A    between atoms: C_11  and  N_12
REMARK    9  A    between atoms: C_11  and  C_13
REMARK   10  A    between atoms: C_13  and  C_14
REMARK   11  A    between atoms: C_16  and  N_17
REMARK                            x       y       z     vdW  Elec       q    Type
REMARK                         _______ _______ _______ _____ _____    ______ ____
ROOT
ATOM      1  C   UNL     1       5.153   5.740  16.291  0.00  0.00    +0.000 C 
ENDROOT
BRANCH   1   3
ATOM      2  N   UNL     1       3.616   5.101  18.071  0.00  0.00    +0.000 N 
ATOM      3  C   UNL     1       4.903   5.524  17.770  0.00  0.00    +0.000 C 
ATOM      4  O   UNL     1       5.791   5.712  18.601  0.00  0.00    +0.000 OA
ATOM      5  H   UNL     1       2.988   4.801  17.324  0.00  0.00    +0.000 HD
BRANCH   2   7
ATOM      6  C   UNL     1       2.351   5.716  19.994  0.00  0.00    +0.000 C 
ATOM      7  N   UNL     1       3.283   4.756  19.403  0.00  0.00    +0.000 NA
BRANCH   7   8
ATOM      8  C   UNL     1       2.829   3.355  19.534  0.00  0.00    +0.000 C 
BRANCH   8   9
ATOM      9  C   UNL     1       3.864   2.313  19.112  0.00  0.00    +0.000 C 
ATOM     10  O   UNL     1       3.635   1.256  18.539  0.00  0.00    +0.000 OA
BRANCH   9  11
ATOM     11  O   UNL     1       5.132   2.686  19.426  0.00  0.00    +0.000 OA
ATOM     12  H   UNL     1       5.696   1.959  19.755  0.00  0.00    +0.000 HD
ENDBRANCH   9  11
ENDBRANCH   8   9
ENDBRANCH   7   8
ENDBRANCH   2   7
ENDBRANCH   1   3
BRANCH   1  13
ATOM     13  C   UNL     1       5.227   4.429  15.497  0.00  0.00    +0.000 C 
BRANCH  13  14
ATOM     14  N   UNL     1       5.783   3.392  16.388  0.00  0.00    +0.000 NA
ATOM     15  H   UNL     1       5.209   3.328  17.231  0.00  0.00    +0.000 HD
ATOM     16  H   UNL     1       6.701   3.691  16.718  0.00  0.00    +0.000 HD
ENDBRANCH  13  14
BRANCH  13  17
ATOM     17  C   UNL     1       6.076   4.556  14.211  0.00  0.00    +0.000 C 
BRANCH  17  18
ATOM     18  C   UNL     1       5.957   3.350  13.310  0.00  0.00    +0.000 C 
ATOM     19  C   UNL     1       5.147   3.458  12.043  0.00  0.00    +0.000 C 
ATOM     20  C   UNL     1       6.640   3.325  11.966  0.00  0.00    +0.000 C 
BRANCH  20  21
ATOM     21  N   UNL     1       7.212   2.083  11.461  0.00  0.00    +0.000 NA
ATOM     22  H   UNL     1       7.446   1.436  12.213  0.00  0.00    +0.000 HD
ATOM     23  H   UNL     1       8.075   2.250  10.945  0.00  0.00    +0.000 HD
ENDBRANCH  20  21
ENDBRANCH  17  18
ENDBRANCH  13  17
ENDBRANCH   1  13
TORSDOF 10
ENDMDL
MODEL 5
REMARK VINA RESULT:      -5.3      2.306      6.334
REMARK  Name = 
REMARK  11 active torsions:
REMARK  status: ('A' for Active; 'I' for Inactive)
REMARK    1  A    between atoms: C_1  and  N_2
REMARK    2  A    between atoms: N_2  and  C_3
REMARK    3  A    between atoms: N_2  and  N_7
REMARK    4  A    between atoms: C_3  and  C_4
REMARK    5  A    between atoms: C_4  and  O_6
REMARK    6  A    between atoms: C_8  and  C_10
REMARK    7  A    between atoms: C_10  and  C_11
REMARK    8  A    between atoms: C_11  and  N_12
REMARK    9  A    between atoms: C_11  and  C_13
REMARK   10  A    between atoms: C_13  and  C_14
REMARK   11  A    between atoms: C_16  and  N_17
REMARK                            x       y       z     vdW  Elec       q    Type
REMARK                         _______ _______ _______ _____ _____    ______ ____
ROOT
ATOM      1  C   UNL     1       5.364   4.465  16.241  0.00  0.00    +0.000 C 
ENDROOT
BRANCH   1   3
ATOM      2  N   UNL     1       3.986   4.275  18.243  0.00  0.00    +0.000 N 
ATOM      3  C   UNL     1       5.281   4.356  17.750  0.00  0.00    +0.000 C 
ATOM      4  O   UNL     1       6.297   4.337  18.443  0.00  0.00    +0.000 OA
ATOM      5  H   UNL     1       3.204   4.121  17.603  0.00  0.00    +0.000 HD
BRANCH   2   7
ATOM      6  C   UNL     1       2.855   5.045  20.192  0.00  0.00    +0.000 C 
ATOM      7  N   UNL     1       3.772   4.058  19.625  0.00  0.00    +0.000 NA
BRANCH   7   8
ATOM      8  C   UNL     1       3.382   2.665  19.930  0.00  0.00    +0.000 C 
BRANCH   8   9
ATOM      9  C   UNL     1       3.051   1.817  18.702  0.00  0.00    +0.000 C 
ATOM     10  O   UNL     1       3.834   1.117  18.074  0.00  0.00    +0.000 OA
BRANCH   9  11
ATOM     11  O   UNL     1       1.739   1.892  18.359  0.00  0.00    +0.000 OA
ATOM     12  H   UNL     1       1.334   2.769  18.506  0.00  0.00    +0.000 HD
ENDBRANCH   9  11
ENDBRANCH   8   9
ENDBRANCH   7   8
ENDBRANCH   2   7
ENDBRANCH   1   3
BRANCH   1  13
ATOM     13  C   UNL     1       6.787   4.733  15.734  0.00  0.00    +0.000 C 
BRANCH  13  14
ATOM     14  N   UNL     1       7.228   6.028  16.289  0.00  0.00    +0.000 NA
ATOM     15  H   UNL     1       7.852   5.861  17.080  0.00  0.00    +0.000 HD
ATOM     16  H   UNL     1       6.423   6.513  16.687  0.00  0.00    +0.000 HD
ENDBRANCH  13  14
BRANCH  13  17
ATOM     17  C   UNL     1       6.881   4.739  14.191  0.00  0.00    +0.000 C 
BRANCH  17  18
ATOM     18  C   UNL     1       6.152   3.579  13.556  0.00  0.00    +0.000 C 
ATOM     19  C   UNL     1       5.075   3.858  12.538  0.00  0.00    +0.000 C 
ATOM     20  C   UNL     1       6.370   3.238  12.103  0.00  0.00    +0.000 C 
BRANCH  20  21
ATOM     21  N   UNL     1       6.376   1.845  11.674  0.00  0.00    +0.000 NA
ATOM     22  H   UNL     1       6.864   1.720  10.787  0.00  0.00    +0.000 HD
ATOM     23  H   UNL     1       5.431   1.490  11.537  0.00  0.00    +0.000 HD
ENDBRANCH  20  21
ENDBRANCH  17  18
ENDBRANCH  13  17
ENDBRANCH   1  13
TORSDOF 10
ENDMDL
MODEL 6
REMARK VINA RESULT:      -5.3      2.586      5.466
REMARK  Name = 
REMARK  11 active torsions:
REMARK  status: ('A' for Active; 'I' for Inactive)
REMARK    1  A    between atoms: C_1  and  N_2
REMARK    2  A    between atoms: N_2  and  C_3
REMARK    3  A    between atoms: N_2  and  N_7
REMARK    4  A    between atoms: C_3  and  C_4
REMARK    5  A    between atoms: C_4  and  O_6
REMARK    6  A    between atoms: C_8  and  C_10
REMARK    7  A    between atoms: C_10  and  C_11
REMARK    8  A    between atoms: C_11  and  N_12
REMARK    9  A    between atoms: C_11  and  C_13
REMARK   10  A    between atoms: C_13  and  C_14
REMARK   11  A    between atoms: C_16  and  N_17
REMARK                            x       y       z     vdW  Elec       q    Type
REMARK                         _______ _______ _______ _____ _____    ______ ____
ROOT
ATOM      1  C   UNL     1       3.541   6.247  17.903  0.00  0.00    +0.000 C 
ENDROOT
BRANCH   1   3
ATOM      2  N   UNL     1       3.581   3.985  18.811  0.00  0.00    +0.000 N 
ATOM      3  C   UNL     1       2.848   4.911  18.081  0.00  0.00    +0.000 C 
ATOM      4  O   UNL     1       1.729   4.706  17.610  0.00  0.00    +0.000 OA
ATOM      5  H   UNL     1       4.419   4.279  19.315  0.00  0.00    +0.000 HD
BRANCH   2   7
ATOM      6  C   UNL     1       3.499   1.663  18.284  0.00  0.00    +0.000 C 
ATOM      7  N   UNL     1       3.003   2.737  19.144  0.00  0.00    +0.000 NA
BRANCH   7   8
ATOM      8  C   UNL     1       3.116   2.421  20.584  0.00  0.00    +0.000 C 
BRANCH   8   9
ATOM      9  C   UNL     1       2.230   3.277  21.490  0.00  0.00    +0.000 C 
ATOM     10  O   UNL     1       2.171   4.499  21.499  0.00  0.00    +0.000 OA
BRANCH   9  11
ATOM     11  O   UNL     1       1.456   2.526  22.316  0.00  0.00    +0.000 OA
ATOM     12  H   UNL     1       1.841   2.375  23.202  0.00  0.00    +0.000 HD
ENDBRANCH   9  11
ENDBRANCH   8   9
ENDBRANCH   7   8
ENDBRANCH   2   7
ENDBRANCH   1   3
BRANCH   1  13
ATOM     13  C   UNL     1       4.643   6.214  16.836  0.00  0.00    +0.000 C 
BRANCH  13  14
ATOM     14  N   UNL     1       4.681   4.852  16.268  0.00  0.00    +0.000 NA
ATOM     15  H   UNL     1       3.796   4.659  15.796  0.00  0.00    +0.000 HD
ATOM     16  H   UNL     1       4.727   4.173  17.028  0.00  0.00    +0.000 HD
ENDBRANCH  13  14
BRANCH  13  17
ATOM     17  C   UNL     1       6.029   6.611  17.396  0.00  0.00    +0.000 C 
BRANCH  17  18
ATOM     18  C   UNL     1       6.563   5.612  18.395  0.00  0.00    +0.000 C 
ATOM     19  C   UNL     1       7.765   4.777  18.027  0.00  0.00    +0.000 C 
ATOM     20  C   UNL     1       7.888   5.842  19.077  0.00  0.00    +0.000 C 
BRANCH  20  21
ATOM     21  N   UNL     1       8.072   5.443  20.467  0.00  0.00    +0.000 NA
ATOM     22  H   UNL     1       8.947   5.795  20.854  0.00  0.00    +0.000 HD
ATOM     23  H   UNL     1       8.098   4.430  20.567  0.00  0.00    +0.000 HD
ENDBRANCH  20  21
ENDBRANCH  17  18
ENDBRANCH  13  17
ENDBRANCH   1  13
TORSDOF 10
ENDMDL
MODEL 7
REMARK VINA RESULT:      -5.3      2.450      6.442
REMARK  Name = 
REMARK  11 active torsions:
REMARK  status: ('A' for Active; 'I' for Inactive)
REMARK    1  A    between atoms: C_1  and  N_2
REMARK    2  A    between atoms: N_2  and  C_3
REMARK    3  A    between atoms: N_2  and  N_7
REMARK    4  A    between atoms: C_3  and  C_4
REMARK    5  A    between atoms: C_4  and  O_6
REMARK    6  A    between atoms: C_8  and  C_10
REMARK    7  A    between atoms: C_10  and  C_11
REMARK    8  A    between atoms: C_11  and  N_12
REMARK    9  A    between atoms: C_11  and  C_13
REMARK   10  A    between atoms: C_13  and  C_14
REMARK   11  A    between atoms: C_16  and  N_17
REMARK                            x       y       z     vdW  Elec       q    Type
REMARK                         _______ _______ _______ _____ _____    ______ ____
ROOT
ATOM      1  C   UNL     1       6.351   3.806  15.905  0.00  0.00    +0.000 C 
ENDROOT
BRANCH   1   3
ATOM      2  N   UNL     1       4.883   3.860  17.850  0.00  0.00    +0.000 N 
ATOM      3  C   UNL     1       6.177   4.060  17.388  0.00  0.00    +0.000 C 
ATOM      4  O   UNL     1       7.126   4.405  18.092  0.00  0.00    +0.000 OA
ATOM      5  H   UNL     1       4.190   3.409  17.250  0.00  0.00    +0.000 HD
BRANCH   2   7
ATOM      6  C   UNL     1       3.982   5.231  19.576  0.00  0.00    +0.000 C 
ATOM      7  N   UNL     1       4.608   3.955  19.234  0.00  0.00    +0.000 NA
BRANCH   7   8
ATOM      8  C   UNL     1       3.858   2.789  19.749  0.00  0.00    +0.000 C 
BRANCH   8   9
ATOM      9  C   UNL     1       3.393   1.810  18.670  0.00  0.00    +0.000 C 
ATOM     10  O   UNL     1       2.362   1.890  18.017  0.00  0.00    +0.000 OA
BRANCH   9  11
ATOM     11  O   UNL     1       4.279   0.799  18.472  0.00  0.00    +0.000 OA
ATOM     12  H   UNL     1       4.130   0.017  19.040  0.00  0.00    +0.000 HD
ENDBRANCH   9  11
ENDBRANCH   8   9
ENDBRANCH   7   8
ENDBRANCH   2   7
ENDBRANCH   1   3
BRANCH   1  13
ATOM     13  C   UNL     1       6.977   4.994  15.162  0.00  0.00    +0.000 C 
BRANCH  13  14
ATOM     14  N   UNL     1       6.399   6.232  15.722  0.00  0.00    +0.000 NA
ATOM     15  H   UNL     1       5.546   6.003  16.236  0.00  0.00    +0.000 HD
ATOM     16  H   UNL     1       6.093   6.835  14.959  0.00  0.00    +0.000 HD
ENDBRANCH  13  14
BRANCH  13  17
ATOM     17  C   UNL     1       6.750   4.930  13.634  0.00  0.00    +0.000 C 
BRANCH  17  18
ATOM     18  C   UNL     1       6.233   3.587  13.175  0.00  0.00    +0.000 C 
ATOM     19  C   UNL     1       5.110   3.537  12.170  0.00  0.00    +0.000 C 
ATOM     20  C   UNL     1       6.490   3.104  11.770  0.00  0.00    +0.000 C 
BRANCH  20  21
ATOM     21  N   UNL     1       6.741   1.690  11.519  0.00  0.00    +0.000 NA
ATOM     22  H   UNL     1       6.336   1.096  12.241  0.00  0.00    +0.000 HD
ATOM     23  H   UNL     1       7.738   1.484  11.500  0.00  0.00    +0.000 HD
ENDBRANCH  20  21
ENDBRANCH  17  18
ENDBRANCH  13  17
ENDBRANCH   1  13
TORSDOF 10
ENDMDL
MODEL 8
REMARK VINA RESULT:      -5.2      2.227      6.344
REMARK  Name = 
REMARK  11 active torsions:
REMARK  status: ('A' for Active; 'I' for Inactive)
REMARK    1  A    between atoms: C_1  and  N_2
REMARK    2  A    between atoms: N_2  and  C_3
REMARK    3  A    between atoms: N_2  and  N_7
REMARK    4  A    between atoms: C_3  and  C_4
REMARK    5  A    between atoms: C_4  and  O_6
REMARK    6  A    between atoms: C_8  and  C_10
REMARK    7  A    between atoms: C_10  and  C_11
REMARK    8  A    between atoms: C_11  and  N_12
REMARK    9  A    between atoms: C_11  and  C_13
REMARK   10  A    between atoms: C_13  and  C_14
REMARK   11  A    between atoms: C_16  and  N_17
REMARK                            x       y       z     vdW  Elec       q    Type
REMARK                         _______ _______ _______ _____ _____    ______ ____
ROOT
ATOM      1  C   UNL     1       6.766   4.781  16.733  0.00  0.00    +0.000 C 
ENDROOT
BRANCH   1   3
ATOM      2  N   UNL     1       4.800   4.572  18.160  0.00  0.00    +0.000 N 
ATOM      3  C   UNL     1       6.177   4.745  18.129  0.00  0.00    +0.000 C 
ATOM      4  O   UNL     1       6.891   4.855  19.125  0.00  0.00    +0.000 OA
ATOM      5  H   UNL     1       4.298   4.315  17.308  0.00  0.00    +0.000 HD
BRANCH   2   7
ATOM      6  C   UNL     1       3.267   5.545  19.701  0.00  0.00    +0.000 C 
ATOM      7  N   UNL     1       4.139   4.411  19.400  0.00  0.00    +0.000 NA
BRANCH   7   8
ATOM      8  C   UNL     1       3.450   3.107  19.514  0.00  0.00    +0.000 C 
BRANCH   8   9
ATOM      9  C   UNL     1       3.158   2.427  18.177  0.00  0.00    +0.000 C 
ATOM     10  O   UNL     1       2.275   2.734  17.387  0.00  0.00    +0.000 OA
BRANCH   9  11
ATOM     11  O   UNL     1       4.019   1.410  17.914  0.00  0.00    +0.000 OA
ATOM     12  H   UNL     1       4.039   0.713  18.598  0.00  0.00    +0.000 HD
ENDBRANCH   9  11
ENDBRANCH   8   9
ENDBRANCH   7   8
ENDBRANCH   2   7
ENDBRANCH   1   3
BRANCH   1  13
ATOM     13  C   UNL     1       5.810   4.236  15.664  0.00  0.00    +0.000 C 
BRANCH  13  14
ATOM     14  N   UNL     1       5.670   2.782  15.883  0.00  0.00    +0.000 NA
ATOM     15  H   UNL     1       5.588   2.312  14.979  0.00  0.00    +0.000 HD
ATOM     16  H   UNL     1       4.785   2.598  16.356  0.00  0.00    +0.000 HD
ENDBRANCH  13  14
BRANCH  13  17
ATOM     17  C   UNL     1       6.294   4.527  14.225  0.00  0.00    +0.000 C 
BRANCH  17  18
ATOM     18  C   UNL     1       6.096   3.356  13.293  0.00  0.00    +0.000 C 
ATOM     19  C   UNL     1       5.264   3.540  12.049  0.00  0.00    +0.000 C 
ATOM     20  C   UNL     1       6.746   3.338  11.933  0.00  0.00    +0.000 C 
BRANCH  20  21
ATOM     21  N   UNL     1       7.246   2.086  11.379  0.00  0.00    +0.000 NA
ATOM     22  H   UNL     1       8.238   1.951  11.571  0.00  0.00    +0.000 HD
ATOM     23  H   UNL     1       7.141   2.055  10.366  0.00  0.00    +0.000 HD
ENDBRANCH  20  21
ENDBRANCH  17  18
ENDBRANCH  13  17
ENDBRANCH   1  13
TORSDOF 10
ENDMDL
MODEL 9
REMARK VINA RESULT:      -5.2      2.278      6.420
REMARK  Name = 
REMARK  11 active torsions:
REMARK  status: ('A' for Active; 'I' for Inactive)
REMARK    1  A    between atoms: C_1  and  N_2
REMARK    2  A    between atoms: N_2  and  C_3
REMARK    3  A    between atoms: N_2  and  N_7
REMARK    4  A    between atoms: C_3  and  C_4
REMARK    5  A    between atoms: C_4  and  O_6
REMARK    6  A    between atoms: C_8  and  C_10
REMARK    7  A    between atoms: C_10  and  C_11
REMARK    8  A    between atoms: C_11  and  N_12
REMARK    9  A    between atoms: C_11  and  C_13
REMARK   10  A    between atoms: C_13  and  C_14
REMARK   11  A    between atoms: C_16  and  N_17
REMARK                            x       y       z     vdW  Elec       q    Type
REMARK                         _______ _______ _______ _____ _____    ______ ____
ROOT
ATOM      1  C   UNL     1       5.503   4.018  16.063  0.00  0.00    +0.000 C 
ENDROOT
BRANCH   1   3
ATOM      2  N   UNL     1       3.993   4.438  17.931  0.00  0.00    +0.000 N 
ATOM      3  C   UNL     1       5.316   4.263  17.547  0.00  0.00    +0.000 C 
ATOM      4  O   UNL     1       6.277   4.290  18.314  0.00  0.00    +0.000 OA
ATOM      5  H   UNL     1       3.238   4.231  17.274  0.00  0.00    +0.000 HD
BRANCH   2   7
ATOM      6  C   UNL     1       3.203   5.912  19.627  0.00  0.00    +0.000 C 
ATOM      7  N   UNL     1       3.670   4.565  19.302  0.00  0.00    +0.000 NA
BRANCH   7   8
ATOM      8  C   UNL     1       2.750   3.506  19.773  0.00  0.00    +0.000 C 
BRANCH   8   9
ATOM      9  C   UNL     1       1.908   2.865  18.670  0.00  0.00    +0.000 C 
ATOM     10  O   UNL     1       1.338   3.453  17.761  0.00  0.00    +0.000 OA
BRANCH   9  11
ATOM     11  O   UNL     1       1.859   1.511  18.776  0.00  0.00    +0.000 OA
ATOM     12  H   UNL     1       2.718   1.093  18.981  0.00  0.00    +0.000 HD
ENDBRANCH   9  11
ENDBRANCH   8   9
ENDBRANCH   7   8
ENDBRANCH   2   7
ENDBRANCH   1   3
BRANCH   1  13
ATOM     13  C   UNL     1       6.827   4.575  15.525  0.00  0.00    +0.000 C 
BRANCH  13  14
ATOM     14  N   UNL     1       7.009   5.928  16.087  0.00  0.00    +0.000 NA
ATOM     15  H   UNL     1       7.752   6.409  15.575  0.00  0.00    +0.000 HD
ATOM     16  H   UNL     1       7.356   5.850  17.043  0.00  0.00    +0.000 HD
ENDBRANCH  13  14
BRANCH  13  17
ATOM     17  C   UNL     1       6.874   4.616  13.980  0.00  0.00    +0.000 C 
BRANCH  17  18
ATOM     18  C   UNL     1       6.147   3.455  13.342  0.00  0.00    +0.000 C 
ATOM     19  C   UNL     1       5.129   3.730  12.264  0.00  0.00    +0.000 C 
ATOM     20  C   UNL     1       6.427   3.065  11.913  0.00  0.00    +0.000 C 
BRANCH  20  21
ATOM     21  N   UNL     1       6.419   1.660  11.524  0.00  0.00    +0.000 NA
ATOM     22  H   UNL     1       5.795   1.485  10.738  0.00  0.00    +0.000 HD
ATOM     23  H   UNL     1       6.100   1.063  12.285  0.00  0.00    +0.000 HD
ENDBRANCH  20  21
ENDBRANCH  17  18
ENDBRANCH  13  17
ENDBRANCH   1  13
TORSDOF 10
ENDMDL
