MODEL 1
REMARK VINA RESULT:      -7.8      0.000      0.000
REMARK  Name = 
REMARK  6 active torsions:
REMARK  status: ('A' for Active; 'I' for Inactive)
REMARK    1  A    between atoms: C_5  and  C_6
REMARK    2  A    between atoms: C_6  and  C_7
REMARK    3  A    between atoms: C_10  and  O_11
REMARK    4  A    between atoms: C_12  and  O_13
REMARK    5  A    between atoms: C_15  and  C_16
REMARK    6  A    between atoms: C_19  and  O_20
REMARK                            x       y       z     vdW  Elec       q    Type
REMARK                         _______ _______ _______ _____ _____    ______ ____
ROOT
ATOM      1  O   UNL     1       1.237   6.119  20.851  0.00  0.00    +0.000 OA
ATOM      2  C   UNL     1       1.813   6.730  19.970  0.00  0.00    +0.000 C 
ATOM      3  O   UNL     1       1.720   8.073  19.759  0.00  0.00    +0.000 OA
ATOM      4  C   UNL     1       2.511   8.434  18.628  0.00  0.00    +0.000 C 
ATOM      5  C   UNL     1       3.080   7.153  18.155  0.00  0.00    +0.000 C 
ATOM      6  C   UNL     1       2.699   6.146  18.949  0.00  0.00    +0.000 C 
ENDROOT
BRANCH   6   7
ATOM      7  C   UNL     1       3.003   4.731  18.802  0.00  0.00    +0.000 A 
ATOM      8  C   UNL     1       2.295   3.956  17.880  0.00  0.00    +0.000 A 
ATOM      9  C   UNL     1       2.567   2.593  17.744  0.00  0.00    +0.000 A 
ATOM     10  C   UNL     1       3.546   2.007  18.541  0.00  0.00    +0.000 A 
ATOM     11  C   UNL     1       4.254   2.762  19.468  0.00  0.00    +0.000 A 
ATOM     12  C   UNL     1       3.984   4.125  19.601  0.00  0.00    +0.000 A 
BRANCH  10  13
ATOM     13  O   UNL     1       3.845   0.681  18.440  0.00  0.00    +0.000 OA
ATOM     14  H   UNL     1       4.756   0.593  18.111  0.00  0.00    +0.000 HD
ENDBRANCH  10  13
ENDBRANCH   6   7
BRANCH   5  15
ATOM     15  C   UNL     1       3.913   7.089  16.914  0.00  0.00    +0.000 C 
BRANCH  15  16
ATOM     16  C   UNL     1       5.172   6.249  17.028  0.00  0.00    +0.000 A 
ATOM     17  C   UNL     1       5.412   5.109  16.235  0.00  0.00    +0.000 A 
ATOM     18  C   UNL     1       6.549   4.319  16.418  0.00  0.00    +0.000 A 
ATOM     19  C   UNL     1       7.469   4.679  17.389  0.00  0.00    +0.000 A 
ATOM     20  C   UNL     1       7.264   5.816  18.163  0.00  0.00    +0.000 A 
ATOM     21  C   UNL     1       6.128   6.598  17.995  0.00  0.00    +0.000 A 
BRANCH  19  22
ATOM     22  O   UNL     1       8.594   3.937  17.622  0.00  0.00    +0.000 OA
ATOM     23  H   UNL     1       8.657   3.264  16.922  0.00  0.00    +0.000 HD
ENDBRANCH  19  22
BRANCH  20  24
ATOM     24  O   UNL     1       8.184   6.167  19.110  0.00  0.00    +0.000 OA
ATOM     25  H   UNL     1       7.763   5.922  19.957  0.00  0.00    +0.000 HD
ENDBRANCH  20  24
ENDBRANCH  15  16
ENDBRANCH   5  15
TORSDOF 6
ENDMDL
MODEL 2
REMARK VINA RESULT:      -7.6      1.854      5.623
REMARK  Name = 
REMARK  6 active torsions:
REMARK  status: ('A' for Active; 'I' for Inactive)
REMARK    1  A    between atoms: C_5  and  C_6
REMARK    2  A    between atoms: C_6  and  C_7
REMARK    3  A    between atoms: C_10  and  O_11
REMARK    4  A    between atoms: C_12  and  O_13
REMARK    5  A    between atoms: C_15  and  C_16
REMARK    6  A    between atoms: C_19  and  O_20
REMARK                            x       y       z     vdW  Elec       q    Type
REMARK                         _______ _______ _______ _____ _____    ______ ____
ROOT
ATOM      1  O   UNL     1       6.398   7.306  17.149  0.00  0.00    +0.000 OA
ATOM      2  C   UNL     1       5.867   6.229  16.952  0.00  0.00    +0.000 C 
ATOM      3  O   UNL     1       6.453   5.171  16.323  0.00  0.00    +0.000 OA
ATOM      4  C   UNL     1       5.529   4.086  16.252  0.00  0.00    +0.000 C 
ATOM      5  C   UNL     1       4.301   4.610  16.889  0.00  0.00    +0.000 C 
ATOM      6  C   UNL     1       4.492   5.858  17.327  0.00  0.00    +0.000 C 
ENDROOT
BRANCH   6   7
ATOM      7  C   UNL     1       3.524   6.738  17.965  0.00  0.00    +0.000 A 
ATOM      8  C   UNL     1       2.995   7.823  17.261  0.00  0.00    +0.000 A 
ATOM      9  C   UNL     1       2.079   8.684  17.869  0.00  0.00    +0.000 A 
ATOM     10  C   UNL     1       1.700   8.458  19.189  0.00  0.00    +0.000 A 
ATOM     11  C   UNL     1       2.222   7.389  19.906  0.00  0.00    +0.000 A 
ATOM     12  C   UNL     1       3.135   6.526  19.296  0.00  0.00    +0.000 A 
BRANCH  10  13
ATOM     13  O   UNL     1       0.808   9.271  19.821  0.00  0.00    +0.000 OA
ATOM     14  H   UNL     1       1.297   9.864  20.417  0.00  0.00    +0.000 HD
ENDBRANCH  10  13
ENDBRANCH   6   7
BRANCH   5  15
ATOM     15  C   UNL     1       3.046   3.794  16.936  0.00  0.00    +0.000 C 
BRANCH  15  16
ATOM     16  C   UNL     1       2.592   3.397  18.328  0.00  0.00    +0.000 A 
ATOM     17  C   UNL     1       1.267   3.559  18.782  0.00  0.00    +0.000 A 
ATOM     18  C   UNL     1       0.902   3.249  20.093  0.00  0.00    +0.000 A 
ATOM     19  C   UNL     1       1.861   2.753  20.960  0.00  0.00    +0.000 A 
ATOM     20  C   UNL     1       3.168   2.559  20.524  0.00  0.00    +0.000 A 
ATOM     21  C   UNL     1       3.541   2.879  19.224  0.00  0.00    +0.000 A 
BRANCH  19  22
ATOM     22  O   UNL     1       1.565   2.443  22.259  0.00  0.00    +0.000 OA
ATOM     23  H   UNL     1       0.633   2.165  22.293  0.00  0.00    +0.000 HD
ENDBRANCH  19  22
BRANCH  20  24
ATOM     24  O   UNL     1       4.103   2.057  21.384  0.00  0.00    +0.000 OA
ATOM     25  H   UNL     1       4.952   2.189  20.919  0.00  0.00    +0.000 HD
ENDBRANCH  20  24
ENDBRANCH  15  16
ENDBRANCH   5  15
TORSDOF 6
ENDMDL
MODEL 3
REMARK VINA RESULT:      -7.6      1.854      5.694
REMARK  Name = 
REMARK  6 active torsions:
REMARK  status: ('A' for Active; 'I' for Inactive)
REMARK    1  A    between atoms: C_5  and  C_6
REMARK    2  A    between atoms: C_6  and  C_7
REMARK    3  A    between atoms: C_10  and  O_11
REMARK    4  A    between atoms: C_12  and  O_13
REMARK    5  A    between atoms: C_15  and  C_16
REMARK    6  A    between atoms: C_19  and  O_20
REMARK                            x       y       z     vdW  Elec       q    Type
REMARK                         _______ _______ _______ _____ _____    ______ ____
ROOT
ATOM      1  O   UNL     1       6.464   7.260  17.217  0.00  0.00    +0.000 OA
ATOM      2  C   UNL     1       5.910   6.194  17.017  0.00  0.00    +0.000 C 
ATOM      3  O   UNL     1       6.478   5.121  16.398  0.00  0.00    +0.000 OA
ATOM      4  C   UNL     1       5.530   4.058  16.320  0.00  0.00    +0.000 C 
ATOM      5  C   UNL     1       4.307   4.612  16.941  0.00  0.00    +0.000 C 
ATOM      6  C   UNL     1       4.522   5.857  17.378  0.00  0.00    +0.000 C 
ENDROOT
BRANCH   6   7
ATOM      7  C   UNL     1       3.569   6.761  18.003  0.00  0.00    +0.000 A 
ATOM      8  C   UNL     1       3.125   6.519  19.305  0.00  0.00    +0.000 A 
ATOM      9  C   UNL     1       2.197   7.370  19.907  0.00  0.00    +0.000 A 
ATOM     10  C   UNL     1       1.708   8.463  19.197  0.00  0.00    +0.000 A 
ATOM     11  C   UNL     1       2.132   8.714  17.898  0.00  0.00    +0.000 A 
ATOM     12  C   UNL     1       3.064   7.864  17.298  0.00  0.00    +0.000 A 
BRANCH  10  13
ATOM     13  O   UNL     1       0.802   9.320  19.746  0.00  0.00    +0.000 OA
ATOM     14  H   UNL     1       1.192  10.211  19.767  0.00  0.00    +0.000 HD
ENDBRANCH  10  13
ENDBRANCH   6   7
BRANCH   5  15
ATOM     15  C   UNL     1       3.034   3.826  16.977  0.00  0.00    +0.000 C 
BRANCH  15  16
ATOM     16  C   UNL     1       2.575   3.412  18.363  0.00  0.00    +0.000 A 
ATOM     17  C   UNL     1       1.248   3.568  18.813  0.00  0.00    +0.000 A 
ATOM     18  C   UNL     1       0.878   3.241  20.119  0.00  0.00    +0.000 A 
ATOM     19  C   UNL     1       1.835   2.736  20.984  0.00  0.00    +0.000 A 
ATOM     20  C   UNL     1       3.143   2.549  20.550  0.00  0.00    +0.000 A 
ATOM     21  C   UNL     1       3.521   2.885  19.256  0.00  0.00    +0.000 A 
BRANCH  19  22
ATOM     22  O   UNL     1       1.534   2.411  22.277  0.00  0.00    +0.000 OA
ATOM     23  H   UNL     1       0.564   2.359  22.354  0.00  0.00    +0.000 HD
ENDBRANCH  19  22
BRANCH  20  24
ATOM     24  O   UNL     1       4.076   2.039  21.408  0.00  0.00    +0.000 OA
ATOM     25  H   UNL     1       3.610   1.986  22.266  0.00  0.00    +0.000 HD
ENDBRANCH  20  24
ENDBRANCH  15  16
ENDBRANCH   5  15
TORSDOF 6
ENDMDL
MODEL 4
REMARK VINA RESULT:      -7.6      0.400      1.106
REMARK  Name = 
REMARK  6 active torsions:
REMARK  status: ('A' for Active; 'I' for Inactive)
REMARK    1  A    between atoms: C_5  and  C_6
REMARK    2  A    between atoms: C_6  and  C_7
REMARK    3  A    between atoms: C_10  and  O_11
REMARK    4  A    between atoms: C_12  and  O_13
REMARK    5  A    between atoms: C_15  and  C_16
REMARK    6  A    between atoms: C_19  and  O_20
REMARK                            x       y       z     vdW  Elec       q    Type
REMARK                         _______ _______ _______ _____ _____    ______ ____
ROOT
ATOM      1  O   UNL     1       1.189   6.762  20.583  0.00  0.00    +0.000 OA
ATOM      2  C   UNL     1       1.822   7.255  19.667  0.00  0.00    +0.000 C 
ATOM      3  O   UNL     1       1.837   8.580  19.351  0.00  0.00    +0.000 OA
ATOM      4  C   UNL     1       2.667   8.790  18.210  0.00  0.00    +0.000 C 
ATOM      5  C   UNL     1       3.139   7.436  17.848  0.00  0.00    +0.000 C 
ATOM      6  C   UNL     1       2.672   6.527  18.710  0.00  0.00    +0.000 C 
ENDROOT
BRANCH   6   7
ATOM      7  C   UNL     1       2.866   5.085  18.680  0.00  0.00    +0.000 A 
ATOM      8  C   UNL     1       3.813   4.489  19.517  0.00  0.00    +0.000 A 
ATOM      9  C   UNL     1       4.020   3.109  19.483  0.00  0.00    +0.000 A 
ATOM     10  C   UNL     1       3.279   2.327  18.601  0.00  0.00    +0.000 A 
ATOM     11  C   UNL     1       2.339   2.904  17.756  0.00  0.00    +0.000 A 
ATOM     12  C   UNL     1       2.130   4.284  17.794  0.00  0.00    +0.000 A 
BRANCH  10  13
ATOM     13  O   UNL     1       3.446   0.976  18.536  0.00  0.00    +0.000 OA
ATOM     14  H   UNL     1       4.295   0.790  18.100  0.00  0.00    +0.000 HD
ENDBRANCH  10  13
ENDBRANCH   6   7
BRANCH   5  15
ATOM     15  C   UNL     1       3.980   7.210  16.630  0.00  0.00    +0.000 C 
BRANCH  15  16
ATOM     16  C   UNL     1       5.204   6.340  16.848  0.00  0.00    +0.000 A 
ATOM     17  C   UNL     1       5.418   5.126  16.164  0.00  0.00    +0.000 A 
ATOM     18  C   UNL     1       6.521   4.317  16.443  0.00  0.00    +0.000 A 
ATOM     19  C   UNL     1       7.435   4.729  17.399  0.00  0.00    +0.000 A 
ATOM     20  C   UNL     1       7.256   5.937  18.065  0.00  0.00    +0.000 A 
ATOM     21  C   UNL     1       6.153   6.740  17.802  0.00  0.00    +0.000 A 
BRANCH  19  22
ATOM     22  O   UNL     1       8.527   3.973  17.722  0.00  0.00    +0.000 OA
ATOM     23  H   UNL     1       8.923   3.651  16.893  0.00  0.00    +0.000 HD
ENDBRANCH  19  22
BRANCH  20  24
ATOM     24  O   UNL     1       8.170   6.340  18.997  0.00  0.00    +0.000 OA
ATOM     25  H   UNL     1       9.032   6.237  18.549  0.00  0.00    +0.000 HD
ENDBRANCH  20  24
ENDBRANCH  15  16
ENDBRANCH   5  15
TORSDOF 6
ENDMDL
MODEL 5
REMARK VINA RESULT:      -7.4      1.830      5.422
REMARK  Name = 
REMARK  6 active torsions:
REMARK  status: ('A' for Active; 'I' for Inactive)
REMARK    1  A    between atoms: C_5  and  C_6
REMARK    2  A    between atoms: C_6  and  C_7
REMARK    3  A    between atoms: C_10  and  O_11
REMARK    4  A    between atoms: C_12  and  O_13
REMARK    5  A    between atoms: C_15  and  C_16
REMARK    6  A    between atoms: C_19  and  O_20
REMARK                            x       y       z     vdW  Elec       q    Type
REMARK                         _______ _______ _______ _____ _____    ______ ____
ROOT
ATOM      1  O   UNL     1       2.023   1.937  17.612  0.00  0.00    +0.000 OA
ATOM      2  C   UNL     1       1.870   2.787  18.469  0.00  0.00    +0.000 C 
ATOM      3  O   UNL     1       0.788   2.883  19.292  0.00  0.00    +0.000 OA
ATOM      4  C   UNL     1       0.940   4.011  20.152  0.00  0.00    +0.000 C 
ATOM      5  C   UNL     1       2.230   4.610  19.744  0.00  0.00    +0.000 C 
ATOM      6  C   UNL     1       2.800   3.888  18.774  0.00  0.00    +0.000 C 
ENDROOT
BRANCH   6   7
ATOM      7  C   UNL     1       4.044   4.163  18.071  0.00  0.00    +0.000 A 
ATOM      8  C   UNL     1       5.240   4.275  18.784  0.00  0.00    +0.000 A 
ATOM      9  C   UNL     1       6.436   4.555  18.121  0.00  0.00    +0.000 A 
ATOM     10  C   UNL     1       6.429   4.732  16.741  0.00  0.00    +0.000 A 
ATOM     11  C   UNL     1       5.247   4.633  16.017  0.00  0.00    +0.000 A 
ATOM     12  C   UNL     1       4.052   4.348  16.681  0.00  0.00    +0.000 A 
BRANCH  10  13
ATOM     13  O   UNL     1       7.574   5.006  16.053  0.00  0.00    +0.000 OA
ATOM     14  H   UNL     1       7.461   5.853  15.590  0.00  0.00    +0.000 HD
ENDBRANCH  10  13
ENDBRANCH   6   7
BRANCH   5  15
ATOM     15  C   UNL     1       2.718   5.885  20.358  0.00  0.00    +0.000 C 
BRANCH  15  16
ATOM     16  C   UNL     1       2.223   7.152  19.684  0.00  0.00    +0.000 A 
ATOM     17  C   UNL     1       2.491   7.462  18.335  0.00  0.00    +0.000 A 
ATOM     18  C   UNL     1       2.080   8.671  17.769  0.00  0.00    +0.000 A 
ATOM     19  C   UNL     1       1.378   9.575  18.549  0.00  0.00    +0.000 A 
ATOM     20  C   UNL     1       1.079   9.275  19.874  0.00  0.00    +0.000 A 
ATOM     21  C   UNL     1       1.497   8.080  20.447  0.00  0.00    +0.000 A 
BRANCH  19  22
ATOM     22  O   UNL     1       0.961  10.779  18.052  0.00  0.00    +0.000 OA
ATOM     23  H   UNL     1       0.500  11.252  18.767  0.00  0.00    +0.000 HD
ENDBRANCH  19  22
BRANCH  20  24
ATOM     24  O   UNL     1       0.375  10.169  20.630  0.00  0.00    +0.000 OA
ATOM     25  H   UNL     1      -0.538   9.822  20.624  0.00  0.00    +0.000 HD
ENDBRANCH  20  24
ENDBRANCH  15  16
ENDBRANCH   5  15
TORSDOF 6
ENDMDL
MODEL 6
REMARK VINA RESULT:      -7.4      1.718      4.245
REMARK  Name = 
REMARK  6 active torsions:
REMARK  status: ('A' for Active; 'I' for Inactive)
REMARK    1  A    between atoms: C_5  and  C_6
REMARK    2  A    between atoms: C_6  and  C_7
REMARK    3  A    between atoms: C_10  and  O_11
REMARK    4  A    between atoms: C_12  and  O_13
REMARK    5  A    between atoms: C_15  and  C_16
REMARK    6  A    between atoms: C_19  and  O_20
REMARK                            x       y       z     vdW  Elec       q    Type
REMARK                         _______ _______ _______ _____ _____    ______ ____
ROOT
ATOM      1  O   UNL     1       0.265   3.105  19.173  0.00  0.00    +0.000 OA
ATOM      2  C   UNL     1       1.465   2.915  19.107  0.00  0.00    +0.000 C 
ATOM      3  O   UNL     1       2.062   1.691  19.042  0.00  0.00    +0.000 OA
ATOM      4  C   UNL     1       3.479   1.853  18.999  0.00  0.00    +0.000 C 
ATOM      5  C   UNL     1       3.683   3.316  19.069  0.00  0.00    +0.000 C 
ATOM      6  C   UNL     1       2.509   3.955  19.108  0.00  0.00    +0.000 C 
ENDROOT
BRANCH   6   7
ATOM      7  C   UNL     1       2.275   5.386  19.227  0.00  0.00    +0.000 A 
ATOM      8  C   UNL     1       1.857   5.928  20.445  0.00  0.00    +0.000 A 
ATOM      9  C   UNL     1       1.613   7.297  20.565  0.00  0.00    +0.000 A 
ATOM     10  C   UNL     1       1.782   8.123  19.457  0.00  0.00    +0.000 A 
ATOM     11  C   UNL     1       2.190   7.599  18.236  0.00  0.00    +0.000 A 
ATOM     12  C   UNL     1       2.437   6.230  18.118  0.00  0.00    +0.000 A 
BRANCH  10  13
ATOM     13  O   UNL     1       1.557   9.465  19.529  0.00  0.00    +0.000 OA
ATOM     14  H   UNL     1       2.294   9.926  19.093  0.00  0.00    +0.000 HD
ENDBRANCH  10  13
ENDBRANCH   6   7
BRANCH   5  15
ATOM     15  C   UNL     1       5.058   3.902  19.139  0.00  0.00    +0.000 C 
BRANCH  15  16
ATOM     16  C   UNL     1       5.637   4.341  17.807  0.00  0.00    +0.000 A 
ATOM     17  C   UNL     1       5.441   3.625  16.608  0.00  0.00    +0.000 A 
ATOM     18  C   UNL     1       6.049   4.021  15.415  0.00  0.00    +0.000 A 
ATOM     19  C   UNL     1       6.845   5.154  15.408  0.00  0.00    +0.000 A 
ATOM     20  C   UNL     1       7.027   5.890  16.574  0.00  0.00    +0.000 A 
ATOM     21  C   UNL     1       6.437   5.494  17.768  0.00  0.00    +0.000 A 
BRANCH  19  22
ATOM     22  O   UNL     1       7.475   5.582  14.272  0.00  0.00    +0.000 OA
ATOM     23  H   UNL     1       7.074   5.118  13.516  0.00  0.00    +0.000 HD
ENDBRANCH  19  22
BRANCH  20  24
ATOM     24  O   UNL     1       7.805   7.013  16.553  0.00  0.00    +0.000 OA
ATOM     25  H   UNL     1       7.437   7.574  17.264  0.00  0.00    +0.000 HD
ENDBRANCH  20  24
ENDBRANCH  15  16
ENDBRANCH   5  15
TORSDOF 6
ENDMDL
MODEL 7
REMARK VINA RESULT:      -7.4      1.717      4.175
REMARK  Name = 
REMARK  6 active torsions:
REMARK  status: ('A' for Active; 'I' for Inactive)
REMARK    1  A    between atoms: C_5  and  C_6
REMARK    2  A    between atoms: C_6  and  C_7
REMARK    3  A    between atoms: C_10  and  O_11
REMARK    4  A    between atoms: C_12  and  O_13
REMARK    5  A    between atoms: C_15  and  C_16
REMARK    6  A    between atoms: C_19  and  O_20
REMARK                            x       y       z     vdW  Elec       q    Type
REMARK                         _______ _______ _______ _____ _____    ______ ____
ROOT
ATOM      1  O   UNL     1       0.289   3.150  19.299  0.00  0.00    +0.000 OA
ATOM      2  C   UNL     1       1.492   2.973  19.238  0.00  0.00    +0.000 C 
ATOM      3  O   UNL     1       2.104   1.756  19.222  0.00  0.00    +0.000 OA
ATOM      4  C   UNL     1       3.519   1.934  19.168  0.00  0.00    +0.000 C 
ATOM      5  C   UNL     1       3.703   3.402  19.177  0.00  0.00    +0.000 C 
ATOM      6  C   UNL     1       2.521   4.026  19.193  0.00  0.00    +0.000 C 
ENDROOT
BRANCH   6   7
ATOM      7  C   UNL     1       2.269   5.458  19.252  0.00  0.00    +0.000 A 
ATOM      8  C   UNL     1       2.442   6.246  18.111  0.00  0.00    +0.000 A 
ATOM      9  C   UNL     1       2.219   7.623  18.161  0.00  0.00    +0.000 A 
ATOM     10  C   UNL     1       1.829   8.211  19.361  0.00  0.00    +0.000 A 
ATOM     11  C   UNL     1       1.660   7.443  20.507  0.00  0.00    +0.000 A 
ATOM     12  C   UNL     1       1.879   6.065  20.455  0.00  0.00    +0.000 A 
BRANCH  10  13
ATOM     13  O   UNL     1       1.599   9.551  19.455  0.00  0.00    +0.000 OA
ATOM     14  H   UNL     1       1.424   9.770  20.386  0.00  0.00    +0.000 HD
ENDBRANCH  10  13
ENDBRANCH   6   7
BRANCH   5  15
ATOM     15  C   UNL     1       5.071   4.009  19.219  0.00  0.00    +0.000 C 
BRANCH  15  16
ATOM     16  C   UNL     1       5.632   4.419  17.870  0.00  0.00    +0.000 A 
ATOM     17  C   UNL     1       5.403   3.689  16.686  0.00  0.00    +0.000 A 
ATOM     18  C   UNL     1       5.995   4.057  15.476  0.00  0.00    +0.000 A 
ATOM     19  C   UNL     1       6.810   5.177  15.438  0.00  0.00    +0.000 A 
ATOM     20  C   UNL     1       7.026   5.926  16.590  0.00  0.00    +0.000 A 
ATOM     21  C   UNL     1       6.451   5.557  17.800  0.00  0.00    +0.000 A 
BRANCH  19  22
ATOM     22  O   UNL     1       7.426   5.578  14.285  0.00  0.00    +0.000 OA
ATOM     23  H   UNL     1       7.548   6.542  14.333  0.00  0.00    +0.000 HD
ENDBRANCH  19  22
BRANCH  20  24
ATOM     24  O   UNL     1       7.822   7.035  16.538  0.00  0.00    +0.000 OA
ATOM     25  H   UNL     1       7.287   7.735  16.962  0.00  0.00    +0.000 HD
ENDBRANCH  20  24
ENDBRANCH  15  16
ENDBRANCH   5  15
TORSDOF 6
ENDMDL
MODEL 8
REMARK VINA RESULT:      -7.4      1.815      5.328
REMARK  Name = 
REMARK  6 active torsions:
REMARK  status: ('A' for Active; 'I' for Inactive)
REMARK    1  A    between atoms: C_5  and  C_6
REMARK    2  A    between atoms: C_6  and  C_7
REMARK    3  A    between atoms: C_10  and  O_11
REMARK    4  A    between atoms: C_12  and  O_13
REMARK    5  A    between atoms: C_15  and  C_16
REMARK    6  A    between atoms: C_19  and  O_20
REMARK                            x       y       z     vdW  Elec       q    Type
REMARK                         _______ _______ _______ _____ _____    ______ ____
ROOT
ATOM      1  O   UNL     1       2.078   1.928  17.836  0.00  0.00    +0.000 OA
ATOM      2  C   UNL     1       1.920   2.815  18.654  0.00  0.00    +0.000 C 
ATOM      3  O   UNL     1       0.837   2.942  19.472  0.00  0.00    +0.000 OA
ATOM      4  C   UNL     1       0.984   4.108  20.281  0.00  0.00    +0.000 C 
ATOM      5  C   UNL     1       2.270   4.695  19.847  0.00  0.00    +0.000 C 
ATOM      6  C   UNL     1       2.845   3.933  18.910  0.00  0.00    +0.000 C 
ENDROOT
BRANCH   6   7
ATOM      7  C   UNL     1       4.087   4.182  18.195  0.00  0.00    +0.000 A 
ATOM      8  C   UNL     1       4.082   4.292  16.802  0.00  0.00    +0.000 A 
ATOM      9  C   UNL     1       5.271   4.514  16.105  0.00  0.00    +0.000 A 
ATOM     10  C   UNL     1       6.468   4.618  16.808  0.00  0.00    +0.000 A 
ATOM     11  C   UNL     1       6.492   4.502  18.192  0.00  0.00    +0.000 A 
ATOM     12  C   UNL     1       5.302   4.284  18.889  0.00  0.00    +0.000 A 
BRANCH  10  13
ATOM     13  O   UNL     1       7.652   4.835  16.168  0.00  0.00    +0.000 OA
ATOM     14  H   UNL     1       7.468   5.253  15.310  0.00  0.00    +0.000 HD
ENDBRANCH  10  13
ENDBRANCH   6   7
BRANCH   5  15
ATOM     15  C   UNL     1       2.752   5.998  20.402  0.00  0.00    +0.000 C 
BRANCH  15  16
ATOM     16  C   UNL     1       2.217   7.232  19.699  0.00  0.00    +0.000 A 
ATOM     17  C   UNL     1       2.457   7.508  18.338  0.00  0.00    +0.000 A 
ATOM     18  C   UNL     1       2.009   8.690  17.743  0.00  0.00    +0.000 A 
ATOM     19  C   UNL     1       1.295   9.599  18.507  0.00  0.00    +0.000 A 
ATOM     20  C   UNL     1       1.023   9.332  19.844  0.00  0.00    +0.000 A 
ATOM     21  C   UNL     1       1.479   8.165  20.445  0.00  0.00    +0.000 A 
BRANCH  19  22
ATOM     22  O   UNL     1       0.842  10.778  17.982  0.00  0.00    +0.000 OA
ATOM     23  H   UNL     1       1.248  10.889  17.104  0.00  0.00    +0.000 HD
ENDBRANCH  19  22
BRANCH  20  24
ATOM     24  O   UNL     1       0.309  10.231  20.584  0.00  0.00    +0.000 OA
ATOM     25  H   UNL     1       0.677  10.147  21.485  0.00  0.00    +0.000 HD
ENDBRANCH  20  24
ENDBRANCH  15  16
ENDBRANCH   5  15
TORSDOF 6
ENDMDL
MODEL 9
REMARK VINA RESULT:      -7.2      1.984      5.654
REMARK  Name = 
REMARK  6 active torsions:
REMARK  status: ('A' for Active; 'I' for Inactive)
REMARK    1  A    between atoms: C_5  and  C_6
REMARK    2  A    between atoms: C_6  and  C_7
REMARK    3  A    between atoms: C_10  and  O_11
REMARK    4  A    between atoms: C_12  and  O_13
REMARK    5  A    between atoms: C_15  and  C_16
REMARK    6  A    between atoms: C_19  and  O_20
REMARK                            x       y       z     vdW  Elec       q    Type
REMARK                         _______ _______ _______ _____ _____    ______ ____
ROOT
ATOM      1  O   UNL     1       2.226   2.618  17.200  0.00  0.00    +0.000 OA
ATOM      2  C   UNL     1       2.013   3.301  18.184  0.00  0.00    +0.000 C 
ATOM      3  O   UNL     1       0.917   3.196  18.987  0.00  0.00    +0.000 OA
ATOM      4  C   UNL     1       0.992   4.170  20.027  0.00  0.00    +0.000 C 
ATOM      5  C   UNL     1       2.248   4.901  19.753  0.00  0.00    +0.000 C 
ATOM      6  C   UNL     1       2.872   4.386  18.689  0.00  0.00    +0.000 C 
ENDROOT
BRANCH   6   7
ATOM      7  C   UNL     1       4.105   4.845  18.068  0.00  0.00    +0.000 A 
ATOM      8  C   UNL     1       4.057   5.727  16.985  0.00  0.00    +0.000 A 
ATOM      9  C   UNL     1       5.234   6.160  16.372  0.00  0.00    +0.000 A 
ATOM     10  C   UNL     1       6.461   5.700  16.842  0.00  0.00    +0.000 A 
ATOM     11  C   UNL     1       6.526   4.817  17.912  0.00  0.00    +0.000 A 
ATOM     12  C   UNL     1       5.349   4.388  18.528  0.00  0.00    +0.000 A 
BRANCH  10  13
ATOM     13  O   UNL     1       7.634   6.098  16.274  0.00  0.00    +0.000 OA
ATOM     14  H   UNL     1       7.997   5.356  15.761  0.00  0.00    +0.000 HD
ENDBRANCH  10  13
ENDBRANCH   6   7
BRANCH   5  15
ATOM     15  C   UNL     1       2.653   6.080  20.582  0.00  0.00    +0.000 C 
BRANCH  15  16
ATOM     16  C   UNL     1       1.976   7.387  20.212  0.00  0.00    +0.000 A 
ATOM     17  C   UNL     1       1.082   8.061  21.068  0.00  0.00    +0.000 A 
ATOM     18  C   UNL     1       0.423   9.224  20.665  0.00  0.00    +0.000 A 
ATOM     19  C   UNL     1       0.670   9.734  19.401  0.00  0.00    +0.000 A 
ATOM     20  C   UNL     1       1.569   9.099  18.551  0.00  0.00    +0.000 A 
ATOM     21  C   UNL     1       2.218   7.934  18.942  0.00  0.00    +0.000 A 
BRANCH  19  22
ATOM     22  O   UNL     1       0.044  10.863  18.947  0.00  0.00    +0.000 OA
ATOM     23  H   UNL     1      -0.293  11.348  19.721  0.00  0.00    +0.000 HD
ENDBRANCH  19  22
BRANCH  20  24
ATOM     24  O   UNL     1       1.814   9.618  17.312  0.00  0.00    +0.000 OA
ATOM     25  H   UNL     1       2.234   8.884  16.822  0.00  0.00    +0.000 HD
ENDBRANCH  20  24
ENDBRANCH  15  16
ENDBRANCH   5  15
TORSDOF 6
ENDMDL
