MODEL 1
REMARK VINA RESULT:      -6.3      0.000      0.000
REMARK  Name = 
REMARK  18 active torsions:
REMARK  status: ('A' for Active; 'I' for Inactive)
REMARK    1  A    between atoms: C_1  and  C_2
REMARK    2  A    between atoms: C_2  and  C_3
REMARK    3  A    between atoms: C_3  and  C_4
REMARK    4  A    between atoms: C_4  and  C_5
REMARK    5  A    between atoms: C_5  and  C_6
REMARK    6  A    between atoms: C_6  and  C_7
REMARK    7  A    between atoms: C_7  and  C_8
REMARK    8  A    between atoms: C_8  and  C_9
REMARK    9  A    between atoms: C_9  and  C_10
REMARK   10  A    between atoms: C_10  and  C_11
REMARK   11  A    between atoms: C_11  and  C_12
REMARK   12  A    between atoms: C_12  and  C_13
REMARK   13  A    between atoms: C_14  and  C_15
REMARK   14  A    between atoms: C_18  and  C_19
REMARK   15  A    between atoms: C_19  and  O_20
REMARK   16  A    between atoms: O_20  and  C_21
REMARK   17  A    between atoms: CA_24  and  C_25
REMARK   18  A    between atoms: C_25  and  O_26
REMARK                            x       y       z     vdW  Elec       q    Type
REMARK                         _______ _______ _______ _____ _____    ______ ____
ROOT
ATOM      1  C   UNL     1       3.123   7.746  17.970  0.00  0.00    +0.000 A 
ATOM      2  C   UNL     1       2.802   7.174  19.206  0.00  0.00    +0.000 A 
ATOM      3  C   UNL     1       1.855   7.777  20.026  0.00  0.00    +0.000 A 
ATOM      4  C   UNL     1       1.230   8.957  19.620  0.00  0.00    +0.000 A 
ATOM      5  C   UNL     1       1.559   9.533  18.383  0.00  0.00    +0.000 A 
ATOM      6  C   UNL     1       2.502   8.926  17.555  0.00  0.00    +0.000 A 
ENDROOT
BRANCH   1   8
ATOM      7  C   UNL     1       5.385   7.203  17.318  0.00  0.00    +0.000 C 
ATOM      8  C   UNL     1       4.067   7.061  17.103  0.00  0.00    +0.000 C 
BRANCH   7   9
ATOM      9  C   UNL     1       6.409   6.589  16.422  0.00  0.00    +0.000 C 
BRANCH   9  10
ATOM     10  C   UNL     1       6.963   5.305  17.029  0.00  0.00    +0.000 C 
BRANCH  10  11
ATOM     11  C   UNL     1       6.649   4.122  16.123  0.00  0.00    +0.000 C 
BRANCH  11  12
ATOM     12  C   UNL     1       5.208   3.674  16.310  0.00  0.00    +0.000 C 
BRANCH  12  13
ATOM     13  C   UNL     1       4.867   3.592  17.791  0.00  0.00    +0.000 C 
BRANCH  13  14
ATOM     14  C   UNL     1       3.552   2.855  17.990  0.00  0.00    +0.000 C 
BRANCH  14  15
ATOM     15  C   UNL     1       2.481   3.425  17.072  0.00  0.00    +0.000 C 
BRANCH  15  16
ATOM     16  C   UNL     1       1.498   4.269  17.868  0.00  0.00    +0.000 C 
BRANCH  16  17
ATOM     17  C   UNL     1       0.784   3.416  18.907  0.00  0.00    +0.000 C 
BRANCH  17  18
ATOM     18  C   UNL     1       0.964   4.010  20.297  0.00  0.00    +0.000 C 
BRANCH  18  20
ATOM     19  C   UNL     1       2.697   2.737  21.578  0.00  0.00    +0.000 C 
ATOM     20  C   UNL     1       1.210   2.916  21.328  0.00  0.00    +0.000 C 
ENDBRANCH  18  20
ENDBRANCH  17  18
ENDBRANCH  16  17
ENDBRANCH  15  16
ENDBRANCH  14  15
ENDBRANCH  13  14
ENDBRANCH  12  13
ENDBRANCH  11  12
ENDBRANCH  10  11
ENDBRANCH   9  10
ENDBRANCH   7   9
ENDBRANCH   1   8
BRANCH   4  21
ATOM     21  C   UNL     1       0.213   9.583  20.522  0.00  0.00    +0.000 C 
BRANCH  21  22
ATOM     22  O   UNL     1      -0.207  10.826  19.949  0.00  0.00    +0.000 OA
BRANCH  22  23
ATOM     23  C   UNL     1      -1.626  10.899  19.778  0.00  0.00    +0.000 C 
ATOM     24  C   UNL     1      -2.050  12.306  19.341  0.00  0.00    +0.000 C 
ATOM     25  N   UNL     1      -1.779  12.371  17.885  0.00  0.00    +0.000 NA
ATOM     26  CA  UNL     1      -2.013  10.991  17.389  0.00  0.00    +0.000 C 
ATOM     27  C   UNL     1      -2.087  10.058  18.600  0.00  0.00    +0.000 C 
ATOM     28  H   UNL     1      -0.764  12.518  17.824  0.00  0.00    +0.000 HD
BRANCH  26  29
ATOM     29  C   UNL     1      -3.297  10.894  16.556  0.00  0.00    +0.000 C 
BRANCH  29  30
ATOM     30  O   UNL     1      -3.120  11.539  15.297  0.00  0.00    +0.000 OA
ATOM     31  H   UNL     1      -2.730  12.401  15.543  0.00  0.00    +0.000 HD
ENDBRANCH  29  30
ENDBRANCH  26  29
ENDBRANCH  22  23
ENDBRANCH  21  22
ENDBRANCH   4  21
TORSDOF 17
ENDMDL
MODEL 2
REMARK VINA RESULT:      -6.2      2.926      5.403
REMARK  Name = 
REMARK  18 active torsions:
REMARK  status: ('A' for Active; 'I' for Inactive)
REMARK    1  A    between atoms: C_1  and  C_2
REMARK    2  A    between atoms: C_2  and  C_3
REMARK    3  A    between atoms: C_3  and  C_4
REMARK    4  A    between atoms: C_4  and  C_5
REMARK    5  A    between atoms: C_5  and  C_6
REMARK    6  A    between atoms: C_6  and  C_7
REMARK    7  A    between atoms: C_7  and  C_8
REMARK    8  A    between atoms: C_8  and  C_9
REMARK    9  A    between atoms: C_9  and  C_10
REMARK   10  A    between atoms: C_10  and  C_11
REMARK   11  A    between atoms: C_11  and  C_12
REMARK   12  A    between atoms: C_12  and  C_13
REMARK   13  A    between atoms: C_14  and  C_15
REMARK   14  A    between atoms: C_18  and  C_19
REMARK   15  A    between atoms: C_19  and  O_20
REMARK   16  A    between atoms: O_20  and  C_21
REMARK   17  A    between atoms: CA_24  and  C_25
REMARK   18  A    between atoms: C_25  and  O_26
REMARK                            x       y       z     vdW  Elec       q    Type
REMARK                         _______ _______ _______ _____ _____    ______ ____
ROOT
ATOM      1  C   UNL     1       2.043   7.456  19.731  0.00  0.00    +0.000 A 
ATOM      2  C   UNL     1       2.255   7.979  18.450  0.00  0.00    +0.000 A 
ATOM      3  C   UNL     1       1.816   9.261  18.142  0.00  0.00    +0.000 A 
ATOM      4  C   UNL     1       1.156  10.024  19.107  0.00  0.00    +0.000 A 
ATOM      5  C   UNL     1       0.939   9.494  20.388  0.00  0.00    +0.000 A 
ATOM      6  C   UNL     1       1.387   8.213  20.704  0.00  0.00    +0.000 A 
ENDROOT
BRANCH   1   8
ATOM      7  C   UNL     1       1.821   5.280  20.755  0.00  0.00    +0.000 C 
ATOM      8  C   UNL     1       2.571   6.140  20.048  0.00  0.00    +0.000 C 
BRANCH   7   9
ATOM      9  C   UNL     1       2.328   3.941  21.180  0.00  0.00    +0.000 C 
BRANCH   9  10
ATOM     10  C   UNL     1       1.288   2.858  20.920  0.00  0.00    +0.000 C 
BRANCH  10  11
ATOM     11  C   UNL     1       0.715   3.011  19.517  0.00  0.00    +0.000 C 
BRANCH  11  12
ATOM     12  C   UNL     1       1.561   2.250  18.508  0.00  0.00    +0.000 C 
BRANCH  12  13
ATOM     13  C   UNL     1       2.260   3.219  17.566  0.00  0.00    +0.000 C 
BRANCH  13  14
ATOM     14  C   UNL     1       3.760   3.208  17.815  0.00  0.00    +0.000 C 
BRANCH  14  15
ATOM     15  C   UNL     1       4.485   3.961  16.710  0.00  0.00    +0.000 C 
BRANCH  15  16
ATOM     16  C   UNL     1       4.472   5.456  16.993  0.00  0.00    +0.000 C 
BRANCH  16  17
ATOM     17  C   UNL     1       5.449   6.178  16.076  0.00  0.00    +0.000 C 
BRANCH  17  18
ATOM     18  C   UNL     1       6.884   5.884  16.491  0.00  0.00    +0.000 C 
BRANCH  18  20
ATOM     19  C   UNL     1       7.762   7.940  17.615  0.00  0.00    +0.000 C 
ATOM     20  C   UNL     1       7.209   6.542  17.826  0.00  0.00    +0.000 C 
ENDBRANCH  18  20
ENDBRANCH  17  18
ENDBRANCH  16  17
ENDBRANCH  15  16
ENDBRANCH  14  15
ENDBRANCH  13  14
ENDBRANCH  12  13
ENDBRANCH  11  12
ENDBRANCH  10  11
ENDBRANCH   9  10
ENDBRANCH   7   9
ENDBRANCH   1   8
BRANCH   4  21
ATOM     21  C   UNL     1       0.695  11.402  18.748  0.00  0.00    +0.000 C 
BRANCH  21  22
ATOM     22  O   UNL     1       1.825  12.168  18.315  0.00  0.00    +0.000 OA
BRANCH  22  23
ATOM     23  C   UNL     1       1.610  13.577  18.433  0.00  0.00    +0.000 C 
ATOM     24  C   UNL     1       1.216  13.948  19.868  0.00  0.00    +0.000 C 
ATOM     25  N   UNL     1       2.484  13.985  20.634  0.00  0.00    +0.000 NA
ATOM     26  CA  UNL     1       3.507  14.447  19.661  0.00  0.00    +0.000 C 
ATOM     27  C   UNL     1       2.904  14.353  18.259  0.00  0.00    +0.000 C 
ATOM     28  H   UNL     1       2.700  12.996  20.812  0.00  0.00    +0.000 HD
BRANCH  26  29
ATOM     29  C   UNL     1       3.965  15.881  19.955  0.00  0.00    +0.000 C 
BRANCH  29  30
ATOM     30  O   UNL     1       4.131  16.071  21.358  0.00  0.00    +0.000 OA
ATOM     31  H   UNL     1       4.249  17.038  21.437  0.00  0.00    +0.000 HD
ENDBRANCH  29  30
ENDBRANCH  26  29
ENDBRANCH  22  23
ENDBRANCH  21  22
ENDBRANCH   4  21
TORSDOF 17
ENDMDL
MODEL 3
REMARK VINA RESULT:      -6.0      2.529      5.124
REMARK  Name = 
REMARK  18 active torsions:
REMARK  status: ('A' for Active; 'I' for Inactive)
REMARK    1  A    between atoms: C_1  and  C_2
REMARK    2  A    between atoms: C_2  and  C_3
REMARK    3  A    between atoms: C_3  and  C_4
REMARK    4  A    between atoms: C_4  and  C_5
REMARK    5  A    between atoms: C_5  and  C_6
REMARK    6  A    between atoms: C_6  and  C_7
REMARK    7  A    between atoms: C_7  and  C_8
REMARK    8  A    between atoms: C_8  and  C_9
REMARK    9  A    between atoms: C_9  and  C_10
REMARK   10  A    between atoms: C_10  and  C_11
REMARK   11  A    between atoms: C_11  and  C_12
REMARK   12  A    between atoms: C_12  and  C_13
REMARK   13  A    between atoms: C_14  and  C_15
REMARK   14  A    between atoms: C_18  and  C_19
REMARK   15  A    between atoms: C_19  and  O_20
REMARK   16  A    between atoms: O_20  and  C_21
REMARK   17  A    between atoms: CA_24  and  C_25
REMARK   18  A    between atoms: C_25  and  O_26
REMARK                            x       y       z     vdW  Elec       q    Type
REMARK                         _______ _______ _______ _____ _____    ______ ____
ROOT
ATOM      1  C   UNL     1       1.780   7.694  20.134  0.00  0.00    +0.000 A 
ATOM      2  C   UNL     1       1.199   8.173  21.314  0.00  0.00    +0.000 A 
ATOM      3  C   UNL     1       0.612   9.433  21.338  0.00  0.00    +0.000 A 
ATOM      4  C   UNL     1       0.608  10.224  20.187  0.00  0.00    +0.000 A 
ATOM      5  C   UNL     1       1.198   9.744  19.008  0.00  0.00    +0.000 A 
ATOM      6  C   UNL     1       1.779   8.478  18.977  0.00  0.00    +0.000 A 
ENDROOT
BRANCH   1   8
ATOM      7  C   UNL     1       1.845   5.428  20.967  0.00  0.00    +0.000 C 
ATOM      8  C   UNL     1       2.327   6.349  20.116  0.00  0.00    +0.000 C 
BRANCH   7   9
ATOM      9  C   UNL     1       2.411   4.050  21.055  0.00  0.00    +0.000 C 
BRANCH   9  10
ATOM     10  C   UNL     1       1.311   3.002  20.922  0.00  0.00    +0.000 C 
BRANCH  10  11
ATOM     11  C   UNL     1       0.688   3.072  19.534  0.00  0.00    +0.000 C 
BRANCH  11  12
ATOM     12  C   UNL     1       1.365   2.088  18.594  0.00  0.00    +0.000 C 
BRANCH  12  13
ATOM     13  C   UNL     1       2.260   2.827  17.610  0.00  0.00    +0.000 C 
BRANCH  13  14
ATOM     14  C   UNL     1       3.721   2.502  17.878  0.00  0.00    +0.000 C 
BRANCH  14  15
ATOM     15  C   UNL     1       4.499   3.774  18.179  0.00  0.00    +0.000 C 
BRANCH  15  16
ATOM     16  C   UNL     1       4.219   4.828  17.119  0.00  0.00    +0.000 C 
BRANCH  16  17
ATOM     17  C   UNL     1       5.418   5.753  16.960  0.00  0.00    +0.000 C 
BRANCH  17  18
ATOM     18  C   UNL     1       6.075   5.542  15.602  0.00  0.00    +0.000 C 
BRANCH  18  20
ATOM     19  C   UNL     1       6.220   3.900  13.719  0.00  0.00    +0.000 C 
ATOM     20  C   UNL     1       5.324   4.492  14.793  0.00  0.00    +0.000 C 
ENDBRANCH  18  20
ENDBRANCH  17  18
ENDBRANCH  16  17
ENDBRANCH  15  16
ENDBRANCH  14  15
ENDBRANCH  13  14
ENDBRANCH  12  13
ENDBRANCH  11  12
ENDBRANCH  10  11
ENDBRANCH   9  10
ENDBRANCH   7   9
ENDBRANCH   1   8
BRANCH   4  21
ATOM     21  C   UNL     1      -0.032  11.575  20.242  0.00  0.00    +0.000 C 
BRANCH  21  22
ATOM     22  O   UNL     1      -0.427  11.844  21.592  0.00  0.00    +0.000 OA
BRANCH  22  23
ATOM     23  C   UNL     1      -1.212  13.035  21.706  0.00  0.00    +0.000 C 
ATOM     24  C   UNL     1      -2.640  12.795  21.204  0.00  0.00    +0.000 C 
ATOM     25  N   UNL     1      -3.346  12.114  22.315  0.00  0.00    +0.000 NA
ATOM     26  CA  UNL     1      -2.734  12.662  23.553  0.00  0.00    +0.000 C 
ATOM     27  C   UNL     1      -1.454  13.402  23.161  0.00  0.00    +0.000 C 
ATOM     28  H   UNL     1      -3.024  11.139  22.257  0.00  0.00    +0.000 HD
BRANCH  26  29
ATOM     29  C   UNL     1      -3.693  13.602  24.293  0.00  0.00    +0.000 C 
BRANCH  29  30
ATOM     30  O   UNL     1      -4.441  12.880  25.268  0.00  0.00    +0.000 OA
ATOM     31  H   UNL     1      -4.786  12.118  24.761  0.00  0.00    +0.000 HD
ENDBRANCH  29  30
ENDBRANCH  26  29
ENDBRANCH  22  23
ENDBRANCH  21  22
ENDBRANCH   4  21
TORSDOF 17
ENDMDL
MODEL 4
REMARK VINA RESULT:      -6.0      4.589      7.845
REMARK  Name = 
REMARK  18 active torsions:
REMARK  status: ('A' for Active; 'I' for Inactive)
REMARK    1  A    between atoms: C_1  and  C_2
REMARK    2  A    between atoms: C_2  and  C_3
REMARK    3  A    between atoms: C_3  and  C_4
REMARK    4  A    between atoms: C_4  and  C_5
REMARK    5  A    between atoms: C_5  and  C_6
REMARK    6  A    between atoms: C_6  and  C_7
REMARK    7  A    between atoms: C_7  and  C_8
REMARK    8  A    between atoms: C_8  and  C_9
REMARK    9  A    between atoms: C_9  and  C_10
REMARK   10  A    between atoms: C_10  and  C_11
REMARK   11  A    between atoms: C_11  and  C_12
REMARK   12  A    between atoms: C_12  and  C_13
REMARK   13  A    between atoms: C_14  and  C_15
REMARK   14  A    between atoms: C_18  and  C_19
REMARK   15  A    between atoms: C_19  and  O_20
REMARK   16  A    between atoms: O_20  and  C_21
REMARK   17  A    between atoms: CA_24  and  C_25
REMARK   18  A    between atoms: C_25  and  O_26
REMARK                            x       y       z     vdW  Elec       q    Type
REMARK                         _______ _______ _______ _____ _____    ______ ____
ROOT
ATOM      1  C   UNL     1       5.859   5.365  18.278  0.00  0.00    +0.000 A 
ATOM      2  C   UNL     1       5.431   6.392  17.430  0.00  0.00    +0.000 A 
ATOM      3  C   UNL     1       6.243   7.501  17.217  0.00  0.00    +0.000 A 
ATOM      4  C   UNL     1       7.480   7.593  17.856  0.00  0.00    +0.000 A 
ATOM      5  C   UNL     1       7.903   6.565  18.712  0.00  0.00    +0.000 A 
ATOM      6  C   UNL     1       7.097   5.448  18.920  0.00  0.00    +0.000 A 
ENDROOT
BRANCH   1   8
ATOM      7  C   UNL     1       5.055   3.499  19.584  0.00  0.00    +0.000 C 
ATOM      8  C   UNL     1       5.023   4.186  18.431  0.00  0.00    +0.000 C 
BRANCH   7   9
ATOM      9  C   UNL     1       4.279   2.239  19.783  0.00  0.00    +0.000 C 
BRANCH   9  10
ATOM     10  C   UNL     1       3.257   2.048  18.668  0.00  0.00    +0.000 C 
BRANCH  10  11
ATOM     11  C   UNL     1       1.857   1.935  19.259  0.00  0.00    +0.000 C 
BRANCH  11  12
ATOM     12  C   UNL     1       1.156   3.284  19.233  0.00  0.00    +0.000 C 
BRANCH  12  13
ATOM     13  C   UNL     1       1.122   3.888  20.629  0.00  0.00    +0.000 C 
BRANCH  13  14
ATOM     14  C   UNL     1       1.869   5.212  20.650  0.00  0.00    +0.000 C 
BRANCH  14  15
ATOM     15  C   UNL     1       2.113   5.705  19.232  0.00  0.00    +0.000 C 
BRANCH  15  16
ATOM     16  C   UNL     1       2.285   7.216  19.221  0.00  0.00    +0.000 C 
BRANCH  16  17
ATOM     17  C   UNL     1       1.757   7.820  20.514  0.00  0.00    +0.000 C 
BRANCH  17  18
ATOM     18  C   UNL     1       1.177   9.205  20.256  0.00  0.00    +0.000 C 
BRANCH  18  20
ATOM     19  C   UNL     1      -0.518   8.797  22.052  0.00  0.00    +0.000 C 
ATOM     20  C   UNL     1       0.523   9.763  21.514  0.00  0.00    +0.000 C 
ENDBRANCH  18  20
ENDBRANCH  17  18
ENDBRANCH  16  17
ENDBRANCH  15  16
ENDBRANCH  14  15
ENDBRANCH  13  14
ENDBRANCH  12  13
ENDBRANCH  11  12
ENDBRANCH  10  11
ENDBRANCH   9  10
ENDBRANCH   7   9
ENDBRANCH   1   8
BRANCH   4  21
ATOM     21  C   UNL     1       8.333   8.798  17.607  0.00  0.00    +0.000 C 
BRANCH  21  22
ATOM     22  O   UNL     1       8.376   9.586  18.802  0.00  0.00    +0.000 OA
BRANCH  22  23
ATOM     23  C   UNL     1       9.621  10.272  18.961  0.00  0.00    +0.000 C 
ATOM     24  C   UNL     1       9.747  11.414  17.945  0.00  0.00    +0.000 C 
ATOM     25  N   UNL     1       8.953  12.535  18.502  0.00  0.00    +0.000 NA
ATOM     26  CA  UNL     1       9.088  12.406  19.976  0.00  0.00    +0.000 C 
ATOM     27  C   UNL     1       9.675  11.026  20.279  0.00  0.00    +0.000 C 
ATOM     28  H   UNL     1       7.979  12.282  18.292  0.00  0.00    +0.000 HD
BRANCH  26  29
ATOM     29  C   UNL     1       9.977  13.509  20.565  0.00  0.00    +0.000 C 
BRANCH  29  30
ATOM     30  O   UNL     1      11.353  13.201  20.355  0.00  0.00    +0.000 OA
ATOM     31  H   UNL     1      11.703  13.128  21.265  0.00  0.00    +0.000 HD
ENDBRANCH  29  30
ENDBRANCH  26  29
ENDBRANCH  22  23
ENDBRANCH  21  22
ENDBRANCH   4  21
TORSDOF 17
ENDMDL
MODEL 5
REMARK VINA RESULT:      -6.0      5.845      9.478
REMARK  Name = 
REMARK  18 active torsions:
REMARK  status: ('A' for Active; 'I' for Inactive)
REMARK    1  A    between atoms: C_1  and  C_2
REMARK    2  A    between atoms: C_2  and  C_3
REMARK    3  A    between atoms: C_3  and  C_4
REMARK    4  A    between atoms: C_4  and  C_5
REMARK    5  A    between atoms: C_5  and  C_6
REMARK    6  A    between atoms: C_6  and  C_7
REMARK    7  A    between atoms: C_7  and  C_8
REMARK    8  A    between atoms: C_8  and  C_9
REMARK    9  A    between atoms: C_9  and  C_10
REMARK   10  A    between atoms: C_10  and  C_11
REMARK   11  A    between atoms: C_11  and  C_12
REMARK   12  A    between atoms: C_12  and  C_13
REMARK   13  A    between atoms: C_14  and  C_15
REMARK   14  A    between atoms: C_18  and  C_19
REMARK   15  A    between atoms: C_19  and  O_20
REMARK   16  A    between atoms: O_20  and  C_21
REMARK   17  A    between atoms: CA_24  and  C_25
REMARK   18  A    between atoms: C_25  and  O_26
REMARK                            x       y       z     vdW  Elec       q    Type
REMARK                         _______ _______ _______ _____ _____    ______ ____
ROOT
ATOM      1  C   UNL     1       7.555   7.157  17.989  0.00  0.00    +0.000 A 
ATOM      2  C   UNL     1       7.824   5.862  18.445  0.00  0.00    +0.000 A 
ATOM      3  C   UNL     1       7.094   4.786  17.951  0.00  0.00    +0.000 A 
ATOM      4  C   UNL     1       6.087   4.999  17.009  0.00  0.00    +0.000 A 
ATOM      5  C   UNL     1       5.814   6.301  16.560  0.00  0.00    +0.000 A 
ATOM      6  C   UNL     1       6.551   7.380  17.044  0.00  0.00    +0.000 A 
ENDROOT
BRANCH   1   8
ATOM      7  C   UNL     1       8.287   9.456  17.876  0.00  0.00    +0.000 C 
ATOM      8  C   UNL     1       8.377   8.255  18.469  0.00  0.00    +0.000 C 
BRANCH   7   9
ATOM      9  C   UNL     1       9.154  10.606  18.268  0.00  0.00    +0.000 C 
BRANCH   9  10
ATOM     10  C   UNL     1       8.451  11.933  18.001  0.00  0.00    +0.000 C 
BRANCH  10  11
ATOM     11  C   UNL     1       9.418  12.915  17.353  0.00  0.00    +0.000 C 
BRANCH  11  12
ATOM     12  C   UNL     1       9.340  14.271  18.034  0.00  0.00    +0.000 C 
BRANCH  12  13
ATOM     13  C   UNL     1       7.914  14.800  17.998  0.00  0.00    +0.000 C 
BRANCH  13  14
ATOM     14  C   UNL     1       7.428  15.108  19.405  0.00  0.00    +0.000 C 
BRANCH  14  15
ATOM     15  C   UNL     1       8.494  14.739  20.426  0.00  0.00    +0.000 C 
BRANCH  15  16
ATOM     16  C   UNL     1       7.995  13.623  21.330  0.00  0.00    +0.000 C 
BRANCH  16  17
ATOM     17  C   UNL     1       9.114  12.632  21.617  0.00  0.00    +0.000 C 
BRANCH  17  18
ATOM     18  C   UNL     1      10.429  13.130  21.031  0.00  0.00    +0.000 C 
BRANCH  18  20
ATOM     19  C   UNL     1      12.331  12.412  19.571  0.00  0.00    +0.000 C 
ATOM     20  C   UNL     1      11.308  11.963  20.600  0.00  0.00    +0.000 C 
ENDBRANCH  18  20
ENDBRANCH  17  18
ENDBRANCH  16  17
ENDBRANCH  15  16
ENDBRANCH  14  15
ENDBRANCH  13  14
ENDBRANCH  12  13
ENDBRANCH  11  12
ENDBRANCH  10  11
ENDBRANCH   9  10
ENDBRANCH   7   9
ENDBRANCH   1   8
BRANCH   4  21
ATOM     21  C   UNL     1       5.317   3.823  16.495  0.00  0.00    +0.000 C 
BRANCH  21  22
ATOM     22  O   UNL     1       3.919   4.123  16.562  0.00  0.00    +0.000 OA
BRANCH  22  23
ATOM     23  C   UNL     1       3.485   4.421  17.892  0.00  0.00    +0.000 C 
ATOM     24  C   UNL     1       2.016   4.857  17.900  0.00  0.00    +0.000 C 
ATOM     25  N   UNL     1       1.225   3.605  17.825  0.00  0.00    +0.000 NA
ATOM     26  CA  UNL     1       2.037   2.596  18.552  0.00  0.00    +0.000 C 
ATOM     27  C   UNL     1       3.440   3.170  18.754  0.00  0.00    +0.000 C 
ATOM     28  H   UNL     1       1.275   3.336  16.834  0.00  0.00    +0.000 HD
BRANCH  26  29
ATOM     29  C   UNL     1       1.408   2.225  19.901  0.00  0.00    +0.000 C 
BRANCH  29  30
ATOM     30  O   UNL     1       0.342   3.119  20.213  0.00  0.00    +0.000 OA
ATOM     31  H   UNL     1       0.246   3.018  21.181  0.00  0.00    +0.000 HD
ENDBRANCH  29  30
ENDBRANCH  26  29
ENDBRANCH  22  23
ENDBRANCH  21  22
ENDBRANCH   4  21
TORSDOF 17
ENDMDL
MODEL 6
REMARK VINA RESULT:      -5.9      3.864      9.309
REMARK  Name = 
REMARK  18 active torsions:
REMARK  status: ('A' for Active; 'I' for Inactive)
REMARK    1  A    between atoms: C_1  and  C_2
REMARK    2  A    between atoms: C_2  and  C_3
REMARK    3  A    between atoms: C_3  and  C_4
REMARK    4  A    between atoms: C_4  and  C_5
REMARK    5  A    between atoms: C_5  and  C_6
REMARK    6  A    between atoms: C_6  and  C_7
REMARK    7  A    between atoms: C_7  and  C_8
REMARK    8  A    between atoms: C_8  and  C_9
REMARK    9  A    between atoms: C_9  and  C_10
REMARK   10  A    between atoms: C_10  and  C_11
REMARK   11  A    between atoms: C_11  and  C_12
REMARK   12  A    between atoms: C_12  and  C_13
REMARK   13  A    between atoms: C_14  and  C_15
REMARK   14  A    between atoms: C_18  and  C_19
REMARK   15  A    between atoms: C_19  and  O_20
REMARK   16  A    between atoms: O_20  and  C_21
REMARK   17  A    between atoms: CA_24  and  C_25
REMARK   18  A    between atoms: C_25  and  O_26
REMARK                            x       y       z     vdW  Elec       q    Type
REMARK                         _______ _______ _______ _____ _____    ______ ____
ROOT
ATOM      1  C   UNL     1       1.201   8.625  20.066  0.00  0.00    +0.000 A 
ATOM      2  C   UNL     1       1.536   7.382  20.616  0.00  0.00    +0.000 A 
ATOM      3  C   UNL     1       2.326   6.494  19.896  0.00  0.00    +0.000 A 
ATOM      4  C   UNL     1       2.779   6.838  18.621  0.00  0.00    +0.000 A 
ATOM      5  C   UNL     1       2.435   8.081  18.069  0.00  0.00    +0.000 A 
ATOM      6  C   UNL     1       1.651   8.978  18.792  0.00  0.00    +0.000 A 
ENDROOT
BRANCH   1   8
ATOM      7  C   UNL     1       0.249   9.321  22.174  0.00  0.00    +0.000 C 
ATOM      8  C   UNL     1       0.430   9.562  20.866  0.00  0.00    +0.000 C 
BRANCH   7   9
ATOM      9  C   UNL     1      -0.593  10.200  23.038  0.00  0.00    +0.000 C 
BRANCH   9  10
ATOM     10  C   UNL     1      -0.683  11.607  22.457  0.00  0.00    +0.000 C 
BRANCH  10  11
ATOM     11  C   UNL     1      -2.142  11.991  22.243  0.00  0.00    +0.000 C 
BRANCH  11  12
ATOM     12  C   UNL     1      -2.285  12.887  21.023  0.00  0.00    +0.000 C 
BRANCH  12  13
ATOM     13  C   UNL     1      -1.023  12.831  20.175  0.00  0.00    +0.000 C 
BRANCH  13  14
ATOM     14  C   UNL     1      -1.300  12.120  18.860  0.00  0.00    +0.000 C 
BRANCH  14  15
ATOM     15  C   UNL     1      -2.767  11.728  18.770  0.00  0.00    +0.000 C 
BRANCH  15  16
ATOM     16  C   UNL     1      -3.147  11.432  17.327  0.00  0.00    +0.000 C 
BRANCH  16  17
ATOM     17  C   UNL     1      -4.640  11.155  17.217  0.00  0.00    +0.000 C 
BRANCH  17  18
ATOM     18  C   UNL     1      -5.309  11.303  18.577  0.00  0.00    +0.000 C 
BRANCH  18  20
ATOM     19  C   UNL     1      -7.290  10.621  19.947  0.00  0.00    +0.000 C 
ATOM     20  C   UNL     1      -6.735  10.768  18.541  0.00  0.00    +0.000 C 
ENDBRANCH  18  20
ENDBRANCH  17  18
ENDBRANCH  16  17
ENDBRANCH  15  16
ENDBRANCH  14  15
ENDBRANCH  13  14
ENDBRANCH  12  13
ENDBRANCH  11  12
ENDBRANCH  10  11
ENDBRANCH   9  10
ENDBRANCH   7   9
ENDBRANCH   1   8
BRANCH   4  21
ATOM     21  C   UNL     1       3.630   5.863  17.869  0.00  0.00    +0.000 C 
BRANCH  21  22
ATOM     22  O   UNL     1       5.006   6.145  18.143  0.00  0.00    +0.000 OA
BRANCH  22  23
ATOM     23  C   UNL     1       5.699   6.652  16.998  0.00  0.00    +0.000 C 
ATOM     24  C   UNL     1       7.204   6.377  17.108  0.00  0.00    +0.000 C 
ATOM     25  N   UNL     1       7.383   4.962  16.705  0.00  0.00    +0.000 NA
ATOM     26  CA  UNL     1       6.332   4.718  15.684  0.00  0.00    +0.000 C 
ATOM     27  C   UNL     1       5.336   5.878  15.742  0.00  0.00    +0.000 C 
ATOM     28  H   UNL     1       7.094   4.426  17.532  0.00  0.00    +0.000 HD
BRANCH  26  29
ATOM     29  C   UNL     1       6.924   4.588  14.276  0.00  0.00    +0.000 C 
BRANCH  29  30
ATOM     30  O   UNL     1       6.381   3.448  13.613  0.00  0.00    +0.000 OA
ATOM     31  H   UNL     1       7.139   2.831  13.580  0.00  0.00    +0.000 HD
ENDBRANCH  29  30
ENDBRANCH  26  29
ENDBRANCH  22  23
ENDBRANCH  21  22
ENDBRANCH   4  21
TORSDOF 17
ENDMDL
MODEL 7
REMARK VINA RESULT:      -5.9      2.679      4.955
REMARK  Name = 
REMARK  18 active torsions:
REMARK  status: ('A' for Active; 'I' for Inactive)
REMARK    1  A    between atoms: C_1  and  C_2
REMARK    2  A    between atoms: C_2  and  C_3
REMARK    3  A    between atoms: C_3  and  C_4
REMARK    4  A    between atoms: C_4  and  C_5
REMARK    5  A    between atoms: C_5  and  C_6
REMARK    6  A    between atoms: C_6  and  C_7
REMARK    7  A    between atoms: C_7  and  C_8
REMARK    8  A    between atoms: C_8  and  C_9
REMARK    9  A    between atoms: C_9  and  C_10
REMARK   10  A    between atoms: C_10  and  C_11
REMARK   11  A    between atoms: C_11  and  C_12
REMARK   12  A    between atoms: C_12  and  C_13
REMARK   13  A    between atoms: C_14  and  C_15
REMARK   14  A    between atoms: C_18  and  C_19
REMARK   15  A    between atoms: C_19  and  O_20
REMARK   16  A    between atoms: O_20  and  C_21
REMARK   17  A    between atoms: CA_24  and  C_25
REMARK   18  A    between atoms: C_25  and  O_26
REMARK                            x       y       z     vdW  Elec       q    Type
REMARK                         _______ _______ _______ _____ _____    ______ ____
ROOT
ATOM      1  C   UNL     1       1.829   8.157  19.650  0.00  0.00    +0.000 A 
ATOM      2  C   UNL     1       1.159   8.865  20.654  0.00  0.00    +0.000 A 
ATOM      3  C   UNL     1       0.588  10.100  20.369  0.00  0.00    +0.000 A 
ATOM      4  C   UNL     1       0.690  10.638  19.085  0.00  0.00    +0.000 A 
ATOM      5  C   UNL     1       1.370   9.929  18.083  0.00  0.00    +0.000 A 
ATOM      6  C   UNL     1       1.935   8.686  18.362  0.00  0.00    +0.000 A 
ENDROOT
BRANCH   1   8
ATOM      7  C   UNL     1       1.629   5.989  20.697  0.00  0.00    +0.000 C 
ATOM      8  C   UNL     1       2.358   6.838  19.955  0.00  0.00    +0.000 C 
BRANCH   7   9
ATOM      9  C   UNL     1       2.141   4.649  21.110  0.00  0.00    +0.000 C 
BRANCH   9  10
ATOM     10  C   UNL     1       1.183   3.544  20.680  0.00  0.00    +0.000 C 
BRANCH  10  11
ATOM     11  C   UNL     1       1.919   2.212  20.614  0.00  0.00    +0.000 C 
BRANCH  11  12
ATOM     12  C   UNL     1       2.684   2.089  19.306  0.00  0.00    +0.000 C 
BRANCH  12  13
ATOM     13  C   UNL     1       1.794   2.472  18.134  0.00  0.00    +0.000 C 
BRANCH  13  14
ATOM     14  C   UNL     1       2.610   3.168  17.056  0.00  0.00    +0.000 C 
BRANCH  14  15
ATOM     15  C   UNL     1       3.090   4.525  17.549  0.00  0.00    +0.000 C 
BRANCH  15  16
ATOM     16  C   UNL     1       4.472   4.830  16.992  0.00  0.00    +0.000 C 
BRANCH  16  17
ATOM     17  C   UNL     1       5.267   5.675  17.979  0.00  0.00    +0.000 C 
BRANCH  17  18
ATOM     18  C   UNL     1       5.831   6.909  17.287  0.00  0.00    +0.000 C 
BRANCH  18  20
ATOM     19  C   UNL     1       7.804   6.327  18.713  0.00  0.00    +0.000 C 
ATOM     20  C   UNL     1       7.349   6.950  17.405  0.00  0.00    +0.000 C 
ENDBRANCH  18  20
ENDBRANCH  17  18
ENDBRANCH  16  17
ENDBRANCH  15  16
ENDBRANCH  14  15
ENDBRANCH  13  14
ENDBRANCH  12  13
ENDBRANCH  11  12
ENDBRANCH  10  11
ENDBRANCH   9  10
ENDBRANCH   7   9
ENDBRANCH   1   8
BRANCH   4  21
ATOM     21  C   UNL     1       0.066  11.969  18.807  0.00  0.00    +0.000 C 
BRANCH  21  22
ATOM     22  O   UNL     1      -0.086  12.674  20.044  0.00  0.00    +0.000 OA
BRANCH  22  23
ATOM     23  C   UNL     1       0.487  13.984  20.003  0.00  0.00    +0.000 C 
ATOM     24  C   UNL     1       1.429  14.203  21.192  0.00  0.00    +0.000 C 
ATOM     25  N   UNL     1       2.701  13.536  20.825  0.00  0.00    +0.000 NA
ATOM     26  CA  UNL     1       2.800  13.685  19.350  0.00  0.00    +0.000 C 
ATOM     27  C   UNL     1       1.436  14.137  18.826  0.00  0.00    +0.000 C 
ATOM     28  H   UNL     1       2.517  12.538  20.988  0.00  0.00    +0.000 HD
BRANCH  26  29
ATOM     29  C   UNL     1       3.889  14.690  18.953  0.00  0.00    +0.000 C 
BRANCH  29  30
ATOM     30  O   UNL     1       4.610  14.216  17.818  0.00  0.00    +0.000 OA
ATOM     31  H   UNL     1       5.293  13.641  18.216  0.00  0.00    +0.000 HD
ENDBRANCH  29  30
ENDBRANCH  26  29
ENDBRANCH  22  23
ENDBRANCH  21  22
ENDBRANCH   4  21
TORSDOF 17
ENDMDL
MODEL 8
REMARK VINA RESULT:      -5.8      1.988      2.622
REMARK  Name = 
REMARK  18 active torsions:
REMARK  status: ('A' for Active; 'I' for Inactive)
REMARK    1  A    between atoms: C_1  and  C_2
REMARK    2  A    between atoms: C_2  and  C_3
REMARK    3  A    between atoms: C_3  and  C_4
REMARK    4  A    between atoms: C_4  and  C_5
REMARK    5  A    between atoms: C_5  and  C_6
REMARK    6  A    between atoms: C_6  and  C_7
REMARK    7  A    between atoms: C_7  and  C_8
REMARK    8  A    between atoms: C_8  and  C_9
REMARK    9  A    between atoms: C_9  and  C_10
REMARK   10  A    between atoms: C_10  and  C_11
REMARK   11  A    between atoms: C_11  and  C_12
REMARK   12  A    between atoms: C_12  and  C_13
REMARK   13  A    between atoms: C_14  and  C_15
REMARK   14  A    between atoms: C_18  and  C_19
REMARK   15  A    between atoms: C_19  and  O_20
REMARK   16  A    between atoms: O_20  and  C_21
REMARK   17  A    between atoms: CA_24  and  C_25
REMARK   18  A    between atoms: C_25  and  O_26
REMARK                            x       y       z     vdW  Elec       q    Type
REMARK                         _______ _______ _______ _____ _____    ______ ____
ROOT
ATOM      1  C   UNL     1       2.398   7.866  18.451  0.00  0.00    +0.000 A 
ATOM      2  C   UNL     1       2.254   7.424  19.771  0.00  0.00    +0.000 A 
ATOM      3  C   UNL     1       1.464   8.142  20.662  0.00  0.00    +0.000 A 
ATOM      4  C   UNL     1       0.821   9.308  20.242  0.00  0.00    +0.000 A 
ATOM      5  C   UNL     1       0.974   9.753  18.920  0.00  0.00    +0.000 A 
ATOM      6  C   UNL     1       1.757   9.030  18.021  0.00  0.00    +0.000 A 
ENDROOT
BRANCH   1   8
ATOM      7  C   UNL     1       4.467   7.356  17.314  0.00  0.00    +0.000 C 
ATOM      8  C   UNL     1       3.173   7.062  17.522  0.00  0.00    +0.000 C 
BRANCH   7   9
ATOM      9  C   UNL     1       5.302   6.619  16.320  0.00  0.00    +0.000 C 
BRANCH   9  10
ATOM     10  C   UNL     1       6.618   6.168  16.943  0.00  0.00    +0.000 C 
BRANCH  10  11
ATOM     11  C   UNL     1       6.499   4.730  17.431  0.00  0.00    +0.000 C 
BRANCH  11  12
ATOM     12  C   UNL     1       5.778   4.677  18.769  0.00  0.00    +0.000 C 
BRANCH  12  13
ATOM     13  C   UNL     1       4.653   3.654  18.724  0.00  0.00    +0.000 C 
BRANCH  13  14
ATOM     14  C   UNL     1       4.318   3.300  17.283  0.00  0.00    +0.000 C 
BRANCH  14  15
ATOM     15  C   UNL     1       2.811   3.291  17.078  0.00  0.00    +0.000 C 
BRANCH  15  16
ATOM     16  C   UNL     1       2.117   3.998  18.231  0.00  0.00    +0.000 C 
BRANCH  16  17
ATOM     17  C   UNL     1       1.019   3.117  18.811  0.00  0.00    +0.000 C 
BRANCH  17  18
ATOM     18  C   UNL     1       1.582   2.217  19.904  0.00  0.00    +0.000 C 
BRANCH  18  20
ATOM     19  C   UNL     1       2.211   3.935  21.611  0.00  0.00    +0.000 C 
ATOM     20  C   UNL     1       1.276   2.784  21.284  0.00  0.00    +0.000 C 
ENDBRANCH  18  20
ENDBRANCH  17  18
ENDBRANCH  16  17
ENDBRANCH  15  16
ENDBRANCH  14  15
ENDBRANCH  13  14
ENDBRANCH  12  13
ENDBRANCH  11  12
ENDBRANCH  10  11
ENDBRANCH   9  10
ENDBRANCH   7   9
ENDBRANCH   1   8
BRANCH   4  21
ATOM     21  C   UNL     1      -0.023  10.060  21.222  0.00  0.00    +0.000 C 
BRANCH  21  22
ATOM     22  O   UNL     1      -0.720  11.100  20.527  0.00  0.00    +0.000 OA
BRANCH  22  23
ATOM     23  C   UNL     1      -0.792  12.312  21.284  0.00  0.00    +0.000 C 
ATOM     24  C   UNL     1      -1.212  13.486  20.392  0.00  0.00    +0.000 C 
ATOM     25  N   UNL     1      -2.684  13.377  20.253  0.00  0.00    +0.000 NA
ATOM     26  CA  UNL     1      -3.149  12.804  21.543  0.00  0.00    +0.000 C 
ATOM     27  C   UNL     1      -1.927  12.270  22.293  0.00  0.00    +0.000 C 
ATOM     28  H   UNL     1      -2.817  12.633  19.558  0.00  0.00    +0.000 HD
BRANCH  26  29
ATOM     29  C   UNL     1      -3.889  13.844  22.393  0.00  0.00    +0.000 C 
BRANCH  29  30
ATOM     30  O   UNL     1      -2.987  14.482  23.293  0.00  0.00    +0.000 OA
ATOM     31  H   UNL     1      -2.674  15.254  22.782  0.00  0.00    +0.000 HD
ENDBRANCH  29  30
ENDBRANCH  26  29
ENDBRANCH  22  23
ENDBRANCH  21  22
ENDBRANCH   4  21
TORSDOF 17
ENDMDL
MODEL 9
REMARK VINA RESULT:      -5.8      1.653      4.312
REMARK  Name = 
REMARK  18 active torsions:
REMARK  status: ('A' for Active; 'I' for Inactive)
REMARK    1  A    between atoms: C_1  and  C_2
REMARK    2  A    between atoms: C_2  and  C_3
REMARK    3  A    between atoms: C_3  and  C_4
REMARK    4  A    between atoms: C_4  and  C_5
REMARK    5  A    between atoms: C_5  and  C_6
REMARK    6  A    between atoms: C_6  and  C_7
REMARK    7  A    between atoms: C_7  and  C_8
REMARK    8  A    between atoms: C_8  and  C_9
REMARK    9  A    between atoms: C_9  and  C_10
REMARK   10  A    between atoms: C_10  and  C_11
REMARK   11  A    between atoms: C_11  and  C_12
REMARK   12  A    between atoms: C_12  and  C_13
REMARK   13  A    between atoms: C_14  and  C_15
REMARK   14  A    between atoms: C_18  and  C_19
REMARK   15  A    between atoms: C_19  and  O_20
REMARK   16  A    between atoms: O_20  and  C_21
REMARK   17  A    between atoms: CA_24  and  C_25
REMARK   18  A    between atoms: C_25  and  O_26
REMARK                            x       y       z     vdW  Elec       q    Type
REMARK                         _______ _______ _______ _____ _____    ______ ____
ROOT
ATOM      1  C   UNL     1       2.130   6.701  19.772  0.00  0.00    +0.000 A 
ATOM      2  C   UNL     1       1.516   7.438  20.791  0.00  0.00    +0.000 A 
ATOM      3  C   UNL     1       1.163   8.765  20.573  0.00  0.00    +0.000 A 
ATOM      4  C   UNL     1       1.429   9.365  19.341  0.00  0.00    +0.000 A 
ATOM      5  C   UNL     1       2.051   8.626  18.324  0.00  0.00    +0.000 A 
ATOM      6  C   UNL     1       2.398   7.293  18.535  0.00  0.00    +0.000 A 
ENDROOT
BRANCH   1   8
ATOM      7  C   UNL     1       1.787   4.638  20.980  0.00  0.00    +0.000 C 
ATOM      8  C   UNL     1       2.428   5.298  20.002  0.00  0.00    +0.000 C 
BRANCH   7   9
ATOM      9  C   UNL     1       2.097   3.218  21.320  0.00  0.00    +0.000 C 
BRANCH   9  10
ATOM     10  C   UNL     1       2.598   2.463  20.094  0.00  0.00    +0.000 C 
BRANCH  10  11
ATOM     11  C   UNL     1       4.095   2.211  20.212  0.00  0.00    +0.000 C 
BRANCH  11  12
ATOM     12  C   UNL     1       4.786   2.467  18.882  0.00  0.00    +0.000 C 
BRANCH  12  13
ATOM     13  C   UNL     1       4.631   3.926  18.477  0.00  0.00    +0.000 C 
BRANCH  13  14
ATOM     14  C   UNL     1       4.195   4.028  17.024  0.00  0.00    +0.000 C 
BRANCH  14  15
ATOM     15  C   UNL     1       5.126   4.953  16.256  0.00  0.00    +0.000 C 
BRANCH  15  16
ATOM     16  C   UNL     1       5.699   6.014  17.183  0.00  0.00    +0.000 C 
BRANCH  16  17
ATOM     17  C   UNL     1       7.219   6.032  17.094  0.00  0.00    +0.000 C 
BRANCH  17  18
ATOM     18  C   UNL     1       7.799   6.998  18.118  0.00  0.00    +0.000 C 
BRANCH  18  20
ATOM     19  C   UNL     1       8.602   9.343  18.467  0.00  0.00    +0.000 C 
ATOM     20  C   UNL     1       7.748   8.431  17.603  0.00  0.00    +0.000 C 
ENDBRANCH  18  20
ENDBRANCH  17  18
ENDBRANCH  16  17
ENDBRANCH  15  16
ENDBRANCH  14  15
ENDBRANCH  13  14
ENDBRANCH  12  13
ENDBRANCH  11  12
ENDBRANCH  10  11
ENDBRANCH   9  10
ENDBRANCH   7   9
ENDBRANCH   1   8
BRANCH   4  21
ATOM     21  C   UNL     1       1.037  10.795  19.135  0.00  0.00    +0.000 C 
BRANCH  21  22
ATOM     22  O   UNL     1      -0.080  10.842  18.240  0.00  0.00    +0.000 OA
BRANCH  22  23
ATOM     23  C   UNL     1      -1.311  10.493  18.882  0.00  0.00    +0.000 C 
ATOM     24  C   UNL     1      -1.849  11.672  19.701  0.00  0.00    +0.000 C 
ATOM     25  N   UNL     1      -2.507  12.572  18.724  0.00  0.00    +0.000 NA
ATOM     26  CA  UNL     1      -3.053  11.669  17.678  0.00  0.00    +0.000 C 
ATOM     27  C   UNL     1      -2.425  10.287  17.870  0.00  0.00    +0.000 C 
ATOM     28  H   UNL     1      -1.727  13.071  18.277  0.00  0.00    +0.000 HD
BRANCH  26  29
ATOM     29  C   UNL     1      -4.582  11.579  17.746  0.00  0.00    +0.000 C 
BRANCH  29  30
ATOM     30  O   UNL     1      -4.987  10.245  18.045  0.00  0.00    +0.000 OA
ATOM     31  H   UNL     1      -4.350   9.703  17.540  0.00  0.00    +0.000 HD
ENDBRANCH  29  30
ENDBRANCH  26  29
ENDBRANCH  22  23
ENDBRANCH  21  22
ENDBRANCH   4  21
TORSDOF 17
ENDMDL
