MODEL 1
REMARK VINA RESULT:      -6.3      0.000      0.000
REMARK  Name = 
REMARK  9 active torsions:
REMARK  status: ('A' for Active; 'I' for Inactive)
REMARK    1  A    between atoms: C_1  and  C_2
REMARK    2  A    between atoms: C_2  and  N_3
REMARK    3  A    between atoms: N_3  and  C_4
REMARK    4  A    between atoms: N_3  and  C_6
REMARK    5  A    between atoms: C_4  and  C_5
REMARK    6  A    between atoms: C_6  and  C_7
REMARK    7  A    between atoms: C_7  and  N_8
REMARK    8  A    between atoms: N_15  and  C_16
REMARK    9  A    between atoms: N_19  and  C_20
REMARK                            x       y       z     vdW  Elec       q    Type
REMARK                         _______ _______ _______ _____ _____    ______ ____
ROOT
ATOM      1  N   UNL     1       4.079   6.274  17.229  0.00  0.00    +0.000 N 
ATOM      2  C   UNL     1       3.497   7.328  17.889  0.00  0.00    +0.000 A 
ATOM      3  N   UNL     1       2.738   6.922  18.886  0.00  0.00    +0.000 NA
ATOM      4  C   UNL     1       2.850   5.565  18.865  0.00  0.00    +0.000 A 
ATOM      5  C   UNL     1       3.660   5.132  17.858  0.00  0.00    +0.000 A 
ATOM      6  C   UNL     1       3.924   3.759  17.612  0.00  0.00    +0.000 A 
ATOM      7  O   UNL     1       4.592   3.369  16.660  0.00  0.00    +0.000 OA
ATOM      8  N   UNL     1       3.330   2.915  18.554  0.00  0.00    +0.000 N 
ATOM      9  C   UNL     1       3.572   1.491  18.439  0.00  0.00    +0.000 C 
ATOM     10  C   UNL     1       2.471   3.322  19.595  0.00  0.00    +0.000 A 
ATOM     11  O   UNL     1       1.953   2.494  20.350  0.00  0.00    +0.000 OA
ATOM     12  N   UNL     1       2.235   4.691  19.727  0.00  0.00    +0.000 N 
ATOM     13  C   UNL     1       1.352   5.190  20.766  0.00  0.00    +0.000 C 
ENDROOT
BRANCH   1  14
ATOM     14  C   UNL     1       4.963   6.386  16.081  0.00  0.00    +0.000 C 
BRANCH  14  15
ATOM     15  C   UNL     1       6.419   6.602  16.523  0.00  0.00    +0.000 C 
BRANCH  15  16
ATOM     16  N   UNL     1       7.366   5.512  16.202  0.00  0.00    +0.000 NA
BRANCH  16  18
ATOM     17  C   UNL     1       7.631   5.520  18.724  0.00  0.00    +0.000 C 
ATOM     18  C   UNL     1       7.613   4.722  17.425  0.00  0.00    +0.000 C 
ENDBRANCH  16  18
BRANCH  16  19
ATOM     19  C   UNL     1       6.987   4.704  15.035  0.00  0.00    +0.000 C 
ATOM     20  C   UNL     1       7.554   5.156  13.693  0.00  0.00    +0.000 C 
ENDBRANCH  16  19
ENDBRANCH  15  16
ENDBRANCH  14  15
ENDBRANCH   1  14
TORSDOF 5
ENDMDL
MODEL 2
REMARK VINA RESULT:      -6.1      2.423      5.979
REMARK  Name = 
REMARK  9 active torsions:
REMARK  status: ('A' for Active; 'I' for Inactive)
REMARK    1  A    between atoms: C_1  and  C_2
REMARK    2  A    between atoms: C_2  and  N_3
REMARK    3  A    between atoms: N_3  and  C_4
REMARK    4  A    between atoms: N_3  and  C_6
REMARK    5  A    between atoms: C_4  and  C_5
REMARK    6  A    between atoms: C_6  and  C_7
REMARK    7  A    between atoms: C_7  and  N_8
REMARK    8  A    between atoms: N_15  and  C_16
REMARK    9  A    between atoms: N_19  and  C_20
REMARK                            x       y       z     vdW  Elec       q    Type
REMARK                         _______ _______ _______ _____ _____    ______ ____
ROOT
ATOM      1  N   UNL     1       4.521   3.332  18.797  0.00  0.00    +0.000 N 
ATOM      2  C   UNL     1       3.882   2.795  17.706  0.00  0.00    +0.000 A 
ATOM      3  N   UNL     1       4.309   3.326  16.578  0.00  0.00    +0.000 NA
ATOM      4  C   UNL     1       5.258   4.222  16.965  0.00  0.00    +0.000 A 
ATOM      5  C   UNL     1       5.411   4.257  18.319  0.00  0.00    +0.000 A 
ATOM      6  C   UNL     1       6.326   5.122  18.973  0.00  0.00    +0.000 A 
ATOM      7  O   UNL     1       6.408   5.206  20.195  0.00  0.00    +0.000 OA
ATOM      8  N   UNL     1       7.099   5.870  18.081  0.00  0.00    +0.000 N 
ATOM      9  C   UNL     1       8.108   6.754  18.630  0.00  0.00    +0.000 C 
ATOM     10  C   UNL     1       6.957   5.877  16.678  0.00  0.00    +0.000 A 
ATOM     11  O   UNL     1       7.655   6.612  15.974  0.00  0.00    +0.000 OA
ATOM     12  N   UNL     1       5.997   5.026  16.131  0.00  0.00    +0.000 N 
ATOM     13  C   UNL     1       5.780   4.984  14.696  0.00  0.00    +0.000 C 
ENDROOT
BRANCH   1  14
ATOM     14  C   UNL     1       4.272   2.967  20.181  0.00  0.00    +0.000 C 
BRANCH  14  15
ATOM     15  C   UNL     1       2.868   2.363  20.349  0.00  0.00    +0.000 C 
BRANCH  15  16
ATOM     16  N   UNL     1       1.823   3.279  20.854  0.00  0.00    +0.000 NA
BRANCH  16  18
ATOM     17  C   UNL     1       1.735   5.793  20.529  0.00  0.00    +0.000 C 
ATOM     18  C   UNL     1       2.439   4.589  21.147  0.00  0.00    +0.000 C 
ENDBRANCH  16  18
BRANCH  16  19
ATOM     19  C   UNL     1       0.625   3.359  20.007  0.00  0.00    +0.000 C 
ATOM     20  C   UNL     1       0.594   2.427  18.799  0.00  0.00    +0.000 C 
ENDBRANCH  16  19
ENDBRANCH  15  16
ENDBRANCH  14  15
ENDBRANCH   1  14
TORSDOF 5
ENDMDL
MODEL 3
REMARK VINA RESULT:      -6.1      1.870      2.976
REMARK  Name = 
REMARK  9 active torsions:
REMARK  status: ('A' for Active; 'I' for Inactive)
REMARK    1  A    between atoms: C_1  and  C_2
REMARK    2  A    between atoms: C_2  and  N_3
REMARK    3  A    between atoms: N_3  and  C_4
REMARK    4  A    between atoms: N_3  and  C_6
REMARK    5  A    between atoms: C_4  and  C_5
REMARK    6  A    between atoms: C_6  and  C_7
REMARK    7  A    between atoms: C_7  and  N_8
REMARK    8  A    between atoms: N_15  and  C_16
REMARK    9  A    between atoms: N_19  and  C_20
REMARK                            x       y       z     vdW  Elec       q    Type
REMARK                         _______ _______ _______ _____ _____    ______ ____
ROOT
ATOM      1  N   UNL     1       4.957   4.856  16.584  0.00  0.00    +0.000 N 
ATOM      2  C   UNL     1       5.058   6.219  16.447  0.00  0.00    +0.000 A 
ATOM      3  N   UNL     1       4.271   6.855  17.291  0.00  0.00    +0.000 NA
ATOM      4  C   UNL     1       3.658   5.863  17.994  0.00  0.00    +0.000 A 
ATOM      5  C   UNL     1       4.051   4.624  17.583  0.00  0.00    +0.000 A 
ATOM      6  C   UNL     1       3.543   3.424  18.148  0.00  0.00    +0.000 A 
ATOM      7  O   UNL     1       3.841   2.311  17.725  0.00  0.00    +0.000 OA
ATOM      8  N   UNL     1       2.665   3.653  19.210  0.00  0.00    +0.000 N 
ATOM      9  C   UNL     1       2.121   2.501  19.902  0.00  0.00    +0.000 C 
ATOM     10  C   UNL     1       2.220   4.915  19.650  0.00  0.00    +0.000 A 
ATOM     11  O   UNL     1       1.401   5.014  20.569  0.00  0.00    +0.000 OA
ATOM     12  N   UNL     1       2.740   6.036  19.002  0.00  0.00    +0.000 N 
ATOM     13  C   UNL     1       2.323   7.371  19.388  0.00  0.00    +0.000 C 
ENDROOT
BRANCH   1  14
ATOM     14  C   UNL     1       5.686   3.877  15.796  0.00  0.00    +0.000 C 
BRANCH  14  15
ATOM     15  C   UNL     1       6.385   4.539  14.598  0.00  0.00    +0.000 C 
BRANCH  15  16
ATOM     16  N   UNL     1       6.345   3.788  13.325  0.00  0.00    +0.000 NA
BRANCH  16  18
ATOM     17  C   UNL     1       4.733   3.094  11.495  0.00  0.00    +0.000 C 
ATOM     18  C   UNL     1       4.938   3.637  12.905  0.00  0.00    +0.000 C 
ENDBRANCH  16  18
BRANCH  16  19
ATOM     19  C   UNL     1       7.227   4.322  12.278  0.00  0.00    +0.000 C 
ATOM     20  C   UNL     1       8.087   5.519  12.671  0.00  0.00    +0.000 C 
ENDBRANCH  16  19
ENDBRANCH  15  16
ENDBRANCH  14  15
ENDBRANCH   1  14
TORSDOF 5
ENDMDL
MODEL 4
REMARK VINA RESULT:      -6.0      1.095      1.801
REMARK  Name = 
REMARK  9 active torsions:
REMARK  status: ('A' for Active; 'I' for Inactive)
REMARK    1  A    between atoms: C_1  and  C_2
REMARK    2  A    between atoms: C_2  and  N_3
REMARK    3  A    between atoms: N_3  and  C_4
REMARK    4  A    between atoms: N_3  and  C_6
REMARK    5  A    between atoms: C_4  and  C_5
REMARK    6  A    between atoms: C_6  and  C_7
REMARK    7  A    between atoms: C_7  and  N_8
REMARK    8  A    between atoms: N_15  and  C_16
REMARK    9  A    between atoms: N_19  and  C_20
REMARK                            x       y       z     vdW  Elec       q    Type
REMARK                         _______ _______ _______ _____ _____    ______ ____
ROOT
ATOM      1  N   UNL     1       4.168   6.328  17.169  0.00  0.00    +0.000 N 
ATOM      2  C   UNL     1       3.563   7.379  17.814  0.00  0.00    +0.000 A 
ATOM      3  N   UNL     1       2.770   6.966  18.783  0.00  0.00    +0.000 NA
ATOM      4  C   UNL     1       2.885   5.610  18.760  0.00  0.00    +0.000 A 
ATOM      5  C   UNL     1       3.730   5.183  17.778  0.00  0.00    +0.000 A 
ATOM      6  C   UNL     1       4.004   3.811  17.536  0.00  0.00    +0.000 A 
ATOM      7  O   UNL     1       4.704   3.427  16.604  0.00  0.00    +0.000 OA
ATOM      8  N   UNL     1       3.379   2.962  18.453  0.00  0.00    +0.000 N 
ATOM      9  C   UNL     1       3.626   1.538  18.339  0.00  0.00    +0.000 C 
ATOM     10  C   UNL     1       2.485   3.363  19.466  0.00  0.00    +0.000 A 
ATOM     11  O   UNL     1       1.942   2.530  20.198  0.00  0.00    +0.000 OA
ATOM     12  N   UNL     1       2.242   4.730  19.596  0.00  0.00    +0.000 N 
ATOM     13  C   UNL     1       1.324   5.224  20.607  0.00  0.00    +0.000 C 
ENDROOT
BRANCH   1  14
ATOM     14  C   UNL     1       5.090   6.447  16.053  0.00  0.00    +0.000 C 
BRANCH  14  15
ATOM     15  C   UNL     1       6.539   6.205  16.504  0.00  0.00    +0.000 C 
BRANCH  15  16
ATOM     16  N   UNL     1       7.010   7.020  17.645  0.00  0.00    +0.000 NA
BRANCH  16  18
ATOM     17  C   UNL     1       7.902   4.713  18.208  0.00  0.00    +0.000 C 
ATOM     18  C   UNL     1       7.546   6.117  18.685  0.00  0.00    +0.000 C 
ENDBRANCH  16  18
BRANCH  16  19
ATOM     19  C   UNL     1       7.920   8.112  17.276  0.00  0.00    +0.000 C 
ATOM     20  C   UNL     1       8.371   9.024  18.414  0.00  0.00    +0.000 C 
ENDBRANCH  16  19
ENDBRANCH  15  16
ENDBRANCH  14  15
ENDBRANCH   1  14
TORSDOF 5
ENDMDL
MODEL 5
REMARK VINA RESULT:      -6.0      2.151      5.524
REMARK  Name = 
REMARK  9 active torsions:
REMARK  status: ('A' for Active; 'I' for Inactive)
REMARK    1  A    between atoms: C_1  and  C_2
REMARK    2  A    between atoms: C_2  and  N_3
REMARK    3  A    between atoms: N_3  and  C_4
REMARK    4  A    between atoms: N_3  and  C_6
REMARK    5  A    between atoms: C_4  and  C_5
REMARK    6  A    between atoms: C_6  and  C_7
REMARK    7  A    between atoms: C_7  and  N_8
REMARK    8  A    between atoms: N_15  and  C_16
REMARK    9  A    between atoms: N_19  and  C_20
REMARK                            x       y       z     vdW  Elec       q    Type
REMARK                         _______ _______ _______ _____ _____    ______ ____
ROOT
ATOM      1  N   UNL     1       4.298   3.052  18.364  0.00  0.00    +0.000 N 
ATOM      2  C   UNL     1       4.661   3.221  19.677  0.00  0.00    +0.000 A 
ATOM      3  N   UNL     1       5.646   4.088  19.804  0.00  0.00    +0.000 NA
ATOM      4  C   UNL     1       5.908   4.490  18.530  0.00  0.00    +0.000 A 
ATOM      5  C   UNL     1       5.104   3.871  17.620  0.00  0.00    +0.000 A 
ATOM      6  C   UNL     1       5.192   4.105  16.223  0.00  0.00    +0.000 A 
ATOM      7  O   UNL     1       4.520   3.491  15.400  0.00  0.00    +0.000 OA
ATOM      8  N   UNL     1       6.131   5.087  15.895  0.00  0.00    +0.000 N 
ATOM      9  C   UNL     1       6.275   5.451  14.499  0.00  0.00    +0.000 C 
ATOM     10  C   UNL     1       6.994   5.734  16.803  0.00  0.00    +0.000 A 
ATOM     11  O   UNL     1       7.828   6.554  16.410  0.00  0.00    +0.000 OA
ATOM     12  N   UNL     1       6.863   5.402  18.151  0.00  0.00    +0.000 N 
ATOM     13  C   UNL     1       7.723   6.014  19.148  0.00  0.00    +0.000 C 
ENDROOT
BRANCH   1  14
ATOM     14  C   UNL     1       3.252   2.161  17.890  0.00  0.00    +0.000 C 
BRANCH  14  15
ATOM     15  C   UNL     1       2.064   2.135  18.864  0.00  0.00    +0.000 C 
BRANCH  15  16
ATOM     16  N   UNL     1       1.127   3.277  18.778  0.00  0.00    +0.000 NA
BRANCH  16  18
ATOM     17  C   UNL     1       1.342   2.966  21.286  0.00  0.00    +0.000 C 
ATOM     18  C   UNL     1       0.993   3.883  20.118  0.00  0.00    +0.000 C 
ENDBRANCH  16  18
BRANCH  16  19
ATOM     19  C   UNL     1       1.442   4.241  17.715  0.00  0.00    +0.000 C 
ATOM     20  C   UNL     1       1.968   5.597  18.174  0.00  0.00    +0.000 C 
ENDBRANCH  16  19
ENDBRANCH  15  16
ENDBRANCH  14  15
ENDBRANCH   1  14
TORSDOF 5
ENDMDL
MODEL 6
REMARK VINA RESULT:      -5.9      3.097      4.972
REMARK  Name = 
REMARK  9 active torsions:
REMARK  status: ('A' for Active; 'I' for Inactive)
REMARK    1  A    between atoms: C_1  and  C_2
REMARK    2  A    between atoms: C_2  and  N_3
REMARK    3  A    between atoms: N_3  and  C_4
REMARK    4  A    between atoms: N_3  and  C_6
REMARK    5  A    between atoms: C_4  and  C_5
REMARK    6  A    between atoms: C_6  and  C_7
REMARK    7  A    between atoms: C_7  and  N_8
REMARK    8  A    between atoms: N_15  and  C_16
REMARK    9  A    between atoms: N_19  and  C_20
REMARK                            x       y       z     vdW  Elec       q    Type
REMARK                         _______ _______ _______ _____ _____    ______ ____
ROOT
ATOM      1  N   UNL     1       5.976   4.504  14.783  0.00  0.00    +0.000 N 
ATOM      2  C   UNL     1       7.061   5.301  14.513  0.00  0.00    +0.000 A 
ATOM      3  N   UNL     1       7.560   5.836  15.610  0.00  0.00    +0.000 NA
ATOM      4  C   UNL     1       6.771   5.354  16.609  0.00  0.00    +0.000 A 
ATOM      5  C   UNL     1       5.786   4.538  16.139  0.00  0.00    +0.000 A 
ATOM      6  C   UNL     1       4.821   3.924  16.980  0.00  0.00    +0.000 A 
ATOM      7  O   UNL     1       3.890   3.252  16.547  0.00  0.00    +0.000 OA
ATOM      8  N   UNL     1       5.039   4.184  18.336  0.00  0.00    +0.000 N 
ATOM      9  C   UNL     1       4.148   3.566  19.298  0.00  0.00    +0.000 C 
ATOM     10  C   UNL     1       6.032   5.036  18.859  0.00  0.00    +0.000 A 
ATOM     11  O   UNL     1       6.114   5.243  20.073  0.00  0.00    +0.000 OA
ATOM     12  N   UNL     1       6.905   5.632  17.948  0.00  0.00    +0.000 N 
ATOM     13  C   UNL     1       7.947   6.533  18.406  0.00  0.00    +0.000 C 
ENDROOT
BRANCH   1  14
ATOM     14  C   UNL     1       5.198   3.780  13.792  0.00  0.00    +0.000 C 
BRANCH  14  15
ATOM     15  C   UNL     1       6.009   3.561  12.505  0.00  0.00    +0.000 C 
BRANCH  15  16
ATOM     16  N   UNL     1       5.278   2.956  11.370  0.00  0.00    +0.000 NA
BRANCH  16  18
ATOM     17  C   UNL     1       7.106   1.240  10.988  0.00  0.00    +0.000 C 
ATOM     18  C   UNL     1       5.637   1.526  11.282  0.00  0.00    +0.000 C 
ENDBRANCH  16  18
BRANCH  16  19
ATOM     19  C   UNL     1       3.831   3.209  11.377  0.00  0.00    +0.000 C 
ATOM     20  C   UNL     1       3.263   3.891  10.136  0.00  0.00    +0.000 C 
ENDBRANCH  16  19
ENDBRANCH  15  16
ENDBRANCH  14  15
ENDBRANCH   1  14
TORSDOF 5
ENDMDL
MODEL 7
REMARK VINA RESULT:      -5.9      2.107      5.761
REMARK  Name = 
REMARK  9 active torsions:
REMARK  status: ('A' for Active; 'I' for Inactive)
REMARK    1  A    between atoms: C_1  and  C_2
REMARK    2  A    between atoms: C_2  and  N_3
REMARK    3  A    between atoms: N_3  and  C_4
REMARK    4  A    between atoms: N_3  and  C_6
REMARK    5  A    between atoms: C_4  and  C_5
REMARK    6  A    between atoms: C_6  and  C_7
REMARK    7  A    between atoms: C_7  and  N_8
REMARK    8  A    between atoms: N_15  and  C_16
REMARK    9  A    between atoms: N_19  and  C_20
REMARK                            x       y       z     vdW  Elec       q    Type
REMARK                         _______ _______ _______ _____ _____    ______ ____
ROOT
ATOM      1  N   UNL     1       4.352   3.182  18.698  0.00  0.00    +0.000 N 
ATOM      2  C   UNL     1       3.699   2.729  17.578  0.00  0.00    +0.000 A 
ATOM      3  N   UNL     1       4.140   3.318  16.484  0.00  0.00    +0.000 NA
ATOM      4  C   UNL     1       5.111   4.164  16.924  0.00  0.00    +0.000 A 
ATOM      5  C   UNL     1       5.265   4.111  18.277  0.00  0.00    +0.000 A 
ATOM      6  C   UNL     1       6.202   4.911  18.982  0.00  0.00    +0.000 A 
ATOM      7  O   UNL     1       6.286   4.917  20.206  0.00  0.00    +0.000 OA
ATOM      8  N   UNL     1       6.994   5.692  18.136  0.00  0.00    +0.000 N 
ATOM      9  C   UNL     1       8.025   6.515  18.737  0.00  0.00    +0.000 C 
ATOM     10  C   UNL     1       6.852   5.790  16.737  0.00  0.00    +0.000 A 
ATOM     11  O   UNL     1       7.569   6.549  16.078  0.00  0.00    +0.000 OA
ATOM     12  N   UNL     1       5.871   4.999  16.140  0.00  0.00    +0.000 N 
ATOM     13  C   UNL     1       5.653   5.050  14.705  0.00  0.00    +0.000 C 
ENDROOT
BRANCH   1  14
ATOM     14  C   UNL     1       4.093   2.738  20.057  0.00  0.00    +0.000 C 
BRANCH  14  15
ATOM     15  C   UNL     1       3.006   3.597  20.722  0.00  0.00    +0.000 C 
BRANCH  15  16
ATOM     16  N   UNL     1       2.199   4.442  19.815  0.00  0.00    +0.000 NA
BRANCH  16  18
ATOM     17  C   UNL     1       0.570   2.572  19.288  0.00  0.00    +0.000 C 
ATOM     18  C   UNL     1       0.800   3.972  19.847  0.00  0.00    +0.000 C 
ENDBRANCH  16  18
BRANCH  16  19
ATOM     19  C   UNL     1       2.349   5.887  20.038  0.00  0.00    +0.000 C 
ATOM     20  C   UNL     1       2.625   6.732  18.798  0.00  0.00    +0.000 C 
ENDBRANCH  16  19
ENDBRANCH  15  16
ENDBRANCH  14  15
ENDBRANCH   1  14
TORSDOF 5
ENDMDL
MODEL 8
REMARK VINA RESULT:      -5.8      1.593      3.421
REMARK  Name = 
REMARK  9 active torsions:
REMARK  status: ('A' for Active; 'I' for Inactive)
REMARK    1  A    between atoms: C_1  and  C_2
REMARK    2  A    between atoms: C_2  and  N_3
REMARK    3  A    between atoms: N_3  and  C_4
REMARK    4  A    between atoms: N_3  and  C_6
REMARK    5  A    between atoms: C_4  and  C_5
REMARK    6  A    between atoms: C_6  and  C_7
REMARK    7  A    between atoms: C_7  and  N_8
REMARK    8  A    between atoms: N_15  and  C_16
REMARK    9  A    between atoms: N_19  and  C_20
REMARK                            x       y       z     vdW  Elec       q    Type
REMARK                         _______ _______ _______ _____ _____    ______ ____
ROOT
ATOM      1  N   UNL     1       4.208   3.535  17.616  0.00  0.00    +0.000 N 
ATOM      2  C   UNL     1       4.004   2.294  18.166  0.00  0.00    +0.000 A 
ATOM      3  N   UNL     1       3.227   2.352  19.229  0.00  0.00    +0.000 NA
ATOM      4  C   UNL     1       2.920   3.673  19.351  0.00  0.00    +0.000 A 
ATOM      5  C   UNL     1       3.509   4.429  18.382  0.00  0.00    +0.000 A 
ATOM      6  C   UNL     1       3.359   5.838  18.301  0.00  0.00    +0.000 A 
ATOM      7  O   UNL     1       3.952   6.525  17.474  0.00  0.00    +0.000 OA
ATOM      8  N   UNL     1       2.489   6.348  19.268  0.00  0.00    +0.000 N 
ATOM      9  C   UNL     1       2.215   7.772  19.254  0.00  0.00    +0.000 C 
ATOM     10  C   UNL     1       1.878   5.604  20.298  0.00  0.00    +0.000 A 
ATOM     11  O   UNL     1       1.162   6.154  21.139  0.00  0.00    +0.000 OA
ATOM     12  N   UNL     1       2.123   4.230  20.322  0.00  0.00    +0.000 N 
ATOM     13  C   UNL     1       1.542   3.395  21.357  0.00  0.00    +0.000 C 
ENDROOT
BRANCH   1  14
ATOM     14  C   UNL     1       5.022   3.811  16.444  0.00  0.00    +0.000 C 
BRANCH  14  15
ATOM     15  C   UNL     1       6.486   4.068  16.834  0.00  0.00    +0.000 C 
BRANCH  15  16
ATOM     16  N   UNL     1       7.146   5.212  16.169  0.00  0.00    +0.000 NA
BRANCH  16  18
ATOM     17  C   UNL     1       7.164   4.774  13.671  0.00  0.00    +0.000 C 
ATOM     18  C   UNL     1       6.493   5.445  14.865  0.00  0.00    +0.000 C 
ENDBRANCH  16  18
BRANCH  16  19
ATOM     19  C   UNL     1       7.260   6.416  17.003  0.00  0.00    +0.000 C 
ATOM     20  C   UNL     1       7.622   6.186  18.467  0.00  0.00    +0.000 C 
ENDBRANCH  16  19
ENDBRANCH  15  16
ENDBRANCH  14  15
ENDBRANCH   1  14
TORSDOF 5
ENDMDL
MODEL 9
REMARK VINA RESULT:      -5.8      1.835      2.944
REMARK  Name = 
REMARK  9 active torsions:
REMARK  status: ('A' for Active; 'I' for Inactive)
REMARK    1  A    between atoms: C_1  and  C_2
REMARK    2  A    between atoms: C_2  and  N_3
REMARK    3  A    between atoms: N_3  and  C_4
REMARK    4  A    between atoms: N_3  and  C_6
REMARK    5  A    between atoms: C_4  and  C_5
REMARK    6  A    between atoms: C_6  and  C_7
REMARK    7  A    between atoms: C_7  and  N_8
REMARK    8  A    between atoms: N_15  and  C_16
REMARK    9  A    between atoms: N_19  and  C_20
REMARK                            x       y       z     vdW  Elec       q    Type
REMARK                         _______ _______ _______ _____ _____    ______ ____
ROOT
ATOM      1  N   UNL     1       5.051   4.755  16.222  0.00  0.00    +0.000 N 
ATOM      2  C   UNL     1       5.175   6.110  16.032  0.00  0.00    +0.000 A 
ATOM      3  N   UNL     1       4.416   6.791  16.867  0.00  0.00    +0.000 NA
ATOM      4  C   UNL     1       3.799   5.838  17.617  0.00  0.00    +0.000 A 
ATOM      5  C   UNL     1       4.161   4.578  17.246  0.00  0.00    +0.000 A 
ATOM      6  C   UNL     1       3.642   3.409  17.864  0.00  0.00    +0.000 A 
ATOM      7  O   UNL     1       3.911   2.276  17.477  0.00  0.00    +0.000 OA
ATOM      8  N   UNL     1       2.789   3.694  18.933  0.00  0.00    +0.000 N 
ATOM      9  C   UNL     1       2.236   2.579  19.677  0.00  0.00    +0.000 C 
ATOM     10  C   UNL     1       2.375   4.980  19.334  0.00  0.00    +0.000 A 
ATOM     11  O   UNL     1       1.576   5.128  20.263  0.00  0.00    +0.000 OA
ATOM     12  N   UNL     1       2.904   6.066  18.635  0.00  0.00    +0.000 N 
ATOM     13  C   UNL     1       2.519   7.423  18.978  0.00  0.00    +0.000 C 
ENDROOT
BRANCH   1  14
ATOM     14  C   UNL     1       5.747   3.734  15.458  0.00  0.00    +0.000 C 
BRANCH  14  15
ATOM     15  C   UNL     1       6.733   4.364  14.460  0.00  0.00    +0.000 C 
BRANCH  15  16
ATOM     16  N   UNL     1       6.320   4.348  13.040  0.00  0.00    +0.000 NA
BRANCH  16  18
ATOM     17  C   UNL     1       8.413   5.765  12.831  0.00  0.00    +0.000 C 
ATOM     18  C   UNL     1       7.474   4.739  12.206  0.00  0.00    +0.000 C 
ENDBRANCH  16  18
BRANCH  16  19
ATOM     19  C   UNL     1       5.666   3.104  12.612  0.00  0.00    +0.000 C 
ATOM     20  C   UNL     1       4.541   3.254  11.592  0.00  0.00    +0.000 C 
ENDBRANCH  16  19
ENDBRANCH  15  16
ENDBRANCH  14  15
ENDBRANCH   1  14
TORSDOF 5
ENDMDL
