MODEL 1
REMARK VINA RESULT:      -6.5      0.000      0.000
REMARK  Name = 
REMARK  6 active torsions:
REMARK  status: ('A' for Active; 'I' for Inactive)
REMARK    1  A    between atoms: C_1  and  C_2
REMARK    2  A    between atoms: C_5  and  O_6
REMARK    3  A    between atoms: C_15  and  C_16
REMARK    4  A    between atoms: C_17  and  C_18
REMARK    5  A    between atoms: N_19  and  N_20
REMARK    6  A    between atoms: C_26  and  O_27
REMARK                            x       y       z     vdW  Elec       q    Type
REMARK                         _______ _______ _______ _____ _____    ______ ____
ROOT
ATOM      1  C   UNL     1       0.824   3.818  17.929  0.00  0.00    +0.000 C 
ATOM      2  C   UNL     1       1.857   3.592  19.065  0.00  0.00    +0.000 C 
ATOM      3  C   UNL     1       1.601   2.151  19.595  0.00  0.00    +0.000 C 
ATOM      4  C   UNL     1       2.406   1.811  20.847  0.00  0.00    +0.000 C 
ATOM      5  C   UNL     1       2.120   2.798  21.973  0.00  0.00    +0.000 C 
ATOM      6  C   UNL     1       2.327   4.243  21.526  0.00  0.00    +0.000 C 
ATOM      7  C   UNL     1       1.576   4.601  20.221  0.00  0.00    +0.000 C 
ATOM      8  C   UNL     1       1.894   6.046  19.814  0.00  0.00    +0.000 C 
ATOM      9  C   UNL     1       3.314   6.224  19.288  0.00  0.00    +0.000 C 
ATOM     10  C   UNL     1       3.644   5.254  18.139  0.00  0.00    +0.000 C 
ATOM     11  C   UNL     1       3.337   3.784  18.552  0.00  0.00    +0.000 C 
ATOM     12  C   UNL     1       3.709   2.806  17.428  0.00  0.00    +0.000 C 
ATOM     13  C   UNL     1       5.159   2.981  17.004  0.00  0.00    +0.000 C 
ATOM     14  C   UNL     1       5.484   4.416  16.522  0.00  0.00    +0.000 C 
ATOM     15  C   UNL     1       4.760   4.662  15.183  0.00  0.00    +0.000 C 
ATOM     16  C   UNL     1       7.032   4.550  16.424  0.00  0.00    +0.000 C 
ATOM     17  C   UNL     1       7.485   5.051  17.809  0.00  0.00    +0.000 C 
ATOM     18  C   UNL     1       6.229   5.430  18.611  0.00  0.00    +0.000 C 
ATOM     19  C   UNL     1       5.086   5.469  17.591  0.00  0.00    +0.000 C 
ENDROOT
BRANCH   5  20
ATOM     20  O   UNL     1       0.793   2.620  22.462  0.00  0.00    +0.000 OA
ATOM     21  H   UNL     1       0.776   2.828  23.411  0.00  0.00    +0.000 HD
ENDBRANCH   5  20
BRANCH  16  22
ATOM     22  C   UNL     1       7.516   5.441  15.286  0.00  0.00    +0.000 C 
ATOM     23  N   UNL     1       8.088   4.910  14.248  0.00  0.00    +0.000 NA
BRANCH  23  24
ATOM     24  N   UNL     1       8.376   5.878  13.267  0.00  0.00    +0.000 NA
ATOM     25  C   UNL     1       7.866   5.592  12.092  0.00  0.00    +0.000 C 
ATOM     26  N   UNL     1       7.153   4.489  11.811  0.00  0.00    +0.000 N 
ATOM     27  N   UNL     1       7.996   6.431  11.051  0.00  0.00    +0.000 N 
ATOM     28  H   UNL     1       7.029   3.851  12.587  0.00  0.00    +0.000 HD
ATOM     29  H   UNL     1       6.880   4.220  10.890  0.00  0.00    +0.000 HD
ATOM     30  H   UNL     1       8.615   7.220  11.187  0.00  0.00    +0.000 HD
ATOM     31  H   UNL     1       7.827   6.126  10.112  0.00  0.00    +0.000 HD
ENDBRANCH  23  24
ENDBRANCH  16  22
BRANCH  19  32
ATOM     32  O   UNL     1       5.146   6.779  17.000  0.00  0.00    +0.000 OA
ATOM     33  H   UNL     1       4.244   7.044  16.752  0.00  0.00    +0.000 HD
ENDBRANCH  19  32
TORSDOF 4
ENDMDL
MODEL 2
REMARK VINA RESULT:      -6.4     10.174     12.864
REMARK  Name = 
REMARK  6 active torsions:
REMARK  status: ('A' for Active; 'I' for Inactive)
REMARK    1  A    between atoms: C_1  and  C_2
REMARK    2  A    between atoms: C_5  and  O_6
REMARK    3  A    between atoms: C_15  and  C_16
REMARK    4  A    between atoms: C_17  and  C_18
REMARK    5  A    between atoms: N_19  and  N_20
REMARK    6  A    between atoms: C_26  and  O_27
REMARK                            x       y       z     vdW  Elec       q    Type
REMARK                         _______ _______ _______ _____ _____    ______ ____
ROOT
ATOM      1  C   UNL     1       7.757  12.842  17.440  0.00  0.00    +0.000 C 
ATOM      2  C   UNL     1       9.099  13.131  18.164  0.00  0.00    +0.000 C 
ATOM      3  C   UNL     1       9.828  14.200  17.298  0.00  0.00    +0.000 C 
ATOM      4  C   UNL     1      11.258  14.481  17.755  0.00  0.00    +0.000 C 
ATOM      5  C   UNL     1      12.097  13.208  17.759  0.00  0.00    +0.000 C 
ATOM      6  C   UNL     1      11.437  12.096  18.571  0.00  0.00    +0.000 C 
ATOM      7  C   UNL     1       9.963  11.833  18.176  0.00  0.00    +0.000 C 
ATOM      8  C   UNL     1       9.364  10.750  19.085  0.00  0.00    +0.000 C 
ATOM      9  C   UNL     1       9.110  11.234  20.509  0.00  0.00    +0.000 C 
ATOM     10  C   UNL     1       8.255  12.513  20.555  0.00  0.00    +0.000 C 
ATOM     11  C   UNL     1       8.867  13.619  19.646  0.00  0.00    +0.000 C 
ATOM     12  C   UNL     1       8.046  14.915  19.724  0.00  0.00    +0.000 C 
ATOM     13  C   UNL     1       7.898  15.386  21.163  0.00  0.00    +0.000 C 
ATOM     14  C   UNL     1       7.229  14.335  22.082  0.00  0.00    +0.000 C 
ATOM     15  C   UNL     1       5.750  14.190  21.671  0.00  0.00    +0.000 C 
ATOM     16  C   UNL     1       7.422  14.796  23.557  0.00  0.00    +0.000 C 
ATOM     17  C   UNL     1       8.750  14.161  24.011  0.00  0.00    +0.000 C 
ATOM     18  C   UNL     1       9.196  13.167  22.927  0.00  0.00    +0.000 C 
ATOM     19  C   UNL     1       7.979  12.976  22.016  0.00  0.00    +0.000 C 
ENDROOT
BRANCH   5  20
ATOM     20  O   UNL     1      12.333  12.767  16.424  0.00  0.00    +0.000 OA
ATOM     21  H   UNL     1      11.616  12.168  16.158  0.00  0.00    +0.000 HD
ENDBRANCH   5  20
BRANCH  16  22
ATOM     22  C   UNL     1       6.257  14.456  24.479  0.00  0.00    +0.000 C 
ATOM     23  N   UNL     1       6.212  13.297  25.064  0.00  0.00    +0.000 NA
BRANCH  23  24
ATOM     24  N   UNL     1       5.118  13.206  25.945  0.00  0.00    +0.000 NA
ATOM     25  C   UNL     1       5.321  12.374  26.939  0.00  0.00    +0.000 C 
ATOM     26  N   UNL     1       6.438  11.650  27.119  0.00  0.00    +0.000 N 
ATOM     27  N   UNL     1       4.405  12.204  27.906  0.00  0.00    +0.000 N 
ATOM     28  H   UNL     1       7.150  11.778  26.410  0.00  0.00    +0.000 HD
ATOM     29  H   UNL     1       6.533  10.930  27.803  0.00  0.00    +0.000 HD
ATOM     30  H   UNL     1       3.507  12.645  27.754  0.00  0.00    +0.000 HD
ATOM     31  H   UNL     1       4.440  11.415  28.524  0.00  0.00    +0.000 HD
ENDBRANCH  23  24
ENDBRANCH  16  22
BRANCH  19  32
ATOM     32  O   UNL     1       7.176  11.969  22.657  0.00  0.00    +0.000 OA
ATOM     33  H   UNL     1       7.755  11.434  23.227  0.00  0.00    +0.000 HD
ENDBRANCH  19  32
TORSDOF 4
ENDMDL
MODEL 3
REMARK VINA RESULT:      -6.3      9.265     11.799
REMARK  Name = 
REMARK  6 active torsions:
REMARK  status: ('A' for Active; 'I' for Inactive)
REMARK    1  A    between atoms: C_1  and  C_2
REMARK    2  A    between atoms: C_5  and  O_6
REMARK    3  A    between atoms: C_15  and  C_16
REMARK    4  A    between atoms: C_17  and  C_18
REMARK    5  A    between atoms: N_19  and  N_20
REMARK    6  A    between atoms: C_26  and  O_27
REMARK                            x       y       z     vdW  Elec       q    Type
REMARK                         _______ _______ _______ _____ _____    ______ ____
ROOT
ATOM      1  C   UNL     1       9.440  16.940  17.781  0.00  0.00    +0.000 C 
ATOM      2  C   UNL     1      10.102  16.392  19.073  0.00  0.00    +0.000 C 
ATOM      3  C   UNL     1       9.498  17.218  20.246  0.00  0.00    +0.000 C 
ATOM      4  C   UNL     1      10.167  16.945  21.591  0.00  0.00    +0.000 C 
ATOM      5  C   UNL     1      11.666  17.219  21.528  0.00  0.00    +0.000 C 
ATOM      6  C   UNL     1      12.333  16.461  20.384  0.00  0.00    +0.000 C 
ATOM      7  C   UNL     1      11.637  16.664  19.017  0.00  0.00    +0.000 C 
ATOM      8  C   UNL     1      12.333  15.816  17.943  0.00  0.00    +0.000 C 
ATOM      9  C   UNL     1      12.064  14.322  18.089  0.00  0.00    +0.000 C 
ATOM     10  C   UNL     1      10.561  13.995  18.145  0.00  0.00    +0.000 C 
ATOM     11  C   UNL     1       9.852  14.843  19.243  0.00  0.00    +0.000 C 
ATOM     12  C   UNL     1       8.361  14.488  19.337  0.00  0.00    +0.000 C 
ATOM     13  C   UNL     1       8.164  12.997  19.562  0.00  0.00    +0.000 C 
ATOM     14  C   UNL     1       8.798  12.124  18.451  0.00  0.00    +0.000 C 
ATOM     15  C   UNL     1       8.000  12.328  17.147  0.00  0.00    +0.000 C 
ATOM     16  C   UNL     1       8.810  10.648  18.948  0.00  0.00    +0.000 C 
ATOM     17  C   UNL     1      10.156  10.475  19.676  0.00  0.00    +0.000 C 
ATOM     18  C   UNL     1      11.007  11.726  19.405  0.00  0.00    +0.000 C 
ATOM     19  C   UNL     1      10.302  12.464  18.262  0.00  0.00    +0.000 C 
ENDROOT
BRANCH   5  20
ATOM     20  O   UNL     1      11.907  18.619  21.398  0.00  0.00    +0.000 OA
ATOM     21  H   UNL     1      12.564  18.761  20.697  0.00  0.00    +0.000 HD
ENDBRANCH   5  20
BRANCH  16  22
ATOM     22  C   UNL     1       8.592   9.614  17.850  0.00  0.00    +0.000 C 
ATOM     23  N   UNL     1       7.943   8.520  18.112  0.00  0.00    +0.000 NA
BRANCH  23  24
ATOM     24  N   UNL     1       7.762   7.738  16.955  0.00  0.00    +0.000 NA
ATOM     25  C   UNL     1       7.452   6.490  17.216  0.00  0.00    +0.000 C 
ATOM     26  N   UNL     1       7.330   5.971  18.449  0.00  0.00    +0.000 N 
ATOM     27  N   UNL     1       7.190   5.615  16.232  0.00  0.00    +0.000 N 
ATOM     28  H   UNL     1       7.506   6.619  19.206  0.00  0.00    +0.000 HD
ATOM     29  H   UNL     1       7.219   4.997  18.636  0.00  0.00    +0.000 HD
ATOM     30  H   UNL     1       7.375   5.933  15.289  0.00  0.00    +0.000 HD
ATOM     31  H   UNL     1       7.189   4.627  16.400  0.00  0.00    +0.000 HD
ENDBRANCH  23  24
ENDBRANCH  16  22
BRANCH  19  32
ATOM     32  O   UNL     1      10.773  11.840  17.055  0.00  0.00    +0.000 OA
ATOM     33  H   UNL     1      11.741  11.932  17.022  0.00  0.00    +0.000 HD
ENDBRANCH  19  32
TORSDOF 4
ENDMDL
MODEL 4
REMARK VINA RESULT:      -6.3      9.695     11.701
REMARK  Name = 
REMARK  6 active torsions:
REMARK  status: ('A' for Active; 'I' for Inactive)
REMARK    1  A    between atoms: C_1  and  C_2
REMARK    2  A    between atoms: C_5  and  O_6
REMARK    3  A    between atoms: C_15  and  C_16
REMARK    4  A    between atoms: C_17  and  C_18
REMARK    5  A    between atoms: N_19  and  N_20
REMARK    6  A    between atoms: C_26  and  O_27
REMARK                            x       y       z     vdW  Elec       q    Type
REMARK                         _______ _______ _______ _____ _____    ______ ____
ROOT
ATOM      1  C   UNL     1      -4.964  15.079  20.569  0.00  0.00    +0.000 C 
ATOM      2  C   UNL     1      -4.314  13.896  21.333  0.00  0.00    +0.000 C 
ATOM      3  C   UNL     1      -5.338  13.483  22.432  0.00  0.00    +0.000 C 
ATOM      4  C   UNL     1      -4.795  12.445  23.411  0.00  0.00    +0.000 C 
ATOM      5  C   UNL     1      -3.525  12.940  24.094  0.00  0.00    +0.000 C 
ATOM      6  C   UNL     1      -2.474  13.388  23.082  0.00  0.00    +0.000 C 
ATOM      7  C   UNL     1      -3.012  14.391  22.033  0.00  0.00    +0.000 C 
ATOM      8  C   UNL     1      -1.909  14.733  21.022  0.00  0.00    +0.000 C 
ATOM      9  C   UNL     1      -1.595  13.587  20.065  0.00  0.00    +0.000 C 
ATOM     10  C   UNL     1      -2.848  13.061  19.342  0.00  0.00    +0.000 C 
ATOM     11  C   UNL     1      -3.965  12.700  20.365  0.00  0.00    +0.000 C 
ATOM     12  C   UNL     1      -5.201  12.129  19.654  0.00  0.00    +0.000 C 
ATOM     13  C   UNL     1      -4.833  10.941  18.779  0.00  0.00    +0.000 C 
ATOM     14  C   UNL     1      -3.772  11.282  17.703  0.00  0.00    +0.000 C 
ATOM     15  C   UNL     1      -4.411  12.223  16.661  0.00  0.00    +0.000 C 
ATOM     16  C   UNL     1      -3.255   9.944  17.098  0.00  0.00    +0.000 C 
ATOM     17  C   UNL     1      -2.052   9.540  17.973  0.00  0.00    +0.000 C 
ATOM     18  C   UNL     1      -1.725  10.720  18.903  0.00  0.00    +0.000 C 
ATOM     19  C   UNL     1      -2.507  11.914  18.346  0.00  0.00    +0.000 C 
ENDROOT
BRANCH   5  20
ATOM     20  O   UNL     1      -3.830  14.006  24.991  0.00  0.00    +0.000 OA
ATOM     21  H   UNL     1      -3.177  14.716  24.870  0.00  0.00    +0.000 HD
ENDBRANCH   5  20
BRANCH  16  22
ATOM     22  C   UNL     1      -2.910  10.016  15.616  0.00  0.00    +0.000 C 
ATOM     23  N   UNL     1      -3.810   9.719  14.728  0.00  0.00    +0.000 NA
BRANCH  23  24
ATOM     24  N   UNL     1      -3.336   9.937  13.420  0.00  0.00    +0.000 NA
ATOM     25  C   UNL     1      -4.257   9.772  12.500  0.00  0.00    +0.000 C 
ATOM     26  N   UNL     1      -5.529   9.412  12.742  0.00  0.00    +0.000 N 
ATOM     27  N   UNL     1      -3.995   9.991  11.202  0.00  0.00    +0.000 N 
ATOM     28  H   UNL     1      -5.752   9.258  13.718  0.00  0.00    +0.000 HD
ATOM     29  H   UNL     1      -6.185   9.166  12.032  0.00  0.00    +0.000 HD
ATOM     30  H   UNL     1      -3.026  10.157  10.963  0.00  0.00    +0.000 HD
ATOM     31  H   UNL     1      -4.601   9.645  10.482  0.00  0.00    +0.000 HD
ENDBRANCH  23  24
ENDBRANCH  16  22
BRANCH  19  32
ATOM     32  O   UNL     1      -1.679  12.461  17.304  0.00  0.00    +0.000 OA
ATOM     33  H   UNL     1      -0.856  12.785  17.708  0.00  0.00    +0.000 HD
ENDBRANCH  19  32
TORSDOF 4
ENDMDL
MODEL 5
REMARK VINA RESULT:      -6.1      8.189     10.399
REMARK  Name = 
REMARK  6 active torsions:
REMARK  status: ('A' for Active; 'I' for Inactive)
REMARK    1  A    between atoms: C_1  and  C_2
REMARK    2  A    between atoms: C_5  and  O_6
REMARK    3  A    between atoms: C_15  and  C_16
REMARK    4  A    between atoms: C_17  and  C_18
REMARK    5  A    between atoms: N_19  and  N_20
REMARK    6  A    between atoms: C_26  and  O_27
REMARK                            x       y       z     vdW  Elec       q    Type
REMARK                         _______ _______ _______ _____ _____    ______ ____
ROOT
ATOM      1  C   UNL     1      -2.729  15.464  20.874  0.00  0.00    +0.000 C 
ATOM      2  C   UNL     1      -3.248  14.257  21.700  0.00  0.00    +0.000 C 
ATOM      3  C   UNL     1      -4.787  14.211  21.468  0.00  0.00    +0.000 C 
ATOM      4  C   UNL     1      -5.505  13.193  22.350  0.00  0.00    +0.000 C 
ATOM      5  C   UNL     1      -5.247  13.463  23.829  0.00  0.00    +0.000 C 
ATOM      6  C   UNL     1      -3.754  13.547  24.137  0.00  0.00    +0.000 C 
ATOM      7  C   UNL     1      -2.985  14.523  23.214  0.00  0.00    +0.000 C 
ATOM      8  C   UNL     1      -1.488  14.492  23.552  0.00  0.00    +0.000 C 
ATOM      9  C   UNL     1      -0.797  13.206  23.111  0.00  0.00    +0.000 C 
ATOM     10  C   UNL     1      -1.021  12.898  21.619  0.00  0.00    +0.000 C 
ATOM     11  C   UNL     1      -2.540  12.913  21.274  0.00  0.00    +0.000 C 
ATOM     12  C   UNL     1      -2.773  12.559  19.797  0.00  0.00    +0.000 C 
ATOM     13  C   UNL     1      -2.128  11.229  19.442  0.00  0.00    +0.000 C 
ATOM     14  C   UNL     1      -0.603  11.200  19.709  0.00  0.00    +0.000 C 
ATOM     15  C   UNL     1       0.092  12.138  18.700  0.00  0.00    +0.000 C 
ATOM     16  C   UNL     1      -0.126   9.722  19.613  0.00  0.00    +0.000 C 
ATOM     17  C   UNL     1      -0.257   9.158  21.040  0.00  0.00    +0.000 C 
ATOM     18  C   UNL     1      -0.566  10.330  21.987  0.00  0.00    +0.000 C 
ATOM     19  C   UNL     1      -0.284  11.599  21.176  0.00  0.00    +0.000 C 
ENDROOT
BRANCH   5  20
ATOM     20  O   UNL     1      -5.901  14.664  24.233  0.00  0.00    +0.000 OA
ATOM     21  H   UNL     1      -5.848  14.741  25.200  0.00  0.00    +0.000 HD
ENDBRANCH   5  20
BRANCH  16  22
ATOM     22  C   UNL     1       1.273   9.549  19.034  0.00  0.00    +0.000 C 
ATOM     23  N   UNL     1       1.633   8.402  18.544  0.00  0.00    +0.000 NA
BRANCH  23  24
ATOM     24  N   UNL     1       2.918   8.465  17.973  0.00  0.00    +0.000 NA
ATOM     25  C   UNL     1       3.451   7.284  17.763  0.00  0.00    +0.000 C 
ATOM     26  N   UNL     1       2.868   6.113  18.068  0.00  0.00    +0.000 N 
ATOM     27  N   UNL     1       4.651   7.153  17.175  0.00  0.00    +0.000 N 
ATOM     28  H   UNL     1       1.953   6.189  18.497  0.00  0.00    +0.000 HD
ATOM     29  H   UNL     1       3.330   5.230  18.022  0.00  0.00    +0.000 HD
ATOM     30  H   UNL     1       5.173   8.008  17.028  0.00  0.00    +0.000 HD
ATOM     31  H   UNL     1       5.166   6.295  17.226  0.00  0.00    +0.000 HD
ENDBRANCH  23  24
ENDBRANCH  16  22
BRANCH  19  32
ATOM     32  O   UNL     1       1.131  11.827  21.300  0.00  0.00    +0.000 OA
ATOM     33  H   UNL     1       1.580  11.357  20.577  0.00  0.00    +0.000 HD
ENDBRANCH  19  32
TORSDOF 4
ENDMDL
MODEL 6
REMARK VINA RESULT:      -6.1      9.111     10.999
REMARK  Name = 
REMARK  6 active torsions:
REMARK  status: ('A' for Active; 'I' for Inactive)
REMARK    1  A    between atoms: C_1  and  C_2
REMARK    2  A    between atoms: C_5  and  O_6
REMARK    3  A    between atoms: C_15  and  C_16
REMARK    4  A    between atoms: C_17  and  C_18
REMARK    5  A    between atoms: N_19  and  N_20
REMARK    6  A    between atoms: C_26  and  O_27
REMARK                            x       y       z     vdW  Elec       q    Type
REMARK                         _______ _______ _______ _____ _____    ______ ____
ROOT
ATOM      1  C   UNL     1      -1.823  12.185  21.312  0.00  0.00    +0.000 C 
ATOM      2  C   UNL     1      -1.481  11.969  19.814  0.00  0.00    +0.000 C 
ATOM      3  C   UNL     1      -2.833  12.079  19.048  0.00  0.00    +0.000 C 
ATOM      4  C   UNL     1      -2.726  11.711  17.570  0.00  0.00    +0.000 C 
ATOM      5  C   UNL     1      -2.182  10.299  17.389  0.00  0.00    +0.000 C 
ATOM      6  C   UNL     1      -0.863  10.101  18.132  0.00  0.00    +0.000 C 
ATOM      7  C   UNL     1      -0.919  10.527  19.619  0.00  0.00    +0.000 C 
ATOM      8  C   UNL     1       0.463  10.356  20.265  0.00  0.00    +0.000 C 
ATOM      9  C   UNL     1       1.479  11.391  19.794  0.00  0.00    +0.000 C 
ATOM     10  C   UNL     1       0.976  12.835  19.969  0.00  0.00    +0.000 C 
ATOM     11  C   UNL     1      -0.420  13.018  19.302  0.00  0.00    +0.000 C 
ATOM     12  C   UNL     1      -0.906  14.469  19.431  0.00  0.00    +0.000 C 
ATOM     13  C   UNL     1       0.118  15.444  18.871  0.00  0.00    +0.000 C 
ATOM     14  C   UNL     1       1.501  15.337  19.559  0.00  0.00    +0.000 C 
ATOM     15  C   UNL     1       1.372  15.852  21.008  0.00  0.00    +0.000 C 
ATOM     16  C   UNL     1       2.526  16.139  18.704  0.00  0.00    +0.000 C 
ATOM     17  C   UNL     1       3.093  15.125  17.693  0.00  0.00    +0.000 C 
ATOM     18  C   UNL     1       2.601  13.725  18.098  0.00  0.00    +0.000 C 
ATOM     19  C   UNL     1       2.037  13.880  19.514  0.00  0.00    +0.000 C 
ENDROOT
BRANCH   5  20
ATOM     20  O   UNL     1      -3.141   9.339  17.826  0.00  0.00    +0.000 OA
ATOM     21  H   UNL     1      -3.228   8.648  17.149  0.00  0.00    +0.000 HD
ENDBRANCH   5  20
BRANCH  16  22
ATOM     22  C   UNL     1       3.611  16.837  19.515  0.00  0.00    +0.000 C 
ATOM     23  N   UNL     1       4.695  17.245  18.928  0.00  0.00    +0.000 NA
BRANCH  23  24
ATOM     24  N   UNL     1       5.530  17.947  19.817  0.00  0.00    +0.000 NA
ATOM     25  C   UNL     1       6.800  17.647  19.682  0.00  0.00    +0.000 C 
ATOM     26  N   UNL     1       7.289  16.750  18.809  0.00  0.00    +0.000 N 
ATOM     27  N   UNL     1       7.745  18.261  20.412  0.00  0.00    +0.000 N 
ATOM     28  H   UNL     1       6.594  16.287  18.236  0.00  0.00    +0.000 HD
ATOM     29  H   UNL     1       8.236  16.437  18.802  0.00  0.00    +0.000 HD
ATOM     30  H   UNL     1       7.415  18.863  21.156  0.00  0.00    +0.000 HD
ATOM     31  H   UNL     1       8.669  17.882  20.493  0.00  0.00    +0.000 HD
ENDBRANCH  23  24
ENDBRANCH  16  22
BRANCH  19  32
ATOM     32  O   UNL     1       3.172  13.774  20.391  0.00  0.00    +0.000 OA
ATOM     33  H   UNL     1       3.858  14.387  20.078  0.00  0.00    +0.000 HD
ENDBRANCH  19  32
TORSDOF 4
ENDMDL
MODEL 7
REMARK VINA RESULT:      -5.9     11.185     13.904
REMARK  Name = 
REMARK  6 active torsions:
REMARK  status: ('A' for Active; 'I' for Inactive)
REMARK    1  A    between atoms: C_1  and  C_2
REMARK    2  A    between atoms: C_5  and  O_6
REMARK    3  A    between atoms: C_15  and  C_16
REMARK    4  A    between atoms: C_17  and  C_18
REMARK    5  A    between atoms: N_19  and  N_20
REMARK    6  A    between atoms: C_26  and  O_27
REMARK                            x       y       z     vdW  Elec       q    Type
REMARK                         _______ _______ _______ _____ _____    ______ ____
ROOT
ATOM      1  C   UNL     1       8.945  17.565  19.264  0.00  0.00    +0.000 C 
ATOM      2  C   UNL     1       9.794  16.266  19.275  0.00  0.00    +0.000 C 
ATOM      3  C   UNL     1      11.275  16.722  19.128  0.00  0.00    +0.000 C 
ATOM      4  C   UNL     1      12.252  15.565  18.934  0.00  0.00    +0.000 C 
ATOM      5  C   UNL     1      11.881  14.727  17.716  0.00  0.00    +0.000 C 
ATOM      6  C   UNL     1      10.430  14.257  17.771  0.00  0.00    +0.000 C 
ATOM      7  C   UNL     1       9.419  15.399  18.034  0.00  0.00    +0.000 C 
ATOM      8  C   UNL     1       7.998  14.827  18.140  0.00  0.00    +0.000 C 
ATOM      9  C   UNL     1       7.760  14.043  19.426  0.00  0.00    +0.000 C 
ATOM     10  C   UNL     1       8.110  14.856  20.686  0.00  0.00    +0.000 C 
ATOM     11  C   UNL     1       9.556  15.427  20.590  0.00  0.00    +0.000 C 
ATOM     12  C   UNL     1       9.930  16.199  21.864  0.00  0.00    +0.000 C 
ATOM     13  C   UNL     1       9.746  15.337  23.103  0.00  0.00    +0.000 C 
ATOM     14  C   UNL     1       8.300  14.807  23.268  0.00  0.00    +0.000 C 
ATOM     15  C   UNL     1       7.374  15.994  23.601  0.00  0.00    +0.000 C 
ATOM     16  C   UNL     1       8.315  13.704  24.366  0.00  0.00    +0.000 C 
ATOM     17  C   UNL     1       8.577  12.385  23.615  0.00  0.00    +0.000 C 
ATOM     18  C   UNL     1       8.475  12.669  22.107  0.00  0.00    +0.000 C 
ATOM     19  C   UNL     1       7.832  14.055  21.992  0.00  0.00    +0.000 C 
ENDROOT
BRANCH   5  20
ATOM     20  O   UNL     1      12.113  15.465  16.518  0.00  0.00    +0.000 OA
ATOM     21  H   UNL     1      12.065  14.859  15.760  0.00  0.00    +0.000 HD
ENDBRANCH   5  20
BRANCH  16  22
ATOM     22  C   UNL     1       7.058  13.655  25.226  0.00  0.00    +0.000 C 
ATOM     23  N   UNL     1       6.164  12.738  25.014  0.00  0.00    +0.000 NA
BRANCH  23  24
ATOM     24  N   UNL     1       5.128  12.797  25.965  0.00  0.00    +0.000 NA
ATOM     25  C   UNL     1       5.023  11.706  26.687  0.00  0.00    +0.000 C 
ATOM     26  N   UNL     1       5.796  10.616  26.547  0.00  0.00    +0.000 N 
ATOM     27  N   UNL     1       4.124  11.608  27.679  0.00  0.00    +0.000 N 
ATOM     28  H   UNL     1       6.493  10.676  25.815  0.00  0.00    +0.000 HD
ATOM     29  H   UNL     1       5.627   9.749  27.011  0.00  0.00    +0.000 HD
ATOM     30  H   UNL     1       3.451  12.360  27.748  0.00  0.00    +0.000 HD
ATOM     31  H   UNL     1       3.873  10.720  28.069  0.00  0.00    +0.000 HD
ENDBRANCH  23  24
ENDBRANCH  16  22
BRANCH  19  32
ATOM     32  O   UNL     1       6.414  13.827  22.080  0.00  0.00    +0.000 OA
ATOM     33  H   UNL     1       6.148  13.268  21.329  0.00  0.00    +0.000 HD
ENDBRANCH  19  32
TORSDOF 4
ENDMDL
MODEL 8
REMARK VINA RESULT:      -5.9      9.577     12.097
REMARK  Name = 
REMARK  6 active torsions:
REMARK  status: ('A' for Active; 'I' for Inactive)
REMARK    1  A    between atoms: C_1  and  C_2
REMARK    2  A    between atoms: C_5  and  O_6
REMARK    3  A    between atoms: C_15  and  C_16
REMARK    4  A    between atoms: C_17  and  C_18
REMARK    5  A    between atoms: N_19  and  N_20
REMARK    6  A    between atoms: C_26  and  O_27
REMARK                            x       y       z     vdW  Elec       q    Type
REMARK                         _______ _______ _______ _____ _____    ______ ____
ROOT
ATOM      1  C   UNL     1       2.705  17.549  20.051  0.00  0.00    +0.000 C 
ATOM      2  C   UNL     1       3.524  16.256  20.303  0.00  0.00    +0.000 C 
ATOM      3  C   UNL     1       4.320  16.503  21.619  0.00  0.00    +0.000 C 
ATOM      4  C   UNL     1       5.330  15.404  21.934  0.00  0.00    +0.000 C 
ATOM      5  C   UNL     1       6.327  15.224  20.794  0.00  0.00    +0.000 C 
ATOM      6  C   UNL     1       5.623  14.999  19.458  0.00  0.00    +0.000 C 
ATOM      7  C   UNL     1       4.544  16.061  19.139  0.00  0.00    +0.000 C 
ATOM      8  C   UNL     1       3.847  15.718  17.815  0.00  0.00    +0.000 C 
ATOM      9  C   UNL     1       2.921  14.510  17.918  0.00  0.00    +0.000 C 
ATOM     10  C   UNL     1       1.889  14.653  19.051  0.00  0.00    +0.000 C 
ATOM     11  C   UNL     1       2.592  14.987  20.400  0.00  0.00    +0.000 C 
ATOM     12  C   UNL     1       1.572  15.083  21.544  0.00  0.00    +0.000 C 
ATOM     13  C   UNL     1       0.736  13.816  21.644  0.00  0.00    +0.000 C 
ATOM     14  C   UNL     1      -0.033  13.490  20.339  0.00  0.00    +0.000 C 
ATOM     15  C   UNL     1      -1.135  14.551  20.138  0.00  0.00    +0.000 C 
ATOM     16  C   UNL     1      -0.582  12.038  20.456  0.00  0.00    +0.000 C 
ATOM     17  C   UNL     1       0.525  11.137  19.878  0.00  0.00    +0.000 C 
ATOM     18  C   UNL     1       1.580  12.043  19.222  0.00  0.00    +0.000 C 
ATOM     19  C   UNL     1       0.931  13.427  19.123  0.00  0.00    +0.000 C 
ENDROOT
BRANCH   5  20
ATOM     20  O   UNL     1       7.191  16.355  20.710  0.00  0.00    +0.000 OA
ATOM     21  H   UNL     1       7.090  16.764  19.835  0.00  0.00    +0.000 HD
ENDBRANCH   5  20
BRANCH  16  22
ATOM     22  C   UNL     1      -1.933  11.821  19.785  0.00  0.00    +0.000 C 
ATOM     23  N   UNL     1      -1.988  11.320  18.588  0.00  0.00    +0.000 NA
BRANCH  23  24
ATOM     24  N   UNL     1      -3.317  11.106  18.179  0.00  0.00    +0.000 NA
ATOM     25  C   UNL     1      -3.484  11.213  16.882  0.00  0.00    +0.000 C 
ATOM     26  N   UNL     1      -2.512  11.514  16.004  0.00  0.00    +0.000 N 
ATOM     27  N   UNL     1      -4.677  10.987  16.309  0.00  0.00    +0.000 N 
ATOM     28  H   UNL     1      -1.599  11.671  16.414  0.00  0.00    +0.000 HD
ATOM     29  H   UNL     1      -2.672  11.717  15.041  0.00  0.00    +0.000 HD
ATOM     30  H   UNL     1      -5.459  10.864  16.940  0.00  0.00    +0.000 HD
ATOM     31  H   UNL     1      -4.874  11.293  15.375  0.00  0.00    +0.000 HD
ENDBRANCH  23  24
ENDBRANCH  16  22
BRANCH  19  32
ATOM     32  O   UNL     1       0.153  13.399  17.913  0.00  0.00    +0.000 OA
ATOM     33  H   UNL     1      -0.715  13.795  18.099  0.00  0.00    +0.000 HD
ENDBRANCH  19  32
TORSDOF 4
ENDMDL
MODEL 9
REMARK VINA RESULT:      -5.8      8.575     10.873
REMARK  Name = 
REMARK  6 active torsions:
REMARK  status: ('A' for Active; 'I' for Inactive)
REMARK    1  A    between atoms: C_1  and  C_2
REMARK    2  A    between atoms: C_5  and  O_6
REMARK    3  A    between atoms: C_15  and  C_16
REMARK    4  A    between atoms: C_17  and  C_18
REMARK    5  A    between atoms: N_19  and  N_20
REMARK    6  A    between atoms: C_26  and  O_27
REMARK                            x       y       z     vdW  Elec       q    Type
REMARK                         _______ _______ _______ _____ _____    ______ ____
ROOT
ATOM      1  C   UNL     1      -3.526  12.187  23.766  0.00  0.00    +0.000 C 
ATOM      2  C   UNL     1      -3.038  13.448  23.005  0.00  0.00    +0.000 C 
ATOM      3  C   UNL     1      -2.498  14.421  24.093  0.00  0.00    +0.000 C 
ATOM      4  C   UNL     1      -2.139  15.802  23.550  0.00  0.00    +0.000 C 
ATOM      5  C   UNL     1      -3.335  16.456  22.867  0.00  0.00    +0.000 C 
ATOM      6  C   UNL     1      -3.941  15.552  21.797  0.00  0.00    +0.000 C 
ATOM      7  C   UNL     1      -4.255  14.122  22.299  0.00  0.00    +0.000 C 
ATOM      8  C   UNL     1      -4.795  13.269  21.143  0.00  0.00    +0.000 C 
ATOM      9  C   UNL     1      -3.728  12.896  20.120  0.00  0.00    +0.000 C 
ATOM     10  C   UNL     1      -2.503  12.220  20.764  0.00  0.00    +0.000 C 
ATOM     11  C   UNL     1      -1.942  13.089  21.928  0.00  0.00    +0.000 C 
ATOM     12  C   UNL     1      -0.691  12.445  22.544  0.00  0.00    +0.000 C 
ATOM     13  C   UNL     1       0.366  12.172  21.485  0.00  0.00    +0.000 C 
ATOM     14  C   UNL     1      -0.138  11.254  20.344  0.00  0.00    +0.000 C 
ATOM     15  C   UNL     1      -0.353   9.835  20.912  0.00  0.00    +0.000 C 
ATOM     16  C   UNL     1       0.903  11.309  19.188  0.00  0.00    +0.000 C 
ATOM     17  C   UNL     1       0.445  12.469  18.284  0.00  0.00    +0.000 C 
ATOM     18  C   UNL     1      -0.948  12.918  18.757  0.00  0.00    +0.000 C 
ATOM     19  C   UNL     1      -1.436  11.817  19.704  0.00  0.00    +0.000 C 
ENDROOT
BRANCH   5  20
ATOM     20  O   UNL     1      -4.325  16.806  23.832  0.00  0.00    +0.000 OA
ATOM     21  H   UNL     1      -4.363  16.112  24.511  0.00  0.00    +0.000 HD
ENDBRANCH   5  20
BRANCH  16  22
ATOM     22  C   UNL     1       1.071   9.998  18.430  0.00  0.00    +0.000 C 
ATOM     23  N   UNL     1       2.211   9.376  18.458  0.00  0.00    +0.000 NA
BRANCH  23  24
ATOM     24  N   UNL     1       2.142   8.143  17.782  0.00  0.00    +0.000 NA
ATOM     25  C   UNL     1       2.342   7.110  18.566  0.00  0.00    +0.000 C 
ATOM     26  N   UNL     1       2.608   7.184  19.881  0.00  0.00    +0.000 N 
ATOM     27  N   UNL     1       2.260   5.854  18.101  0.00  0.00    +0.000 N 
ATOM     28  H   UNL     1       2.657   8.124  20.256  0.00  0.00    +0.000 HD
ATOM     29  H   UNL     1       2.883   6.405  20.440  0.00  0.00    +0.000 HD
ATOM     30  H   UNL     1       2.170   5.753  17.098  0.00  0.00    +0.000 HD
ATOM     31  H   UNL     1       2.638   5.082  18.616  0.00  0.00    +0.000 HD
ENDBRANCH  23  24
ENDBRANCH  16  22
BRANCH  19  32
ATOM     32  O   UNL     1      -2.012  10.809  18.854  0.00  0.00    +0.000 OA
ATOM     33  H   UNL     1      -2.711  10.353  19.353  0.00  0.00    +0.000 HD
ENDBRANCH  19  32
TORSDOF 4
ENDMDL
