MODEL 1
REMARK VINA RESULT:      -6.3      0.000      0.000
REMARK  Name = 
REMARK  9 active torsions:
REMARK  status: ('A' for Active; 'I' for Inactive)
REMARK    1  A    between atoms: C_1  and  O_2
REMARK    2  A    between atoms: O_2  and  C_3
REMARK    3  A    between atoms: C_5  and  C_6
REMARK    4  A    between atoms: P_9  and  O_11
REMARK    5  A    between atoms: O_11  and  C_12
REMARK    6  A    between atoms: C_15  and  O_16
REMARK    7  A    between atoms: O_16  and  C_17
REMARK    8  A    between atoms: C_18  and  O_19
REMARK    9  A    between atoms: O_19  and  C_20
REMARK                            x       y       z     vdW  Elec       q    Type
REMARK                         _______ _______ _______ _____ _____    ______ ____
ROOT
ATOM      1  C   UNL     1       6.284   3.992  14.342  0.00  0.00    +0.000 A 
ATOM      2  C   UNL     1       5.357   3.485  15.268  0.00  0.00    +0.000 A 
ATOM      3  C   UNL     1       5.169   4.093  16.508  0.00  0.00    +0.000 A 
ATOM      4  C   UNL     1       6.014   5.150  16.854  0.00  0.00    +0.000 A 
ATOM      5  C   UNL     1       7.007   5.624  15.982  0.00  0.00    +0.000 A 
ATOM      6  C   UNL     1       7.151   5.049  14.698  0.00  0.00    +0.000 A 
ENDROOT
BRANCH   3   7
ATOM      7  C   UNL     1       4.005   3.703  17.381  0.00  0.00    +0.000 C 
ATOM      8  C   UNL     1       4.366   3.155  18.782  0.00  0.00    +0.000 C 
ATOM      9  N   UNL     1       3.506   3.818  19.763  0.00  0.00    +0.000 NA
ATOM     10  P   UNL     1       2.534   4.914  19.016  0.00  0.00    +0.000 P 
ATOM     11  S   UNL     1       2.298   6.662  19.785  0.00  0.00    +0.000 S 
ATOM     12  O   UNL     1       3.211   4.883  17.547  0.00  0.00    +0.000 OA
ATOM     13  H   UNL     1       2.997   3.147  20.326  0.00  0.00    +0.000 HD
BRANCH  10  14
ATOM     14  O   UNL     1       1.186   4.067  18.724  0.00  0.00    +0.000 OA
ATOM     15  C   UNL     1       0.857   3.017  19.620  0.00  0.00    +0.000 C 
ENDBRANCH  10  14
ENDBRANCH   3   7
BRANCH   1  17
ATOM     16  C   UNL     1       5.139   3.368  12.358  0.00  0.00    +0.000 C 
ATOM     17  O   UNL     1       6.364   3.422  13.096  0.00  0.00    +0.000 OA
ENDBRANCH   1  17
BRANCH   5  18
ATOM     18  O   UNL     1       7.703   6.663  16.547  0.00  0.00    +0.000 OA
ATOM     19  C   UNL     1       7.536   6.960  17.924  0.00  0.00    +0.000 C 
ENDBRANCH   5  18
BRANCH   6  20
ATOM     20  O   UNL     1       8.138   5.574  13.913  0.00  0.00    +0.000 OA
ATOM     21  C   UNL     1       7.966   5.679  12.508  0.00  0.00    +0.000 C 
ENDBRANCH   6  20
TORSDOF 5
ENDMDL
MODEL 2
REMARK VINA RESULT:      -6.3      0.244      2.925
REMARK  Name = 
REMARK  9 active torsions:
REMARK  status: ('A' for Active; 'I' for Inactive)
REMARK    1  A    between atoms: C_1  and  O_2
REMARK    2  A    between atoms: O_2  and  C_3
REMARK    3  A    between atoms: C_5  and  C_6
REMARK    4  A    between atoms: P_9  and  O_11
REMARK    5  A    between atoms: O_11  and  C_12
REMARK    6  A    between atoms: C_15  and  O_16
REMARK    7  A    between atoms: O_16  and  C_17
REMARK    8  A    between atoms: C_18  and  O_19
REMARK    9  A    between atoms: O_19  and  C_20
REMARK                            x       y       z     vdW  Elec       q    Type
REMARK                         _______ _______ _______ _____ _____    ______ ____
ROOT
ATOM      1  C   UNL     1       6.933   5.710  15.958  0.00  0.00    +0.000 A 
ATOM      2  C   UNL     1       5.784   5.394  16.704  0.00  0.00    +0.000 A 
ATOM      3  C   UNL     1       4.942   4.350  16.326  0.00  0.00    +0.000 A 
ATOM      4  C   UNL     1       5.205   3.700  15.118  0.00  0.00    +0.000 A 
ATOM      5  C   UNL     1       6.299   4.049  14.309  0.00  0.00    +0.000 A 
ATOM      6  C   UNL     1       7.189   5.065  14.727  0.00  0.00    +0.000 A 
ENDROOT
BRANCH   3   7
ATOM      7  C   UNL     1       3.869   3.860  17.262  0.00  0.00    +0.000 C 
ATOM      8  C   UNL     1       4.362   3.263  18.602  0.00  0.00    +0.000 C 
ATOM      9  N   UNL     1       3.551   3.833  19.678  0.00  0.00    +0.000 NA
ATOM     10  P   UNL     1       2.474   4.914  19.065  0.00  0.00    +0.000 P 
ATOM     11  S   UNL     1       2.217   6.609  19.939  0.00  0.00    +0.000 S 
ATOM     12  O   UNL     1       3.036   4.989  17.549  0.00  0.00    +0.000 OA
ATOM     13  H   UNL     1       3.119   3.111  20.241  0.00  0.00    +0.000 HD
BRANCH  10  14
ATOM     14  O   UNL     1       1.149   4.016  18.830  0.00  0.00    +0.000 OA
ATOM     15  C   UNL     1       0.884   2.973  19.756  0.00  0.00    +0.000 C 
ENDBRANCH  10  14
ENDBRANCH   3   7
BRANCH   1  17
ATOM     16  C   UNL     1       7.324   7.425  17.552  0.00  0.00    +0.000 C 
ATOM     17  O   UNL     1       7.786   6.679  16.422  0.00  0.00    +0.000 OA
ENDBRANCH   1  17
BRANCH   5  18
ATOM     18  O   UNL     1       6.343   3.271  13.180  0.00  0.00    +0.000 OA
ATOM     19  C   UNL     1       5.281   3.324  12.241  0.00  0.00    +0.000 C 
ENDBRANCH   5  18
BRANCH   6  20
ATOM     20  O   UNL     1       8.228   5.336  13.882  0.00  0.00    +0.000 OA
ATOM     21  C   UNL     1       7.985   5.784  12.558  0.00  0.00    +0.000 C 
ENDBRANCH   6  20
TORSDOF 5
ENDMDL
MODEL 3
REMARK VINA RESULT:      -6.1      1.638      3.344
REMARK  Name = 
REMARK  9 active torsions:
REMARK  status: ('A' for Active; 'I' for Inactive)
REMARK    1  A    between atoms: C_1  and  O_2
REMARK    2  A    between atoms: O_2  and  C_3
REMARK    3  A    between atoms: C_5  and  C_6
REMARK    4  A    between atoms: P_9  and  O_11
REMARK    5  A    between atoms: O_11  and  C_12
REMARK    6  A    between atoms: C_15  and  O_16
REMARK    7  A    between atoms: O_16  and  C_17
REMARK    8  A    between atoms: C_18  and  O_19
REMARK    9  A    between atoms: O_19  and  C_20
REMARK                            x       y       z     vdW  Elec       q    Type
REMARK                         _______ _______ _______ _____ _____    ______ ____
ROOT
ATOM      1  C   UNL     1       6.915   5.917  16.071  0.00  0.00    +0.000 A 
ATOM      2  C   UNL     1       5.729   5.782  16.812  0.00  0.00    +0.000 A 
ATOM      3  C   UNL     1       4.810   4.774  16.527  0.00  0.00    +0.000 A 
ATOM      4  C   UNL     1       5.042   3.973  15.406  0.00  0.00    +0.000 A 
ATOM      5  C   UNL     1       6.178   4.139  14.597  0.00  0.00    +0.000 A 
ATOM      6  C   UNL     1       7.142   5.119  14.927  0.00  0.00    +0.000 A 
ENDROOT
BRANCH   3   7
ATOM      7  C   UNL     1       3.680   4.481  17.479  0.00  0.00    +0.000 C 
ATOM      8  C   UNL     1       2.755   3.304  17.085  0.00  0.00    +0.000 C 
ATOM      9  N   UNL     1       2.554   2.469  18.270  0.00  0.00    +0.000 NA
ATOM     10  P   UNL     1       3.418   3.065  19.536  0.00  0.00    +0.000 P 
ATOM     11  S   UNL     1       4.433   1.866  20.649  0.00  0.00    +0.000 S 
ATOM     12  O   UNL     1       4.282   4.179  18.742  0.00  0.00    +0.000 OA
ATOM     13  H   UNL     1       1.571   2.346  18.477  0.00  0.00    +0.000 HD
BRANCH  10  14
ATOM     14  O   UNL     1       2.352   4.019  20.290  0.00  0.00    +0.000 OA
ATOM     15  C   UNL     1       1.101   3.455  20.654  0.00  0.00    +0.000 C 
ENDBRANCH  10  14
ENDBRANCH   3   7
BRANCH   1  17
ATOM     16  C   UNL     1       7.461   7.687  17.556  0.00  0.00    +0.000 C 
ATOM     17  O   UNL     1       7.837   6.860  16.451  0.00  0.00    +0.000 OA
ENDBRANCH   1  17
BRANCH   5  18
ATOM     18  O   UNL     1       6.181   3.238  13.563  0.00  0.00    +0.000 OA
ATOM     19  C   UNL     1       5.388   3.480  12.411  0.00  0.00    +0.000 C 
ENDBRANCH   5  18
BRANCH   6  20
ATOM     20  O   UNL     1       8.218   5.209  14.089  0.00  0.00    +0.000 OA
ATOM     21  C   UNL     1       8.086   5.794  12.804  0.00  0.00    +0.000 C 
ENDBRANCH   6  20
TORSDOF 5
ENDMDL
MODEL 4
REMARK VINA RESULT:      -5.9      1.528      1.555
REMARK  Name = 
REMARK  9 active torsions:
REMARK  status: ('A' for Active; 'I' for Inactive)
REMARK    1  A    between atoms: C_1  and  O_2
REMARK    2  A    between atoms: O_2  and  C_3
REMARK    3  A    between atoms: C_5  and  C_6
REMARK    4  A    between atoms: P_9  and  O_11
REMARK    5  A    between atoms: O_11  and  C_12
REMARK    6  A    between atoms: C_15  and  O_16
REMARK    7  A    between atoms: O_16  and  C_17
REMARK    8  A    between atoms: C_18  and  O_19
REMARK    9  A    between atoms: O_19  and  C_20
REMARK                            x       y       z     vdW  Elec       q    Type
REMARK                         _______ _______ _______ _____ _____    ______ ____
ROOT
ATOM      1  C   UNL     1       6.141   4.137  14.475  0.00  0.00    +0.000 A 
ATOM      2  C   UNL     1       5.132   3.846  15.409  0.00  0.00    +0.000 A 
ATOM      3  C   UNL     1       4.973   4.612  16.562  0.00  0.00    +0.000 A 
ATOM      4  C   UNL     1       5.921   5.605  16.826  0.00  0.00    +0.000 A 
ATOM      5  C   UNL     1       6.989   5.863  15.952  0.00  0.00    +0.000 A 
ATOM      6  C   UNL     1       7.110   5.129  14.749  0.00  0.00    +0.000 A 
ENDROOT
BRANCH   3   7
ATOM      7  C   UNL     1       3.744   4.455  17.419  0.00  0.00    +0.000 C 
ATOM      8  C   UNL     1       2.788   3.305  17.023  0.00  0.00    +0.000 C 
ATOM      9  N   UNL     1       2.429   2.575  18.240  0.00  0.00    +0.000 NA
ATOM     10  P   UNL     1       3.208   3.218  19.537  0.00  0.00    +0.000 P 
ATOM     11  S   UNL     1       4.040   2.054  20.825  0.00  0.00    +0.000 S 
ATOM     12  O   UNL     1       4.209   4.219  18.753  0.00  0.00    +0.000 OA
ATOM     13  H   UNL     1       1.424   2.523  18.360  0.00  0.00    +0.000 HD
BRANCH  10  14
ATOM     14  O   UNL     1       2.138   4.284  20.115  0.00  0.00    +0.000 OA
ATOM     15  C   UNL     1       0.798   3.850  20.287  0.00  0.00    +0.000 C 
ENDBRANCH  10  14
ENDBRANCH   3   7
BRANCH   1  17
ATOM     16  C   UNL     1       5.020   3.464  12.493  0.00  0.00    +0.000 C 
ATOM     17  O   UNL     1       6.197   3.420  13.306  0.00  0.00    +0.000 OA
ENDBRANCH   1  17
BRANCH   5  18
ATOM     18  O   UNL     1       7.779   6.878  16.427  0.00  0.00    +0.000 OA
ATOM     19  C   UNL     1       7.657   7.296  17.778  0.00  0.00    +0.000 C 
ENDBRANCH   5  18
BRANCH   6  20
ATOM     20  O   UNL     1       8.175   5.448  13.956  0.00  0.00    +0.000 OA
ATOM     21  C   UNL     1       8.002   5.662  12.564  0.00  0.00    +0.000 C 
ENDBRANCH   6  20
TORSDOF 5
ENDMDL
MODEL 5
REMARK VINA RESULT:      -5.9      3.688      6.655
REMARK  Name = 
REMARK  9 active torsions:
REMARK  status: ('A' for Active; 'I' for Inactive)
REMARK    1  A    between atoms: C_1  and  O_2
REMARK    2  A    between atoms: O_2  and  C_3
REMARK    3  A    between atoms: C_5  and  C_6
REMARK    4  A    between atoms: P_9  and  O_11
REMARK    5  A    between atoms: O_11  and  C_12
REMARK    6  A    between atoms: C_15  and  O_16
REMARK    7  A    between atoms: O_16  and  C_17
REMARK    8  A    between atoms: C_18  and  O_19
REMARK    9  A    between atoms: O_19  and  C_20
REMARK                            x       y       z     vdW  Elec       q    Type
REMARK                         _______ _______ _______ _____ _____    ______ ____
ROOT
ATOM      1  C   UNL     1       2.964   7.269  18.063  0.00  0.00    +0.000 A 
ATOM      2  C   UNL     1       4.217   7.174  17.433  0.00  0.00    +0.000 A 
ATOM      3  C   UNL     1       5.128   6.180  17.783  0.00  0.00    +0.000 A 
ATOM      4  C   UNL     1       4.811   5.352  18.863  0.00  0.00    +0.000 A 
ATOM      5  C   UNL     1       3.602   5.478  19.566  0.00  0.00    +0.000 A 
ATOM      6  C   UNL     1       2.651   6.444  19.166  0.00  0.00    +0.000 A 
ENDROOT
BRANCH   3   7
ATOM      7  C   UNL     1       6.348   5.930  16.936  0.00  0.00    +0.000 C 
ATOM      8  C   UNL     1       7.188   4.687  17.314  0.00  0.00    +0.000 C 
ATOM      9  N   UNL     1       7.494   3.956  16.083  0.00  0.00    +0.000 NA
ATOM     10  P   UNL     1       6.794   4.698  14.794  0.00  0.00    +0.000 P 
ATOM     11  S   UNL     1       5.874   3.647  13.470  0.00  0.00    +0.000 S 
ATOM     12  O   UNL     1       5.880   5.769  15.592  0.00  0.00    +0.000 OA
ATOM     13  H   UNL     1       8.491   3.813  15.972  0.00  0.00    +0.000 HD
BRANCH  10  14
ATOM     14  O   UNL     1       7.965   5.673  14.253  0.00  0.00    +0.000 OA
ATOM     15  C   UNL     1       8.259   5.648  12.864  0.00  0.00    +0.000 C 
ENDBRANCH  10  14
ENDBRANCH   3   7
BRANCH   1  17
ATOM     16  C   UNL     1       2.327   9.555  17.991  0.00  0.00    +0.000 C 
ATOM     17  O   UNL     1       2.060   8.200  17.617  0.00  0.00    +0.000 OA
ENDBRANCH   1  17
BRANCH   5  18
ATOM     18  O   UNL     1       3.525   4.556  20.579  0.00  0.00    +0.000 OA
ATOM     19  C   UNL     1       3.250   3.197  20.279  0.00  0.00    +0.000 C 
ENDBRANCH   5  18
BRANCH   6  20
ATOM     20  O   UNL     1       1.501   6.494  19.902  0.00  0.00    +0.000 OA
ATOM     21  C   UNL     1       1.325   7.485  20.902  0.00  0.00    +0.000 C 
ENDBRANCH   6  20
TORSDOF 5
ENDMDL
MODEL 6
REMARK VINA RESULT:      -5.9      3.792      4.509
REMARK  Name = 
REMARK  9 active torsions:
REMARK  status: ('A' for Active; 'I' for Inactive)
REMARK    1  A    between atoms: C_1  and  O_2
REMARK    2  A    between atoms: O_2  and  C_3
REMARK    3  A    between atoms: C_5  and  C_6
REMARK    4  A    between atoms: P_9  and  O_11
REMARK    5  A    between atoms: O_11  and  C_12
REMARK    6  A    between atoms: C_15  and  O_16
REMARK    7  A    between atoms: O_16  and  C_17
REMARK    8  A    between atoms: C_18  and  O_19
REMARK    9  A    between atoms: O_19  and  C_20
REMARK                            x       y       z     vdW  Elec       q    Type
REMARK                         _______ _______ _______ _____ _____    ______ ____
ROOT
ATOM      1  C   UNL     1       4.118   4.447  17.658  0.00  0.00    +0.000 A 
ATOM      2  C   UNL     1       3.089   5.257  18.168  0.00  0.00    +0.000 A 
ATOM      3  C   UNL     1       3.139   6.645  18.055  0.00  0.00    +0.000 A 
ATOM      4  C   UNL     1       4.299   7.218  17.528  0.00  0.00    +0.000 A 
ATOM      5  C   UNL     1       5.380   6.436  17.087  0.00  0.00    +0.000 A 
ATOM      6  C   UNL     1       5.298   5.026  17.141  0.00  0.00    +0.000 A 
ENDROOT
BRANCH   3   7
ATOM      7  C   UNL     1       1.927   7.481  18.370  0.00  0.00    +0.000 C 
ATOM      8  C   UNL     1       1.748   7.877  19.855  0.00  0.00    +0.000 C 
ATOM      9  N   UNL     1       1.427   9.304  19.908  0.00  0.00    +0.000 NA
ATOM     10  P   UNL     1       1.429   9.942  18.392  0.00  0.00    +0.000 P 
ATOM     11  S   UNL     1       2.293  11.631  18.067  0.00  0.00    +0.000 S 
ATOM     12  O   UNL     1       2.048   8.678  17.594  0.00  0.00    +0.000 OA
ATOM     13  H   UNL     1       0.566   9.474  20.414  0.00  0.00    +0.000 HD
BRANCH  10  14
ATOM     14  O   UNL     1      -0.121   9.827  17.945  0.00  0.00    +0.000 OA
ATOM     15  C   UNL     1      -1.087  10.521  18.721  0.00  0.00    +0.000 C 
ENDBRANCH  10  14
ENDBRANCH   3   7
BRANCH   1  17
ATOM     16  C   UNL     1       2.641   2.590  17.567  0.00  0.00    +0.000 C 
ATOM     17  O   UNL     1       3.978   3.082  17.701  0.00  0.00    +0.000 OA
ENDBRANCH   1  17
BRANCH   5  18
ATOM     18  O   UNL     1       6.397   7.226  16.614  0.00  0.00    +0.000 OA
ATOM     19  C   UNL     1       7.476   7.576  17.466  0.00  0.00    +0.000 C 
ENDBRANCH   5  18
BRANCH   6  20
ATOM     20  O   UNL     1       6.392   4.344  16.687  0.00  0.00    +0.000 OA
ATOM     21  C   UNL     1       6.539   4.049  15.307  0.00  0.00    +0.000 C 
ENDBRANCH   6  20
TORSDOF 5
ENDMDL
MODEL 7
REMARK VINA RESULT:      -5.7      3.444      6.425
REMARK  Name = 
REMARK  9 active torsions:
REMARK  status: ('A' for Active; 'I' for Inactive)
REMARK    1  A    between atoms: C_1  and  O_2
REMARK    2  A    between atoms: O_2  and  C_3
REMARK    3  A    between atoms: C_5  and  C_6
REMARK    4  A    between atoms: P_9  and  O_11
REMARK    5  A    between atoms: O_11  and  C_12
REMARK    6  A    between atoms: C_15  and  O_16
REMARK    7  A    between atoms: O_16  and  C_17
REMARK    8  A    between atoms: C_18  and  O_19
REMARK    9  A    between atoms: O_19  and  C_20
REMARK                            x       y       z     vdW  Elec       q    Type
REMARK                         _______ _______ _______ _____ _____    ______ ____
ROOT
ATOM      1  C   UNL     1       2.869   3.721  18.031  0.00  0.00    +0.000 A 
ATOM      2  C   UNL     1       3.898   4.002  17.116  0.00  0.00    +0.000 A 
ATOM      3  C   UNL     1       4.438   5.283  17.008  0.00  0.00    +0.000 A 
ATOM      4  C   UNL     1       3.847   6.308  17.750  0.00  0.00    +0.000 A 
ATOM      5  C   UNL     1       2.762   6.072  18.610  0.00  0.00    +0.000 A 
ATOM      6  C   UNL     1       2.259   4.760  18.768  0.00  0.00    +0.000 A 
ENDROOT
BRANCH   3   7
ATOM      7  C   UNL     1       5.699   5.514  16.219  0.00  0.00    +0.000 C 
ATOM      8  C   UNL     1       6.917   4.649  16.624  0.00  0.00    +0.000 C 
ATOM      9  N   UNL     1       7.518   4.113  15.402  0.00  0.00    +0.000 NA
ATOM     10  P   UNL     1       6.651   4.587  14.088  0.00  0.00    +0.000 P 
ATOM     11  S   UNL     1       6.231   3.311  12.710  0.00  0.00    +0.000 S 
ATOM     12  O   UNL     1       5.379   5.232  14.852  0.00  0.00    +0.000 OA
ATOM     13  H   UNL     1       8.502   4.344  15.339  0.00  0.00    +0.000 HD
BRANCH  10  14
ATOM     14  O   UNL     1       7.410   5.935  13.615  0.00  0.00    +0.000 OA
ATOM     15  C   UNL     1       8.564   5.793  12.801  0.00  0.00    +0.000 C 
ENDBRANCH  10  14
ENDBRANCH   3   7
BRANCH   1  17
ATOM     16  C   UNL     1       3.456   1.457  18.438  0.00  0.00    +0.000 C 
ATOM     17  O   UNL     1       2.437   2.426  18.174  0.00  0.00    +0.000 OA
ENDBRANCH   1  17
BRANCH   5  18
ATOM     18  O   UNL     1       2.360   7.232  19.223  0.00  0.00    +0.000 OA
ATOM     19  C   UNL     1       2.116   8.395  18.448  0.00  0.00    +0.000 C 
ENDBRANCH   5  18
BRANCH   6  20
ATOM     20  O   UNL     1       1.206   4.621  19.628  0.00  0.00    +0.000 OA
ATOM     21  C   UNL     1       1.396   4.061  20.917  0.00  0.00    +0.000 C 
ENDBRANCH   6  20
TORSDOF 5
ENDMDL
MODEL 8
REMARK VINA RESULT:      -5.7      3.755      4.966
REMARK  Name = 
REMARK  9 active torsions:
REMARK  status: ('A' for Active; 'I' for Inactive)
REMARK    1  A    between atoms: C_1  and  O_2
REMARK    2  A    between atoms: O_2  and  C_3
REMARK    3  A    between atoms: C_5  and  C_6
REMARK    4  A    between atoms: P_9  and  O_11
REMARK    5  A    between atoms: O_11  and  C_12
REMARK    6  A    between atoms: C_15  and  O_16
REMARK    7  A    between atoms: O_16  and  C_17
REMARK    8  A    between atoms: C_18  and  O_19
REMARK    9  A    between atoms: O_19  and  C_20
REMARK                            x       y       z     vdW  Elec       q    Type
REMARK                         _______ _______ _______ _____ _____    ______ ____
ROOT
ATOM      1  C   UNL     1       5.413   6.572  16.997  0.00  0.00    +0.000 A 
ATOM      2  C   UNL     1       4.238   7.303  17.241  0.00  0.00    +0.000 A 
ATOM      3  C   UNL     1       3.076   6.675  17.685  0.00  0.00    +0.000 A 
ATOM      4  C   UNL     1       3.075   5.280  17.767  0.00  0.00    +0.000 A 
ATOM      5  C   UNL     1       4.210   4.517  17.449  0.00  0.00    +0.000 A 
ATOM      6  C   UNL     1       5.408   5.161  17.063  0.00  0.00    +0.000 A 
ENDROOT
BRANCH   3   7
ATOM      7  C   UNL     1       1.911   7.489  18.184  0.00  0.00    +0.000 C 
ATOM      8  C   UNL     1       1.900   7.790  19.703  0.00  0.00    +0.000 C 
ATOM      9  N   UNL     1       1.598   9.211  19.881  0.00  0.00    +0.000 NA
ATOM     10  P   UNL     1       1.438   9.945  18.417  0.00  0.00    +0.000 P 
ATOM     11  S   UNL     1       2.273  11.651  18.108  0.00  0.00    +0.000 S 
ATOM     12  O   UNL     1       1.956   8.734  17.477  0.00  0.00    +0.000 OA
ATOM     13  H   UNL     1       0.799   9.348  20.488  0.00  0.00    +0.000 HD
BRANCH  10  14
ATOM     14  O   UNL     1      -0.153   9.859  18.137  0.00  0.00    +0.000 OA
ATOM     15  C   UNL     1      -1.028  10.365  19.134  0.00  0.00    +0.000 C 
ENDBRANCH  10  14
ENDBRANCH   3   7
BRANCH   1  17
ATOM     16  C   UNL     1       7.546   7.352  17.690  0.00  0.00    +0.000 C 
ATOM     17  O   UNL     1       6.560   7.245  16.658  0.00  0.00    +0.000 OA
ENDBRANCH   1  17
BRANCH   5  18
ATOM     18  O   UNL     1       3.961   3.177  17.607  0.00  0.00    +0.000 OA
ATOM     19  C   UNL     1       2.627   2.718  17.755  0.00  0.00    +0.000 C 
ENDBRANCH   5  18
BRANCH   6  20
ATOM     20  O   UNL     1       6.464   4.342  16.776  0.00  0.00    +0.000 OA
ATOM     21  C   UNL     1       6.748   3.970  15.437  0.00  0.00    +0.000 C 
ENDBRANCH   6  20
TORSDOF 5
ENDMDL
MODEL 9
REMARK VINA RESULT:      -5.7      4.200      6.984
REMARK  Name = 
REMARK  9 active torsions:
REMARK  status: ('A' for Active; 'I' for Inactive)
REMARK    1  A    between atoms: C_1  and  O_2
REMARK    2  A    between atoms: O_2  and  C_3
REMARK    3  A    between atoms: C_5  and  C_6
REMARK    4  A    between atoms: P_9  and  O_11
REMARK    5  A    between atoms: O_11  and  C_12
REMARK    6  A    between atoms: C_15  and  O_16
REMARK    7  A    between atoms: O_16  and  C_17
REMARK    8  A    between atoms: C_18  and  O_19
REMARK    9  A    between atoms: O_19  and  C_20
REMARK                            x       y       z     vdW  Elec       q    Type
REMARK                         _______ _______ _______ _____ _____    ______ ____
ROOT
ATOM      1  C   UNL     1       2.075   6.154  20.216  0.00  0.00    +0.000 A 
ATOM      2  C   UNL     1       2.761   5.602  19.121  0.00  0.00    +0.000 A 
ATOM      3  C   UNL     1       3.134   6.387  18.032  0.00  0.00    +0.000 A 
ATOM      4  C   UNL     1       2.702   7.716  18.003  0.00  0.00    +0.000 A 
ATOM      5  C   UNL     1       1.942   8.273  19.045  0.00  0.00    +0.000 A 
ATOM      6  C   UNL     1       1.622   7.492  20.179  0.00  0.00    +0.000 A 
ENDROOT
BRANCH   3   7
ATOM      7  C   UNL     1       4.083   5.850  16.993  0.00  0.00    +0.000 C 
ATOM      8  C   UNL     1       4.937   6.905  16.249  0.00  0.00    +0.000 C 
ATOM      9  N   UNL     1       6.321   6.429  16.221  0.00  0.00    +0.000 NA
ATOM     10  P   UNL     1       6.446   4.999  17.024  0.00  0.00    +0.000 P 
ATOM     11  S   UNL     1       7.903   4.715  18.249  0.00  0.00    +0.000 S 
ATOM     12  O   UNL     1       4.967   4.954  17.677  0.00  0.00    +0.000 OA
ATOM     13  H   UNL     1       6.683   6.392  15.275  0.00  0.00    +0.000 HD
BRANCH  10  14
ATOM     14  O   UNL     1       6.269   3.903  15.848  0.00  0.00    +0.000 OA
ATOM     15  C   UNL     1       6.631   4.283  14.529  0.00  0.00    +0.000 C 
ENDBRANCH  10  14
ENDBRANCH   3   7
BRANCH   1  17
ATOM     16  C   UNL     1       1.999   3.960  21.119  0.00  0.00    +0.000 C 
ATOM     17  O   UNL     1       1.817   5.367  21.310  0.00  0.00    +0.000 OA
ENDBRANCH   1  17
BRANCH   5  18
ATOM     18  O   UNL     1       1.641   9.586  18.785  0.00  0.00    +0.000 OA
ATOM     19  C   UNL     1       0.369   9.929  18.260  0.00  0.00    +0.000 C 
ENDBRANCH   5  18
BRANCH   6  20
ATOM     20  O   UNL     1       0.885   8.115  21.147  0.00  0.00    +0.000 OA
ATOM     21  C   UNL     1       1.512   8.946  22.111  0.00  0.00    +0.000 C 
ENDBRANCH   6  20
TORSDOF 5
ENDMDL
