MODEL 1
REMARK VINA RESULT:     -10.4      0.000      0.000
REMARK  Name = 
REMARK  2 active torsions:
REMARK  status: ('A' for Active; 'I' for Inactive)
REMARK    1  A    between atoms: C_13  and  C_14
REMARK    2  A    between atoms: C_20  and  C_22
REMARK                            x       y       z     vdW  Elec       q    Type
REMARK                         _______ _______ _______ _____ _____    ______ ____
ROOT
ATOM      1  C   UNL     1      -0.515  10.091  20.014  0.00  0.00    +0.000 A 
ATOM      2  C   UNL     1      -0.427  10.380  21.360  0.00  0.00    +0.000 A 
ATOM      3  C   UNL     1       0.576   9.738  22.051  0.00  0.00    +0.000 A 
ATOM      4  N   UNL     1       1.439   8.884  21.476  0.00  0.00    +0.000 NA
ATOM      5  C   UNL     1       1.298   8.694  20.154  0.00  0.00    +0.000 A 
ATOM      6  N   UNL     1       2.238   7.832  19.600  0.00  0.00    +0.000 N 
ATOM      7  C   UNL     1       2.380   7.599  18.253  0.00  0.00    +0.000 C 
ATOM      8  O   UNL     1       1.770   8.177  17.362  0.00  0.00    +0.000 OA
ATOM      9  N   UNL     1       0.340   9.257  19.401  0.00  0.00    +0.000 NA
ATOM     10  H   UNL     1       2.867   7.432  20.278  0.00  0.00    +0.000 HD
ENDROOT
BRANCH   1  23
ATOM     11  O   UNL     1      -2.976  10.797  15.086  0.00  0.00    +0.000 OA
ATOM     12  C   UNL     1      -3.537  11.160  16.113  0.00  0.00    +0.000 C 
ATOM     13  N   UNL     1      -4.875  11.464  16.126  0.00  0.00    +0.000 N 
ATOM     14  C   UNL     1      -5.505  12.251  17.175  0.00  0.00    +0.000 C 
ATOM     15  C   UNL     1      -4.985  12.035  18.649  0.00  0.00    +0.000 C 
ATOM     16  C   UNL     1      -5.662  10.844  19.358  0.00  0.00    +0.000 C 
ATOM     17  C   UNL     1      -7.122  11.026  19.759  0.00  0.00    +0.000 C 
ATOM     18  N   UNL     1      -7.588  12.362  20.099  0.00  0.00    +0.000 NA
ATOM     19  C   UNL     1      -6.870  13.486  19.526  0.00  0.00    +0.000 C 
ATOM     20  C   UNL     1      -5.342  13.310  19.438  0.00  0.00    +0.000 C 
ATOM     21  C   UNL     1      -3.496  11.684  18.562  0.00  0.00    +0.000 A 
ATOM     22  N   UNL     1      -2.623  11.432  19.610  0.00  0.00    +0.000 N 
ATOM     23  C   UNL     1      -1.511  10.734  19.145  0.00  0.00    +0.000 A 
ATOM     24  C   UNL     1      -1.621  10.706  17.765  0.00  0.00    +0.000 A 
ATOM     25  C   UNL     1      -2.882  11.234  17.404  0.00  0.00    +0.000 A 
ATOM     26  H   UNL     1      -5.270  11.493  15.196  0.00  0.00    +0.000 HD
ATOM     27  H   UNL     1      -7.703  12.466  21.105  0.00  0.00    +0.000 HD
ATOM     28  H   UNL     1      -2.817  11.551  20.598  0.00  0.00    +0.000 HD
ENDBRANCH   1  23
BRANCH   7  29
ATOM     29  C   UNL     1       3.371   6.535  17.877  0.00  0.00    +0.000 A 
ATOM     30  C   UNL     1       4.701   6.935  17.618  0.00  0.00    +0.000 A 
ATOM     31  C   UNL     1       5.688   5.982  17.385  0.00  0.00    +0.000 A 
ATOM     32  C   UNL     1       5.368   4.633  17.426  0.00  0.00    +0.000 A 
ATOM     33  C   UNL     1       4.056   4.205  17.677  0.00  0.00    +0.000 A 
ATOM     34  C   UNL     1       3.775   2.829  17.723  0.00  0.00    +0.000 A 
ATOM     35  C   UNL     1       2.485   2.364  17.970  0.00  0.00    +0.000 A 
ATOM     36  C   UNL     1       1.453   3.270  18.158  0.00  0.00    +0.000 A 
ATOM     37  C   UNL     1       1.717   4.643  18.111  0.00  0.00    +0.000 A 
ATOM     38  C   UNL     1       3.024   5.156  17.893  0.00  0.00    +0.000 A 
ENDBRANCH   7  29
TORSDOF 2
ENDMDL
MODEL 2
REMARK VINA RESULT:     -10.0      1.176      1.179
REMARK  Name = 
REMARK  2 active torsions:
REMARK  status: ('A' for Active; 'I' for Inactive)
REMARK    1  A    between atoms: C_13  and  C_14
REMARK    2  A    between atoms: C_20  and  C_22
REMARK                            x       y       z     vdW  Elec       q    Type
REMARK                         _______ _______ _______ _____ _____    ______ ____
ROOT
ATOM      1  C   UNL     1      -0.531  10.223  20.296  0.00  0.00    +0.000 A 
ATOM      2  C   UNL     1      -0.456  10.715  21.582  0.00  0.00    +0.000 A 
ATOM      3  C   UNL     1       0.485  10.131  22.399  0.00  0.00    +0.000 A 
ATOM      4  N   UNL     1       1.303   9.144  21.996  0.00  0.00    +0.000 NA
ATOM      5  C   UNL     1       1.181   8.755  20.716  0.00  0.00    +0.000 A 
ATOM      6  N   UNL     1       2.075   7.759  20.337  0.00  0.00    +0.000 N 
ATOM      7  C   UNL     1       2.233   7.307  19.049  0.00  0.00    +0.000 C 
ATOM      8  O   UNL     1       1.685   7.772  18.058  0.00  0.00    +0.000 OA
ATOM      9  N   UNL     1       0.281   9.250  19.851  0.00  0.00    +0.000 NA
ATOM     10  H   UNL     1       2.659   7.434  21.091  0.00  0.00    +0.000 HD
ENDROOT
BRANCH   1  23
ATOM     11  O   UNL     1      -2.581  10.518  15.144  0.00  0.00    +0.000 OA
ATOM     12  C   UNL     1      -3.232  10.942  16.092  0.00  0.00    +0.000 C 
ATOM     13  N   UNL     1      -4.571  11.217  15.972  0.00  0.00    +0.000 N 
ATOM     14  C   UNL     1      -5.299  12.063  16.905  0.00  0.00    +0.000 C 
ATOM     15  C   UNL     1      -4.901  11.965  18.428  0.00  0.00    +0.000 C 
ATOM     16  C   UNL     1      -5.616  10.815  19.165  0.00  0.00    +0.000 C 
ATOM     17  C   UNL     1      -7.107  10.993  19.430  0.00  0.00    +0.000 C 
ATOM     18  N   UNL     1      -7.621  12.339  19.631  0.00  0.00    +0.000 NA
ATOM     19  C   UNL     1      -6.875  13.435  19.038  0.00  0.00    +0.000 C 
ATOM     20  C   UNL     1      -5.343  13.285  19.090  0.00  0.00    +0.000 C 
ATOM     21  C   UNL     1      -3.405  11.642  18.491  0.00  0.00    +0.000 A 
ATOM     22  N   UNL     1      -2.618  11.484  19.623  0.00  0.00    +0.000 N 
ATOM     23  C   UNL     1      -1.461  10.780  19.303  0.00  0.00    +0.000 A 
ATOM     24  C   UNL     1      -1.454  10.650  17.924  0.00  0.00    +0.000 A 
ATOM     25  C   UNL     1      -2.689  11.122  17.424  0.00  0.00    +0.000 A 
ATOM     26  H   UNL     1      -4.888  11.171  15.013  0.00  0.00    +0.000 HD
ATOM     27  H   UNL     1      -7.821  12.513  20.614  0.00  0.00    +0.000 HD
ATOM     28  H   UNL     1      -2.896  11.670  20.580  0.00  0.00    +0.000 HD
ENDBRANCH   1  23
BRANCH   7  29
ATOM     29  C   UNL     1       3.159   6.137  18.880  0.00  0.00    +0.000 A 
ATOM     30  C   UNL     1       4.292   6.309  18.053  0.00  0.00    +0.000 A 
ATOM     31  C   UNL     1       5.248   5.302  17.955  0.00  0.00    +0.000 A 
ATOM     32  C   UNL     1       5.098   4.133  18.687  0.00  0.00    +0.000 A 
ATOM     33  C   UNL     1       3.982   3.933  19.513  0.00  0.00    +0.000 A 
ATOM     34  C   UNL     1       3.873   2.739  20.248  0.00  0.00    +0.000 A 
ATOM     35  C   UNL     1       2.779   2.503  21.080  0.00  0.00    +0.000 A 
ATOM     36  C   UNL     1       1.772   3.450  21.176  0.00  0.00    +0.000 A 
ATOM     37  C   UNL     1       1.865   4.640  20.446  0.00  0.00    +0.000 A 
ATOM     38  C   UNL     1       2.978   4.931  19.613  0.00  0.00    +0.000 A 
ENDBRANCH   7  29
TORSDOF 2
ENDMDL
MODEL 3
REMARK VINA RESULT:      -9.8      1.043      1.875
REMARK  Name = 
REMARK  2 active torsions:
REMARK  status: ('A' for Active; 'I' for Inactive)
REMARK    1  A    between atoms: C_13  and  C_14
REMARK    2  A    between atoms: C_20  and  C_22
REMARK                            x       y       z     vdW  Elec       q    Type
REMARK                         _______ _______ _______ _____ _____    ______ ____
ROOT
ATOM      1  C   UNL     1      -0.425  10.043  20.237  0.00  0.00    +0.000 A 
ATOM      2  C   UNL     1      -0.370  10.542  21.521  0.00  0.00    +0.000 A 
ATOM      3  C   UNL     1       0.547   9.952  22.360  0.00  0.00    +0.000 A 
ATOM      4  N   UNL     1       1.363   8.954  21.978  0.00  0.00    +0.000 NA
ATOM      5  C   UNL     1       1.262   8.560  20.698  0.00  0.00    +0.000 A 
ATOM      6  N   UNL     1       2.152   7.552  20.342  0.00  0.00    +0.000 N 
ATOM      7  C   UNL     1       2.332   7.092  19.060  0.00  0.00    +0.000 C 
ATOM      8  O   UNL     1       1.808   7.557  18.056  0.00  0.00    +0.000 OA
ATOM      9  N   UNL     1       0.385   9.060  19.813  0.00  0.00    +0.000 NA
ATOM     10  H   UNL     1       2.718   7.225  21.110  0.00  0.00    +0.000 HD
ENDROOT
BRANCH   1  23
ATOM     11  O   UNL     1      -2.352  10.351  15.038  0.00  0.00    +0.000 OA
ATOM     12  C   UNL     1      -3.023  10.778  15.971  0.00  0.00    +0.000 C 
ATOM     13  N   UNL     1      -4.358  11.059  15.820  0.00  0.00    +0.000 N 
ATOM     14  C   UNL     1      -5.104  11.907  16.736  0.00  0.00    +0.000 C 
ATOM     15  C   UNL     1      -4.742  11.806  18.268  0.00  0.00    +0.000 C 
ATOM     16  C   UNL     1      -5.479  10.658  18.987  0.00  0.00    +0.000 C 
ATOM     17  C   UNL     1      -6.975  10.843  19.216  0.00  0.00    +0.000 C 
ATOM     18  N   UNL     1      -7.488  12.191  19.407  0.00  0.00    +0.000 NA
ATOM     19  C   UNL     1      -6.723  13.284  18.832  0.00  0.00    +0.000 C 
ATOM     20  C   UNL     1      -5.194  13.128  18.920  0.00  0.00    +0.000 C 
ATOM     21  C   UNL     1      -3.249  11.476  18.365  0.00  0.00    +0.000 A 
ATOM     22  N   UNL     1      -2.491  11.315  19.515  0.00  0.00    +0.000 N 
ATOM     23  C   UNL     1      -1.329  10.605  19.223  0.00  0.00    +0.000 A 
ATOM     24  C   UNL     1      -1.290  10.476  17.844  0.00  0.00    +0.000 A 
ATOM     25  C   UNL     1      -2.511  10.954  17.315  0.00  0.00    +0.000 A 
ATOM     26  H   UNL     1      -4.652  11.014  14.854  0.00  0.00    +0.000 HD
ATOM     27  H   UNL     1      -7.711  12.365  20.385  0.00  0.00    +0.000 HD
ATOM     28  H   UNL     1      -2.790  11.501  20.466  0.00  0.00    +0.000 HD
ENDBRANCH   1  23
BRANCH   7  29
ATOM     29  C   UNL     1       3.248   5.911  18.915  0.00  0.00    +0.000 A 
ATOM     30  C   UNL     1       3.115   4.856  19.846  0.00  0.00    +0.000 A 
ATOM     31  C   UNL     1       3.851   3.686  19.689  0.00  0.00    +0.000 A 
ATOM     32  C   UNL     1       4.704   3.546  18.604  0.00  0.00    +0.000 A 
ATOM     33  C   UNL     1       4.860   4.577  17.666  0.00  0.00    +0.000 A 
ATOM     34  C   UNL     1       5.725   4.392  16.573  0.00  0.00    +0.000 A 
ATOM     35  C   UNL     1       5.906   5.392  15.620  0.00  0.00    +0.000 A 
ATOM     36  C   UNL     1       5.237   6.599  15.754  0.00  0.00    +0.000 A 
ATOM     37  C   UNL     1       4.376   6.798  16.839  0.00  0.00    +0.000 A 
ATOM     38  C   UNL     1       4.141   5.792  17.814  0.00  0.00    +0.000 A 
ENDBRANCH   7  29
TORSDOF 2
ENDMDL
MODEL 4
REMARK VINA RESULT:      -9.7      1.273      1.457
REMARK  Name = 
REMARK  2 active torsions:
REMARK  status: ('A' for Active; 'I' for Inactive)
REMARK    1  A    between atoms: C_13  and  C_14
REMARK    2  A    between atoms: C_20  and  C_22
REMARK                            x       y       z     vdW  Elec       q    Type
REMARK                         _______ _______ _______ _____ _____    ______ ____
ROOT
ATOM      1  C   UNL     1      -0.381  10.120  20.714  0.00  0.00    +0.000 A 
ATOM      2  C   UNL     1      -0.189  10.184  22.078  0.00  0.00    +0.000 A 
ATOM      3  C   UNL     1       0.810   9.387  22.585  0.00  0.00    +0.000 A 
ATOM      4  N   UNL     1       1.577   8.588  21.823  0.00  0.00    +0.000 NA
ATOM      5  C   UNL     1       1.340   8.619  20.502  0.00  0.00    +0.000 A 
ATOM      6  N   UNL     1       2.184   7.806  19.753  0.00  0.00    +0.000 N 
ATOM      7  C   UNL     1       2.225   7.784  18.380  0.00  0.00    +0.000 C 
ATOM      8  O   UNL     1       1.599   8.529  17.636  0.00  0.00    +0.000 OA
ATOM      9  N   UNL     1       0.375   9.348  19.917  0.00  0.00    +0.000 NA
ATOM     10  H   UNL     1       2.827   7.269  20.314  0.00  0.00    +0.000 HD
ENDROOT
BRANCH   1  23
ATOM     11  O   UNL     1      -3.956  11.039  16.565  0.00  0.00    +0.000 OA
ATOM     12  C   UNL     1      -4.055  11.666  17.614  0.00  0.00    +0.000 C 
ATOM     13  N   UNL     1      -5.190  12.372  17.919  0.00  0.00    +0.000 N 
ATOM     14  C   UNL     1      -5.231  13.421  18.925  0.00  0.00    +0.000 C 
ATOM     15  C   UNL     1      -4.361  13.209  20.224  0.00  0.00    +0.000 C 
ATOM     16  C   UNL     1      -5.080  12.371  21.301  0.00  0.00    +0.000 C 
ATOM     17  C   UNL     1      -6.240  13.041  22.028  0.00  0.00    +0.000 C 
ATOM     18  N   UNL     1      -6.203  14.484  22.216  0.00  0.00    +0.000 NA
ATOM     19  C   UNL     1      -5.422  15.261  21.270  0.00  0.00    +0.000 C 
ATOM     20  C   UNL     1      -4.102  14.607  20.820  0.00  0.00    +0.000 C 
ATOM     21  C   UNL     1      -3.123  12.404  19.819  0.00  0.00    +0.000 A 
ATOM     22  N   UNL     1      -2.071  12.002  20.628  0.00  0.00    +0.000 N 
ATOM     23  C   UNL     1      -1.386  10.947  20.030  0.00  0.00    +0.000 A 
ATOM     24  C   UNL     1      -1.919  10.810  18.759  0.00  0.00    +0.000 A 
ATOM     25  C   UNL     1      -3.040  11.665  18.649  0.00  0.00    +0.000 A 
ATOM     26  H   UNL     1      -5.830  12.426  17.138  0.00  0.00    +0.000 HD
ATOM     27  H   UNL     1      -5.970  14.723  23.178  0.00  0.00    +0.000 HD
ATOM     28  H   UNL     1      -1.911  12.278  21.591  0.00  0.00    +0.000 HD
ENDBRANCH   1  23
BRANCH   7  29
ATOM     29  C   UNL     1       3.116   6.740  17.772  0.00  0.00    +0.000 A 
ATOM     30  C   UNL     1       4.351   7.163  17.230  0.00  0.00    +0.000 A 
ATOM     31  C   UNL     1       5.270   6.228  16.764  0.00  0.00    +0.000 A 
ATOM     32  C   UNL     1       4.981   4.874  16.850  0.00  0.00    +0.000 A 
ATOM     33  C   UNL     1       3.763   4.424  17.379  0.00  0.00    +0.000 A 
ATOM     34  C   UNL     1       3.513   3.043  17.460  0.00  0.00    +0.000 A 
ATOM     35  C   UNL     1       2.315   2.556  17.980  0.00  0.00    +0.000 A 
ATOM     36  C   UNL     1       1.343   3.444  18.412  0.00  0.00    +0.000 A 
ATOM     37  C   UNL     1       1.576   4.821  18.333  0.00  0.00    +0.000 A 
ATOM     38  C   UNL     1       2.796   5.356  17.838  0.00  0.00    +0.000 A 
ENDBRANCH   7  29
TORSDOF 2
ENDMDL
MODEL 5
REMARK VINA RESULT:      -9.2      3.967      9.943
REMARK  Name = 
REMARK  2 active torsions:
REMARK  status: ('A' for Active; 'I' for Inactive)
REMARK    1  A    between atoms: C_13  and  C_14
REMARK    2  A    between atoms: C_20  and  C_22
REMARK                            x       y       z     vdW  Elec       q    Type
REMARK                         _______ _______ _______ _____ _____    ______ ____
ROOT
ATOM      1  C   UNL     1       1.685   8.311  19.857  0.00  0.00    +0.000 A 
ATOM      2  C   UNL     1       1.131   7.842  21.030  0.00  0.00    +0.000 A 
ATOM      3  C   UNL     1       0.514   8.781  21.824  0.00  0.00    +0.000 A 
ATOM      4  N   UNL     1       0.431  10.083  21.501  0.00  0.00    +0.000 NA
ATOM      5  C   UNL     1       0.968  10.439  20.323  0.00  0.00    +0.000 A 
ATOM      6  N   UNL     1       0.823  11.788  20.017  0.00  0.00    +0.000 N 
ATOM      7  C   UNL     1       1.162  12.352  18.810  0.00  0.00    +0.000 C 
ATOM      8  O   UNL     1       1.548  11.741  17.822  0.00  0.00    +0.000 OA
ATOM      9  N   UNL     1       1.607   9.601  19.492  0.00  0.00    +0.000 NA
ATOM     10  H   UNL     1       0.375  12.321  20.746  0.00  0.00    +0.000 HD
ENDROOT
BRANCH   1  23
ATOM     11  O   UNL     1       5.482   7.278  15.938  0.00  0.00    +0.000 OA
ATOM     12  C   UNL     1       4.952   6.353  16.543  0.00  0.00    +0.000 C 
ATOM     13  N   UNL     1       5.471   5.083  16.502  0.00  0.00    +0.000 N 
ATOM     14  C   UNL     1       4.709   3.897  16.859  0.00  0.00    +0.000 C 
ATOM     15  C   UNL     1       3.692   4.027  18.057  0.00  0.00    +0.000 C 
ATOM     16  C   UNL     1       4.353   3.818  19.435  0.00  0.00    +0.000 C 
ATOM     17  C   UNL     1       4.782   2.396  19.779  0.00  0.00    +0.000 C 
ATOM     18  N   UNL     1       4.019   1.286  19.228  0.00  0.00    +0.000 NA
ATOM     19  C   UNL     1       3.295   1.524  17.991  0.00  0.00    +0.000 C 
ATOM     20  C   UNL     1       2.641   2.914  17.873  0.00  0.00    +0.000 C 
ATOM     21  C   UNL     1       3.163   5.465  18.056  0.00  0.00    +0.000 A 
ATOM     22  N   UNL     1       2.232   6.027  18.917  0.00  0.00    +0.000 N 
ATOM     23  C   UNL     1       2.339   7.415  18.893  0.00  0.00    +0.000 A 
ATOM     24  C   UNL     1       3.232   7.717  17.878  0.00  0.00    +0.000 A 
ATOM     25  C   UNL     1       3.795   6.512  17.403  0.00  0.00    +0.000 A 
ATOM     26  H   UNL     1       6.214   4.995  15.823  0.00  0.00    +0.000 HD
ATOM     27  H   UNL     1       3.421   0.863  19.935  0.00  0.00    +0.000 HD
ATOM     28  H   UNL     1       1.679   5.535  19.610  0.00  0.00    +0.000 HD
ENDBRANCH   1  23
BRANCH   7  29
ATOM     29  C   UNL     1       1.045  13.847  18.734  0.00  0.00    +0.000 A 
ATOM     30  C   UNL     1      -0.230  14.419  18.943  0.00  0.00    +0.000 A 
ATOM     31  C   UNL     1      -0.378  15.801  19.005  0.00  0.00    +0.000 A 
ATOM     32  C   UNL     1       0.735  16.621  18.882  0.00  0.00    +0.000 A 
ATOM     33  C   UNL     1       2.012  16.083  18.670  0.00  0.00    +0.000 A 
ATOM     34  C   UNL     1       3.116  16.946  18.563  0.00  0.00    +0.000 A 
ATOM     35  C   UNL     1       4.402  16.450  18.353  0.00  0.00    +0.000 A 
ATOM     36  C   UNL     1       4.600  15.084  18.232  0.00  0.00    +0.000 A 
ATOM     37  C   UNL     1       3.510  14.213  18.332  0.00  0.00    +0.000 A 
ATOM     38  C   UNL     1       2.189  14.677  18.577  0.00  0.00    +0.000 A 
ENDBRANCH   7  29
TORSDOF 2
ENDMDL
MODEL 6
REMARK VINA RESULT:      -9.2      4.128      6.160
REMARK  Name = 
REMARK  2 active torsions:
REMARK  status: ('A' for Active; 'I' for Inactive)
REMARK    1  A    between atoms: C_13  and  C_14
REMARK    2  A    between atoms: C_20  and  C_22
REMARK                            x       y       z     vdW  Elec       q    Type
REMARK                         _______ _______ _______ _____ _____    ______ ____
ROOT
ATOM      1  C   UNL     1       0.207  11.143  21.160  0.00  0.00    +0.000 A 
ATOM      2  C   UNL     1      -0.494  11.280  22.340  0.00  0.00    +0.000 A 
ATOM      3  C   UNL     1      -0.708  10.124  23.054  0.00  0.00    +0.000 A 
ATOM      4  N   UNL     1      -0.266   8.918  22.656  0.00  0.00    +0.000 NA
ATOM      5  C   UNL     1       0.437   8.889  21.513  0.00  0.00    +0.000 A 
ATOM      6  N   UNL     1       0.905   7.626  21.165  0.00  0.00    +0.000 N 
ATOM      7  C   UNL     1       1.763   7.375  20.122  0.00  0.00    +0.000 C 
ATOM      8  O   UNL     1       2.299   8.224  19.420  0.00  0.00    +0.000 OA
ATOM      9  N   UNL     1       0.679   9.959  20.739  0.00  0.00    +0.000 NA
ATOM     10  H   UNL     1       0.609   6.899  21.797  0.00  0.00    +0.000 HD
ENDROOT
BRANCH   1  23
ATOM     11  O   UNL     1      -0.896  16.184  19.106  0.00  0.00    +0.000 OA
ATOM     12  C   UNL     1       0.247  15.741  19.074  0.00  0.00    +0.000 C 
ATOM     13  N   UNL     1       1.321  16.556  18.822  0.00  0.00    +0.000 N 
ATOM     14  C   UNL     1       2.618  16.058  18.394  0.00  0.00    +0.000 C 
ATOM     15  C   UNL     1       3.109  14.695  19.018  0.00  0.00    +0.000 C 
ATOM     16  C   UNL     1       3.808  14.873  20.381  0.00  0.00    +0.000 C 
ATOM     17  C   UNL     1       5.191  15.515  20.362  0.00  0.00    +0.000 C 
ATOM     18  N   UNL     1       6.038  15.307  19.198  0.00  0.00    +0.000 NA
ATOM     19  C   UNL     1       5.379  15.016  17.936  0.00  0.00    +0.000 C 
ATOM     20  C   UNL     1       4.143  14.103  18.040  0.00  0.00    +0.000 C 
ATOM     21  C   UNL     1       1.866  13.842  19.290  0.00  0.00    +0.000 A 
ATOM     22  N   UNL     1       1.816  12.559  19.815  0.00  0.00    +0.000 N 
ATOM     23  C   UNL     1       0.544  12.299  20.317  0.00  0.00    +0.000 A 
ATOM     24  C   UNL     1      -0.247  13.373  19.942  0.00  0.00    +0.000 A 
ATOM     25  C   UNL     1       0.583  14.361  19.365  0.00  0.00    +0.000 A 
ATOM     26  H   UNL     1       1.039  17.483  18.532  0.00  0.00    +0.000 HD
ATOM     27  H   UNL     1       6.778  14.636  19.396  0.00  0.00    +0.000 HD
ATOM     28  H   UNL     1       2.607  11.951  19.996  0.00  0.00    +0.000 HD
ENDBRANCH   1  23
BRANCH   7  29
ATOM     29  C   UNL     1       2.040   5.927  19.840  0.00  0.00    +0.000 A 
ATOM     30  C   UNL     1       1.304   4.963  20.565  0.00  0.00    +0.000 A 
ATOM     31  C   UNL     1       1.430   3.611  20.261  0.00  0.00    +0.000 A 
ATOM     32  C   UNL     1       2.266   3.209  19.230  0.00  0.00    +0.000 A 
ATOM     33  C   UNL     1       3.013   4.142  18.496  0.00  0.00    +0.000 A 
ATOM     34  C   UNL     1       3.840   3.696  17.450  0.00  0.00    +0.000 A 
ATOM     35  C   UNL     1       4.596   4.592  16.697  0.00  0.00    +0.000 A 
ATOM     36  C   UNL     1       4.549   5.946  16.989  0.00  0.00    +0.000 A 
ATOM     37  C   UNL     1       3.734   6.404  18.030  0.00  0.00    +0.000 A 
ATOM     38  C   UNL     1       2.924   5.526  18.800  0.00  0.00    +0.000 A 
ENDBRANCH   7  29
TORSDOF 2
ENDMDL
MODEL 7
REMARK VINA RESULT:      -9.0      4.150      6.211
REMARK  Name = 
REMARK  2 active torsions:
REMARK  status: ('A' for Active; 'I' for Inactive)
REMARK    1  A    between atoms: C_13  and  C_14
REMARK    2  A    between atoms: C_20  and  C_22
REMARK                            x       y       z     vdW  Elec       q    Type
REMARK                         _______ _______ _______ _____ _____    ______ ____
ROOT
ATOM      1  C   UNL     1       0.741  10.774  20.412  0.00  0.00    +0.000 A 
ATOM      2  C   UNL     1       0.078  10.671  21.616  0.00  0.00    +0.000 A 
ATOM      3  C   UNL     1      -0.040   9.402  22.134  0.00  0.00    +0.000 A 
ATOM      4  N   UNL     1       0.457   8.308  21.532  0.00  0.00    +0.000 NA
ATOM      5  C   UNL     1       1.118   8.512  20.381  0.00  0.00    +0.000 A 
ATOM      6  N   UNL     1       1.646   7.356  19.816  0.00  0.00    +0.000 N 
ATOM      7  C   UNL     1       2.478   7.335  18.723  0.00  0.00    +0.000 C 
ATOM      8  O   UNL     1       2.936   8.320  18.157  0.00  0.00    +0.000 OA
ATOM      9  N   UNL     1       1.267   9.707  19.788  0.00  0.00    +0.000 NA
ATOM     10  H   UNL     1       1.417   6.518  20.327  0.00  0.00    +0.000 HD
ENDROOT
BRANCH   1  23
ATOM     11  O   UNL     1      -0.837  15.925  19.061  0.00  0.00    +0.000 OA
ATOM     12  C   UNL     1       0.347  15.611  19.020  0.00  0.00    +0.000 C 
ATOM     13  N   UNL     1       1.334  16.561  18.940  0.00  0.00    +0.000 N 
ATOM     14  C   UNL     1       2.691  16.268  18.506  0.00  0.00    +0.000 C 
ATOM     15  C   UNL     1       3.307  14.885  18.949  0.00  0.00    +0.000 C 
ATOM     16  C   UNL     1       3.938  14.928  20.355  0.00  0.00    +0.000 C 
ATOM     17  C   UNL     1       5.243  15.704  20.496  0.00  0.00    +0.000 C 
ATOM     18  N   UNL     1       6.144  15.762  19.355  0.00  0.00    +0.000 NA
ATOM     19  C   UNL     1       5.562  15.596  18.035  0.00  0.00    +0.000 C 
ATOM     20  C   UNL     1       4.430  14.556  17.946  0.00  0.00    +0.000 C 
ATOM     21  C   UNL     1       2.155  13.878  19.034  0.00  0.00    +0.000 A 
ATOM     22  N   UNL     1       2.229  12.533  19.365  0.00  0.00    +0.000 N 
ATOM     23  C   UNL     1       0.977  12.072  19.762  0.00  0.00    +0.000 A 
ATOM     24  C   UNL     1       0.086  13.102  19.510  0.00  0.00    +0.000 A 
ATOM     25  C   UNL     1       0.822  14.246  19.123  0.00  0.00    +0.000 A 
ATOM     26  H   UNL     1       0.963  17.487  18.775  0.00  0.00    +0.000 HD
ATOM     27  H   UNL     1       6.946  15.148  19.488  0.00  0.00    +0.000 HD
ATOM     28  H   UNL     1       3.075  11.989  19.493  0.00  0.00    +0.000 HD
ENDBRANCH   1  23
BRANCH   7  29
ATOM     29  C   UNL     1       2.830   5.973  18.198  0.00  0.00    +0.000 A 
ATOM     30  C   UNL     1       1.846   4.961  18.279  0.00  0.00    +0.000 A 
ATOM     31  C   UNL     1       2.071   3.716  17.701  0.00  0.00    +0.000 A 
ATOM     32  C   UNL     1       3.257   3.472  17.025  0.00  0.00    +0.000 A 
ATOM     33  C   UNL     1       4.254   4.454  16.931  0.00  0.00    +0.000 A 
ATOM     34  C   UNL     1       5.438   4.173  16.227  0.00  0.00    +0.000 A 
ATOM     35  C   UNL     1       6.451   5.123  16.111  0.00  0.00    +0.000 A 
ATOM     36  C   UNL     1       6.302   6.363  16.711  0.00  0.00    +0.000 A 
ATOM     37  C   UNL     1       5.131   6.656  17.419  0.00  0.00    +0.000 A 
ATOM     38  C   UNL     1       4.063   5.726  17.533  0.00  0.00    +0.000 A 
ENDBRANCH   7  29
TORSDOF 2
ENDMDL
MODEL 8
REMARK VINA RESULT:      -8.9      3.793      5.367
REMARK  Name = 
REMARK  2 active torsions:
REMARK  status: ('A' for Active; 'I' for Inactive)
REMARK    1  A    between atoms: C_13  and  C_14
REMARK    2  A    between atoms: C_20  and  C_22
REMARK                            x       y       z     vdW  Elec       q    Type
REMARK                         _______ _______ _______ _____ _____    ______ ____
ROOT
ATOM      1  C   UNL     1       0.681  10.378  20.615  0.00  0.00    +0.000 A 
ATOM      2  C   UNL     1       0.245  10.036  21.877  0.00  0.00    +0.000 A 
ATOM      3  C   UNL     1       0.486   8.739  22.269  0.00  0.00    +0.000 A 
ATOM      4  N   UNL     1       1.115   7.838  21.495  0.00  0.00    +0.000 NA
ATOM      5  C   UNL     1       1.535   8.273  20.296  0.00  0.00    +0.000 A 
ATOM      6  N   UNL     1       2.212   7.316  19.549  0.00  0.00    +0.000 N 
ATOM      7  C   UNL     1       2.855   7.569  18.361  0.00  0.00    +0.000 C 
ATOM      8  O   UNL     1       2.996   8.672  17.848  0.00  0.00    +0.000 OA
ATOM      9  N   UNL     1       1.328   9.511  19.819  0.00  0.00    +0.000 NA
ATOM     10  H   UNL     1       2.252   6.412  19.994  0.00  0.00    +0.000 HD
ENDROOT
BRANCH   1  23
ATOM     11  O   UNL     1      -2.021  15.218  20.268  0.00  0.00    +0.000 OA
ATOM     12  C   UNL     1      -0.849  15.139  19.916  0.00  0.00    +0.000 C 
ATOM     13  N   UNL     1      -0.086  16.262  19.718  0.00  0.00    +0.000 N 
ATOM     14  C   UNL     1       1.149  16.263  18.950  0.00  0.00    +0.000 C 
ATOM     15  C   UNL     1       2.077  14.994  19.076  0.00  0.00    +0.000 C 
ATOM     16  C   UNL     1       3.023  15.057  20.292  0.00  0.00    +0.000 C 
ATOM     17  C   UNL     1       4.174  16.055  20.213  0.00  0.00    +0.000 C 
ATOM     18  N   UNL     1       4.739  16.363  18.908  0.00  0.00    +0.000 NA
ATOM     19  C   UNL     1       3.881  16.183  17.750  0.00  0.00    +0.000 C 
ATOM     20  C   UNL     1       2.953  14.955  17.808  0.00  0.00    +0.000 C 
ATOM     21  C   UNL     1       1.168  13.783  19.311  0.00  0.00    +0.000 A 
ATOM     22  N   UNL     1       1.546  12.457  19.459  0.00  0.00    +0.000 N 
ATOM     23  C   UNL     1       0.527  11.739  20.081  0.00  0.00    +0.000 A 
ATOM     24  C   UNL     1      -0.557  12.597  20.163  0.00  0.00    +0.000 A 
ATOM     25  C   UNL     1      -0.143  13.884  19.749  0.00  0.00    +0.000 A 
ATOM     26  H   UNL     1      -0.636  17.109  19.751  0.00  0.00    +0.000 HD
ATOM     27  H   UNL     1       5.639  15.905  18.780  0.00  0.00    +0.000 HD
ATOM     28  H   UNL     1       2.475  12.075  19.323  0.00  0.00    +0.000 HD
ENDBRANCH   1  23
BRANCH   7  29
ATOM     29  C   UNL     1       3.413   6.367  17.654  0.00  0.00    +0.000 A 
ATOM     30  C   UNL     1       4.579   6.544  16.876  0.00  0.00    +0.000 A 
ATOM     31  C   UNL     1       5.210   5.446  16.298  0.00  0.00    +0.000 A 
ATOM     32  C   UNL     1       4.703   4.172  16.503  0.00  0.00    +0.000 A 
ATOM     33  C   UNL     1       3.546   3.965  17.267  0.00  0.00    +0.000 A 
ATOM     34  C   UNL     1       3.070   2.656  17.461  0.00  0.00    +0.000 A 
ATOM     35  C   UNL     1       1.923   2.410  18.215  0.00  0.00    +0.000 A 
ATOM     36  C   UNL     1       1.226   3.471  18.771  0.00  0.00    +0.000 A 
ATOM     37  C   UNL     1       1.685   4.779  18.581  0.00  0.00    +0.000 A 
ATOM     38  C   UNL     1       2.866   5.068  17.847  0.00  0.00    +0.000 A 
ENDBRANCH   7  29
TORSDOF 2
ENDMDL
MODEL 9
REMARK VINA RESULT:      -8.6      4.223      6.016
REMARK  Name = 
REMARK  2 active torsions:
REMARK  status: ('A' for Active; 'I' for Inactive)
REMARK    1  A    between atoms: C_13  and  C_14
REMARK    2  A    between atoms: C_20  and  C_22
REMARK                            x       y       z     vdW  Elec       q    Type
REMARK                         _______ _______ _______ _____ _____    ______ ____
ROOT
ATOM      1  C   UNL     1       0.698  10.852  20.437  0.00  0.00    +0.000 A 
ATOM      2  C   UNL     1      -0.018  10.762  21.611  0.00  0.00    +0.000 A 
ATOM      3  C   UNL     1      -0.153   9.500  22.142  0.00  0.00    +0.000 A 
ATOM      4  N   UNL     1       0.378   8.401  21.578  0.00  0.00    +0.000 NA
ATOM      5  C   UNL     1       1.090   8.592  20.456  0.00  0.00    +0.000 A 
ATOM      6  N   UNL     1       1.650   7.432  19.933  0.00  0.00    +0.000 N 
ATOM      7  C   UNL     1       2.532   7.401  18.879  0.00  0.00    +0.000 C 
ATOM      8  O   UNL     1       3.009   8.380  18.321  0.00  0.00    +0.000 OA
ATOM      9  N   UNL     1       1.259   9.780  19.853  0.00  0.00    +0.000 NA
ATOM     10  H   UNL     1       1.403   6.599  20.445  0.00  0.00    +0.000 HD
ENDROOT
BRANCH   1  23
ATOM     11  O   UNL     1      -0.807  16.009  19.027  0.00  0.00    +0.000 OA
ATOM     12  C   UNL     1       0.374  15.682  19.003  0.00  0.00    +0.000 C 
ATOM     13  N   UNL     1       1.373  16.620  18.927  0.00  0.00    +0.000 N 
ATOM     14  C   UNL     1       2.731  16.310  18.512  0.00  0.00    +0.000 C 
ATOM     15  C   UNL     1       3.326  14.923  18.973  0.00  0.00    +0.000 C 
ATOM     16  C   UNL     1       3.941  14.971  20.386  0.00  0.00    +0.000 C 
ATOM     17  C   UNL     1       5.253  15.734  20.537  0.00  0.00    +0.000 C 
ATOM     18  N   UNL     1       6.168  15.772  19.407  0.00  0.00    +0.000 NA
ATOM     19  C   UNL     1       5.600  15.603  18.081  0.00  0.00    +0.000 C 
ATOM     20  C   UNL     1       4.457  14.574  17.986  0.00  0.00    +0.000 C 
ATOM     21  C   UNL     1       2.163  13.929  19.052  0.00  0.00    +0.000 A 
ATOM     22  N   UNL     1       2.218  12.586  19.394  0.00  0.00    +0.000 N 
ATOM     23  C   UNL     1       0.956  12.142  19.780  0.00  0.00    +0.000 A 
ATOM     24  C   UNL     1       0.080  13.180  19.510  0.00  0.00    +0.000 A 
ATOM     25  C   UNL     1       0.833  14.312  19.122  0.00  0.00    +0.000 A 
ATOM     26  H   UNL     1       1.013  17.549  18.751  0.00  0.00    +0.000 HD
ATOM     27  H   UNL     1       6.962  15.152  19.554  0.00  0.00    +0.000 HD
ATOM     28  H   UNL     1       3.056  12.034  19.537  0.00  0.00    +0.000 HD
ENDBRANCH   1  23
BRANCH   7  29
ATOM     29  C   UNL     1       2.915   6.034  18.391  0.00  0.00    +0.000 A 
ATOM     30  C   UNL     1       3.860   5.949  17.344  0.00  0.00    +0.000 A 
ATOM     31  C   UNL     1       4.344   4.711  16.934  0.00  0.00    +0.000 A 
ATOM     32  C   UNL     1       3.912   3.556  17.569  0.00  0.00    +0.000 A 
ATOM     33  C   UNL     1       2.972   3.607  18.608  0.00  0.00    +0.000 A 
ATOM     34  C   UNL     1       2.569   2.415  19.235  0.00  0.00    +0.000 A 
ATOM     35  C   UNL     1       1.637   2.425  20.272  0.00  0.00    +0.000 A 
ATOM     36  C   UNL     1       1.084   3.626  20.687  0.00  0.00    +0.000 A 
ATOM     37  C   UNL     1       1.473   4.820  20.069  0.00  0.00    +0.000 A 
ATOM     38  C   UNL     1       2.442   4.854  19.031  0.00  0.00    +0.000 A 
ENDBRANCH   7  29
TORSDOF 2
ENDMDL
