MODEL 1
REMARK VINA RESULT:      -7.3      0.000      0.000
REMARK  Name = 
REMARK  5 active torsions:
REMARK  status: ('A' for Active; 'I' for Inactive)
REMARK    1  A    between atoms: C_2  and  C_3
REMARK    2  A    between atoms: C_3  and  C_4
REMARK    3  A    between atoms: N_12  and  C_13
REMARK    4  A    between atoms: C_13  and  C_14
REMARK    5  A    between atoms: N_23  and  O_24
REMARK                            x       y       z     vdW  Elec       q    Type
REMARK                         _______ _______ _______ _____ _____    ______ ____
ROOT
ATOM      1  C   UNL     1       4.464   4.655  17.103  0.00  0.00    +0.000 C 
ATOM      2  S   UNL     1       2.958   3.660  16.863  0.00  0.00    +0.000 S 
ATOM      3  C   UNL     1       2.371   3.791  18.542  0.00  0.00    +0.000 A 
ATOM      4  C   UNL     1       1.746   2.665  19.093  0.00  0.00    +0.000 A 
ATOM      5  C   UNL     1       1.349   2.667  20.426  0.00  0.00    +0.000 A 
ATOM      6  C   UNL     1       1.543   3.808  21.198  0.00  0.00    +0.000 A 
ATOM      7  C   UNL     1       2.133   4.949  20.641  0.00  0.00    +0.000 A 
ATOM      8  C   UNL     1       2.580   4.956  19.310  0.00  0.00    +0.000 A 
ATOM      9  N   UNL     1       3.259   6.098  18.757  0.00  0.00    +0.000 N 
ATOM     10  C   UNL     1       4.063   6.030  17.618  0.00  0.00    +0.000 C 
ATOM     11  O   UNL     1       4.537   7.043  17.094  0.00  0.00    +0.000 OA
ENDROOT
BRANCH   1  12
ATOM     12  C   UNL     1       5.434   3.945  18.050  0.00  0.00    +0.000 C 
BRANCH  12  14
ATOM     13  O   UNL     1       7.540   4.788  17.259  0.00  0.00    +0.000 OA
ATOM     14  C   UNL     1       6.731   4.701  18.176  0.00  0.00    +0.000 C 
ATOM     15  N   UNL     1       6.970   5.236  19.428  0.00  0.00    +0.000 N 
ATOM     16  H   UNL     1       6.209   5.621  19.990  0.00  0.00    +0.000 HD
BRANCH  15  17
ATOM     17  O   UNL     1       8.199   5.938  19.523  0.00  0.00    +0.000 OA
ATOM     18  H   UNL     1       8.732   5.533  18.806  0.00  0.00    +0.000 HD
ENDBRANCH  15  17
ENDBRANCH  12  14
ENDBRANCH   1  12
BRANCH   9  19
ATOM     19  C   UNL     1       3.139   7.418  19.384  0.00  0.00    +0.000 C 
BRANCH  19  20
ATOM     20  C   UNL     1       1.898   8.190  18.899  0.00  0.00    +0.000 C 
ATOM     21  O   UNL     1       1.638   8.315  17.699  0.00  0.00    +0.000 OA
ATOM     22  N   UNL     1       1.168   8.826  19.890  0.00  0.00    +0.000 N 
ATOM     23  C   UNL     1       0.128   9.790  19.591  0.00  0.00    +0.000 C 
ATOM     24  C   UNL     1      -0.077  10.501  20.920  0.00  0.00    +0.000 C 
ATOM     25  C   UNL     1       0.129   9.394  21.949  0.00  0.00    +0.000 C 
ATOM     26  C   UNL     1       1.106   8.425  21.287  0.00  0.00    +0.000 C 
ENDBRANCH  19  20
ENDBRANCH   9  19
TORSDOF 5
ENDMDL
MODEL 2
REMARK VINA RESULT:      -7.3      1.498      1.838
REMARK  Name = 
REMARK  5 active torsions:
REMARK  status: ('A' for Active; 'I' for Inactive)
REMARK    1  A    between atoms: C_2  and  C_3
REMARK    2  A    between atoms: C_3  and  C_4
REMARK    3  A    between atoms: N_12  and  C_13
REMARK    4  A    between atoms: C_13  and  C_14
REMARK    5  A    between atoms: N_23  and  O_24
REMARK                            x       y       z     vdW  Elec       q    Type
REMARK                         _______ _______ _______ _____ _____    ______ ____
ROOT
ATOM      1  C   UNL     1       5.442   5.188  17.369  0.00  0.00    +0.000 C 
ATOM      2  S   UNL     1       4.838   3.743  16.439  0.00  0.00    +0.000 S 
ATOM      3  C   UNL     1       3.366   3.489  17.414  0.00  0.00    +0.000 A 
ATOM      4  C   UNL     1       2.973   2.165  17.651  0.00  0.00    +0.000 A 
ATOM      5  C   UNL     1       1.889   1.895  18.479  0.00  0.00    +0.000 A 
ATOM      6  C   UNL     1       1.175   2.948  19.041  0.00  0.00    +0.000 A 
ATOM      7  C   UNL     1       1.541   4.273  18.777  0.00  0.00    +0.000 A 
ATOM      8  C   UNL     1       2.656   4.571  17.978  0.00  0.00    +0.000 A 
ATOM      9  N   UNL     1       3.083   5.928  17.769  0.00  0.00    +0.000 N 
ATOM     10  C   UNL     1       4.369   6.267  17.344  0.00  0.00    +0.000 C 
ATOM     11  O   UNL     1       4.675   7.428  17.056  0.00  0.00    +0.000 OA
ENDROOT
BRANCH   1  12
ATOM     12  C   UNL     1       5.824   4.789  18.796  0.00  0.00    +0.000 C 
BRANCH  12  14
ATOM     13  O   UNL     1       7.569   5.335  20.354  0.00  0.00    +0.000 OA
ATOM     14  C   UNL     1       7.030   5.556  19.276  0.00  0.00    +0.000 C 
ATOM     15  N   UNL     1       7.441   6.572  18.435  0.00  0.00    +0.000 N 
ATOM     16  H   UNL     1       7.393   6.467  17.419  0.00  0.00    +0.000 HD
BRANCH  15  17
ATOM     17  O   UNL     1       8.573   7.282  18.910  0.00  0.00    +0.000 OA
ATOM     18  H   UNL     1       8.171   7.951  19.505  0.00  0.00    +0.000 HD
ENDBRANCH  15  17
ENDBRANCH  12  14
ENDBRANCH   1  12
BRANCH   9  19
ATOM     19  C   UNL     1       2.166   7.049  18.006  0.00  0.00    +0.000 C 
BRANCH  19  20
ATOM     20  C   UNL     1       2.159   7.503  19.477  0.00  0.00    +0.000 C 
ATOM     21  O   UNL     1       2.724   6.853  20.362  0.00  0.00    +0.000 OA
ATOM     22  N   UNL     1       1.385   8.618  19.752  0.00  0.00    +0.000 N 
ATOM     23  C   UNL     1       1.069   9.030  21.104  0.00  0.00    +0.000 C 
ATOM     24  C   UNL     1      -0.096   9.989  20.910  0.00  0.00    +0.000 C 
ATOM     25  C   UNL     1       0.241  10.695  19.600  0.00  0.00    +0.000 C 
ATOM     26  C   UNL     1       1.051   9.672  18.806  0.00  0.00    +0.000 C 
ENDBRANCH  19  20
ENDBRANCH   9  19
TORSDOF 5
ENDMDL
MODEL 3
REMARK VINA RESULT:      -7.1      3.124      5.189
REMARK  Name = 
REMARK  5 active torsions:
REMARK  status: ('A' for Active; 'I' for Inactive)
REMARK    1  A    between atoms: C_2  and  C_3
REMARK    2  A    between atoms: C_3  and  C_4
REMARK    3  A    between atoms: N_12  and  C_13
REMARK    4  A    between atoms: C_13  and  C_14
REMARK    5  A    between atoms: N_23  and  O_24
REMARK                            x       y       z     vdW  Elec       q    Type
REMARK                         _______ _______ _______ _____ _____    ______ ____
ROOT
ATOM      1  C   UNL     1       6.712   5.788  16.545  0.00  0.00    +0.000 C 
ATOM      2  S   UNL     1       6.316   7.476  17.105  0.00  0.00    +0.000 S 
ATOM      3  C   UNL     1       4.659   7.111  17.657  0.00  0.00    +0.000 A 
ATOM      4  C   UNL     1       3.683   8.095  17.450  0.00  0.00    +0.000 A 
ATOM      5  C   UNL     1       2.354   7.839  17.770  0.00  0.00    +0.000 A 
ATOM      6  C   UNL     1       2.006   6.615  18.333  0.00  0.00    +0.000 A 
ATOM      7  C   UNL     1       2.984   5.644  18.575  0.00  0.00    +0.000 A 
ATOM      8  C   UNL     1       4.325   5.861  18.222  0.00  0.00    +0.000 A 
ATOM      9  N   UNL     1       5.319   4.837  18.396  0.00  0.00    +0.000 N 
ATOM     10  C   UNL     1       6.539   4.832  17.717  0.00  0.00    +0.000 C 
ATOM     11  O   UNL     1       7.423   4.010  17.973  0.00  0.00    +0.000 OA
ENDROOT
BRANCH   1  12
ATOM     12  C   UNL     1       5.839   5.399  15.350  0.00  0.00    +0.000 C 
BRANCH  12  14
ATOM     13  O   UNL     1       7.727   5.275  13.870  0.00  0.00    +0.000 OA
ATOM     14  C   UNL     1       6.663   4.794  14.242  0.00  0.00    +0.000 C 
ATOM     15  N   UNL     1       6.095   3.691  13.634  0.00  0.00    +0.000 N 
ATOM     16  H   UNL     1       5.561   3.007  14.175  0.00  0.00    +0.000 HD
BRANCH  15  17
ATOM     17  O   UNL     1       6.886   3.144  12.592  0.00  0.00    +0.000 OA
ATOM     18  H   UNL     1       6.883   3.861  11.922  0.00  0.00    +0.000 HD
ENDBRANCH  15  17
ENDBRANCH  12  14
ENDBRANCH   1  12
BRANCH   9  19
ATOM     19  C   UNL     1       5.088   3.716  19.315  0.00  0.00    +0.000 C 
BRANCH  19  20
ATOM     20  C   UNL     1       3.975   2.772  18.824  0.00  0.00    +0.000 C 
ATOM     21  O   UNL     1       4.057   2.173  17.747  0.00  0.00    +0.000 OA
ATOM     22  N   UNL     1       2.836   2.734  19.612  0.00  0.00    +0.000 N 
ATOM     23  C   UNL     1       1.610   2.100  19.174  0.00  0.00    +0.000 C 
ATOM     24  C   UNL     1       0.570   2.661  20.132  0.00  0.00    +0.000 C 
ATOM     25  C   UNL     1       1.331   2.782  21.449  0.00  0.00    +0.000 C 
ATOM     26  C   UNL     1       2.782   3.022  21.037  0.00  0.00    +0.000 C 
ENDBRANCH  19  20
ENDBRANCH   9  19
TORSDOF 5
ENDMDL
MODEL 4
REMARK VINA RESULT:      -7.0      3.584      5.212
REMARK  Name = 
REMARK  5 active torsions:
REMARK  status: ('A' for Active; 'I' for Inactive)
REMARK    1  A    between atoms: C_2  and  C_3
REMARK    2  A    between atoms: C_3  and  C_4
REMARK    3  A    between atoms: N_12  and  C_13
REMARK    4  A    between atoms: C_13  and  C_14
REMARK    5  A    between atoms: N_23  and  O_24
REMARK                            x       y       z     vdW  Elec       q    Type
REMARK                         _______ _______ _______ _____ _____    ______ ____
ROOT
ATOM      1  C   UNL     1       5.820   6.681  17.933  0.00  0.00    +0.000 C 
ATOM      2  S   UNL     1       5.064   7.181  16.353  0.00  0.00    +0.000 S 
ATOM      3  C   UNL     1       5.390   5.653  15.492  0.00  0.00    +0.000 A 
ATOM      4  C   UNL     1       5.730   5.740  14.135  0.00  0.00    +0.000 A 
ATOM      5  C   UNL     1       6.088   4.597  13.429  0.00  0.00    +0.000 A 
ATOM      6  C   UNL     1       6.069   3.361  14.067  0.00  0.00    +0.000 A 
ATOM      7  C   UNL     1       5.695   3.264  15.412  0.00  0.00    +0.000 A 
ATOM      8  C   UNL     1       5.370   4.409  16.159  0.00  0.00    +0.000 A 
ATOM      9  N   UNL     1       5.062   4.323  17.560  0.00  0.00    +0.000 N 
ATOM     10  C   UNL     1       5.129   5.417  18.426  0.00  0.00    +0.000 C 
ATOM     11  O   UNL     1       4.744   5.346  19.597  0.00  0.00    +0.000 OA
ENDROOT
BRANCH   1  12
ATOM     12  C   UNL     1       7.329   6.487  17.770  0.00  0.00    +0.000 C 
BRANCH  12  14
ATOM     13  O   UNL     1       8.203   4.378  18.520  0.00  0.00    +0.000 OA
ATOM     14  C   UNL     1       7.873   5.526  18.796  0.00  0.00    +0.000 C 
ATOM     15  N   UNL     1       7.909   6.018  20.087  0.00  0.00    +0.000 N 
ATOM     16  H   UNL     1       8.140   6.996  20.272  0.00  0.00    +0.000 HD
BRANCH  15  17
ATOM     17  O   UNL     1       8.419   5.094  21.035  0.00  0.00    +0.000 OA
ATOM     18  H   UNL     1       9.322   4.914  20.693  0.00  0.00    +0.000 HD
ENDBRANCH  15  17
ENDBRANCH  12  14
ENDBRANCH   1  12
BRANCH   9  19
ATOM     19  C   UNL     1       4.658   3.048  18.164  0.00  0.00    +0.000 C 
BRANCH  19  20
ATOM     20  C   UNL     1       3.134   2.830  18.115  0.00  0.00    +0.000 C 
ATOM     21  O   UNL     1       2.526   2.726  17.046  0.00  0.00    +0.000 OA
ATOM     22  N   UNL     1       2.488   2.875  19.340  0.00  0.00    +0.000 N 
ATOM     23  C   UNL     1       1.045   2.937  19.454  0.00  0.00    +0.000 C 
ATOM     24  C   UNL     1       0.831   3.387  20.891  0.00  0.00    +0.000 C 
ATOM     25  C   UNL     1       1.961   2.698  21.649  0.00  0.00    +0.000 C 
ATOM     26  C   UNL     1       3.089   2.564  20.628  0.00  0.00    +0.000 C 
ENDBRANCH  19  20
ENDBRANCH   9  19
TORSDOF 5
ENDMDL
MODEL 5
REMARK VINA RESULT:      -7.0      0.931      1.181
REMARK  Name = 
REMARK  5 active torsions:
REMARK  status: ('A' for Active; 'I' for Inactive)
REMARK    1  A    between atoms: C_2  and  C_3
REMARK    2  A    between atoms: C_3  and  C_4
REMARK    3  A    between atoms: N_12  and  C_13
REMARK    4  A    between atoms: C_13  and  C_14
REMARK    5  A    between atoms: N_23  and  O_24
REMARK                            x       y       z     vdW  Elec       q    Type
REMARK                         _______ _______ _______ _____ _____    ______ ____
ROOT
ATOM      1  C   UNL     1       4.085   4.699  17.099  0.00  0.00    +0.000 C 
ATOM      2  S   UNL     1       2.580   3.677  17.025  0.00  0.00    +0.000 S 
ATOM      3  C   UNL     1       2.189   3.785  18.762  0.00  0.00    +0.000 A 
ATOM      4  C   UNL     1       1.653   2.643  19.372  0.00  0.00    +0.000 A 
ATOM      5  C   UNL     1       1.413   2.630  20.742  0.00  0.00    +0.000 A 
ATOM      6  C   UNL     1       1.673   3.769  21.496  0.00  0.00    +0.000 A 
ATOM      7  C   UNL     1       2.174   4.924  20.885  0.00  0.00    +0.000 A 
ATOM      8  C   UNL     1       2.464   4.950  19.512  0.00  0.00    +0.000 A 
ATOM      9  N   UNL     1       3.052   6.107  18.894  0.00  0.00    +0.000 N 
ATOM     10  C   UNL     1       3.721   6.063  17.669  0.00  0.00    +0.000 C 
ATOM     11  O   UNL     1       4.112   7.088  17.103  0.00  0.00    +0.000 OA
ENDROOT
BRANCH   1  12
ATOM     12  C   UNL     1       5.171   4.002  17.921  0.00  0.00    +0.000 C 
BRANCH  12  14
ATOM     13  O   UNL     1       7.532   4.413  18.095  0.00  0.00    +0.000 OA
ATOM     14  C   UNL     1       6.546   4.295  17.377  0.00  0.00    +0.000 C 
ATOM     15  N   UNL     1       6.597   4.485  16.009  0.00  0.00    +0.000 N 
ATOM     16  H   UNL     1       6.009   3.937  15.378  0.00  0.00    +0.000 HD
BRANCH  15  17
ATOM     17  O   UNL     1       7.899   4.764  15.521  0.00  0.00    +0.000 OA
ATOM     18  H   UNL     1       7.749   5.548  14.949  0.00  0.00    +0.000 HD
ENDBRANCH  15  17
ENDBRANCH  12  14
ENDBRANCH   1  12
BRANCH   9  19
ATOM     19  C   UNL     1       2.982   7.421  19.542  0.00  0.00    +0.000 C 
BRANCH  19  20
ATOM     20  C   UNL     1       1.739   8.223  19.114  0.00  0.00    +0.000 C 
ATOM     21  O   UNL     1       1.437   8.371  17.926  0.00  0.00    +0.000 OA
ATOM     22  N   UNL     1       1.057   8.857  20.140  0.00  0.00    +0.000 N 
ATOM     23  C   UNL     1       0.025   9.844  19.893  0.00  0.00    +0.000 C 
ATOM     24  C   UNL     1      -0.118  10.539  21.239  0.00  0.00    +0.000 C 
ATOM     25  C   UNL     1       0.104   9.412  22.243  0.00  0.00    +0.000 C 
ATOM     26  C   UNL     1       1.038   8.435  21.532  0.00  0.00    +0.000 C 
ENDBRANCH  19  20
ENDBRANCH   9  19
TORSDOF 5
ENDMDL
MODEL 6
REMARK VINA RESULT:      -6.7      4.095      7.852
REMARK  Name = 
REMARK  5 active torsions:
REMARK  status: ('A' for Active; 'I' for Inactive)
REMARK    1  A    between atoms: C_2  and  C_3
REMARK    2  A    between atoms: C_3  and  C_4
REMARK    3  A    between atoms: N_12  and  C_13
REMARK    4  A    between atoms: C_13  and  C_14
REMARK    5  A    between atoms: N_23  and  O_24
REMARK                            x       y       z     vdW  Elec       q    Type
REMARK                         _______ _______ _______ _____ _____    ______ ____
ROOT
ATOM      1  C   UNL     1      -0.490  13.104  20.079  0.00  0.00    +0.000 C 
ATOM      2  S   UNL     1      -2.309  13.025  20.112  0.00  0.00    +0.000 S 
ATOM      3  C   UNL     1      -2.468  11.730  18.896  0.00  0.00    +0.000 A 
ATOM      4  C   UNL     1      -3.548  11.812  18.007  0.00  0.00    +0.000 A 
ATOM      5  C   UNL     1      -3.677  10.887  16.977  0.00  0.00    +0.000 A 
ATOM      6  C   UNL     1      -2.749   9.858  16.857  0.00  0.00    +0.000 A 
ATOM      7  C   UNL     1      -1.689   9.750  17.764  0.00  0.00    +0.000 A 
ATOM      8  C   UNL     1      -1.513  10.696  18.787  0.00  0.00    +0.000 A 
ATOM      9  N   UNL     1      -0.382  10.635  19.673  0.00  0.00    +0.000 N 
ATOM     10  C   UNL     1       0.063  11.727  20.420  0.00  0.00    +0.000 C 
ATOM     11  O   UNL     1       0.960  11.618  21.263  0.00  0.00    +0.000 OA
ENDROOT
BRANCH   1  12
ATOM     12  C   UNL     1       0.004  13.603  18.719  0.00  0.00    +0.000 C 
BRANCH  12  14
ATOM     13  O   UNL     1       2.116  14.452  19.485  0.00  0.00    +0.000 OA
ATOM     14  C   UNL     1       1.504  13.740  18.697  0.00  0.00    +0.000 C 
ATOM     15  N   UNL     1       2.133  13.052  17.677  0.00  0.00    +0.000 N 
ATOM     16  H   UNL     1       1.796  12.137  17.373  0.00  0.00    +0.000 HD
BRANCH  15  17
ATOM     17  O   UNL     1       3.544  13.201  17.674  0.00  0.00    +0.000 OA
ATOM     18  H   UNL     1       3.694  13.829  18.413  0.00  0.00    +0.000 HD
ENDBRANCH  15  17
ENDBRANCH  12  14
ENDBRANCH   1  12
BRANCH   9  19
ATOM     19  C   UNL     1       0.381   9.392  19.832  0.00  0.00    +0.000 C 
BRANCH  19  20
ATOM     20  C   UNL     1       1.542   9.280  18.826  0.00  0.00    +0.000 C 
ATOM     21  O   UNL     1       1.803  10.188  18.032  0.00  0.00    +0.000 OA
ATOM     22  N   UNL     1       2.189   8.056  18.798  0.00  0.00    +0.000 N 
ATOM     23  C   UNL     1       3.128   7.698  17.755  0.00  0.00    +0.000 C 
ATOM     24  C   UNL     1       3.241   6.187  17.894  0.00  0.00    +0.000 C 
ATOM     25  C   UNL     1       3.138   5.963  19.400  0.00  0.00    +0.000 C 
ATOM     26  C   UNL     1       2.275   7.117  19.906  0.00  0.00    +0.000 C 
ENDBRANCH  19  20
ENDBRANCH   9  19
TORSDOF 5
ENDMDL
MODEL 7
REMARK VINA RESULT:      -6.7      1.060      1.167
REMARK  Name = 
REMARK  5 active torsions:
REMARK  status: ('A' for Active; 'I' for Inactive)
REMARK    1  A    between atoms: C_2  and  C_3
REMARK    2  A    between atoms: C_3  and  C_4
REMARK    3  A    between atoms: N_12  and  C_13
REMARK    4  A    between atoms: C_13  and  C_14
REMARK    5  A    between atoms: N_23  and  O_24
REMARK                            x       y       z     vdW  Elec       q    Type
REMARK                         _______ _______ _______ _____ _____    ______ ____
ROOT
ATOM      1  C   UNL     1       5.031   5.244  17.592  0.00  0.00    +0.000 C 
ATOM      2  S   UNL     1       3.846   4.082  16.840  0.00  0.00    +0.000 S 
ATOM      3  C   UNL     1       2.796   3.926  18.274  0.00  0.00    +0.000 A 
ATOM      4  C   UNL     1       2.242   2.665  18.529  0.00  0.00    +0.000 A 
ATOM      5  C   UNL     1       1.490   2.451  19.680  0.00  0.00    +0.000 A 
ATOM      6  C   UNL     1       1.261   3.506  20.556  0.00  0.00    +0.000 A 
ATOM      7  C   UNL     1       1.782   4.777  20.287  0.00  0.00    +0.000 A 
ATOM      8  C   UNL     1       2.578   5.008  19.154  0.00  0.00    +0.000 A 
ATOM      9  N   UNL     1       3.180   6.292  18.914  0.00  0.00    +0.000 N 
ATOM     10  C   UNL     1       4.273   6.476  18.065  0.00  0.00    +0.000 C 
ATOM     11  O   UNL     1       4.695   7.601  17.782  0.00  0.00    +0.000 OA
ENDROOT
BRANCH   1  12
ATOM     12  C   UNL     1       5.800   4.568  18.729  0.00  0.00    +0.000 C 
BRANCH  12  14
ATOM     13  O   UNL     1       7.418   5.325  20.336  0.00  0.00    +0.000 OA
ATOM     14  C   UNL     1       6.934   5.434  19.215  0.00  0.00    +0.000 C 
ATOM     15  N   UNL     1       7.344   6.405  18.321  0.00  0.00    +0.000 N 
ATOM     16  H   UNL     1       7.363   6.222  17.316  0.00  0.00    +0.000 HD
BRANCH  15  17
ATOM     17  O   UNL     1       8.408   7.210  18.803  0.00  0.00    +0.000 OA
ATOM     18  H   UNL     1       8.085   8.120  18.622  0.00  0.00    +0.000 HD
ENDBRANCH  15  17
ENDBRANCH  12  14
ENDBRANCH   1  12
BRANCH   9  19
ATOM     19  C   UNL     1       2.666   7.497  19.573  0.00  0.00    +0.000 C 
BRANCH  19  20
ATOM     20  C   UNL     1       1.697   8.290  18.677  0.00  0.00    +0.000 C 
ATOM     21  O   UNL     1       1.595   8.063  17.468  0.00  0.00    +0.000 OA
ATOM     22  N   UNL     1       1.040   9.342  19.295  0.00  0.00    +0.000 N 
ATOM     23  C   UNL     1       0.292  10.334  18.552  0.00  0.00    +0.000 C 
ATOM     24  C   UNL     1       0.127  11.466  19.555  0.00  0.00    +0.000 C 
ATOM     25  C   UNL     1      -0.038  10.739  20.885  0.00  0.00    +0.000 C 
ATOM     26  C   UNL     1       0.745   9.439  20.717  0.00  0.00    +0.000 C 
ENDBRANCH  19  20
ENDBRANCH   9  19
TORSDOF 5
ENDMDL
MODEL 8
REMARK VINA RESULT:      -6.6      3.295      6.080
REMARK  Name = 
REMARK  5 active torsions:
REMARK  status: ('A' for Active; 'I' for Inactive)
REMARK    1  A    between atoms: C_2  and  C_3
REMARK    2  A    between atoms: C_3  and  C_4
REMARK    3  A    between atoms: N_12  and  C_13
REMARK    4  A    between atoms: C_13  and  C_14
REMARK    5  A    between atoms: N_23  and  O_24
REMARK                            x       y       z     vdW  Elec       q    Type
REMARK                         _______ _______ _______ _____ _____    ______ ____
ROOT
ATOM      1  C   UNL     1       2.812   2.110  19.670  0.00  0.00    +0.000 C 
ATOM      2  S   UNL     1       1.244   2.887  20.175  0.00  0.00    +0.000 S 
ATOM      3  C   UNL     1       1.750   4.567  19.854  0.00  0.00    +0.000 A 
ATOM      4  C   UNL     1       1.293   5.555  20.736  0.00  0.00    +0.000 A 
ATOM      5  C   UNL     1       1.725   6.869  20.598  0.00  0.00    +0.000 A 
ATOM      6  C   UNL     1       2.583   7.205  19.556  0.00  0.00    +0.000 A 
ATOM      7  C   UNL     1       3.014   6.228  18.651  0.00  0.00    +0.000 A 
ATOM      8  C   UNL     1       2.625   4.886  18.793  0.00  0.00    +0.000 A 
ATOM      9  N   UNL     1       3.128   3.866  17.913  0.00  0.00    +0.000 N 
ATOM     10  C   UNL     1       3.112   2.507  18.232  0.00  0.00    +0.000 C 
ATOM     11  O   UNL     1       3.437   1.642  17.413  0.00  0.00    +0.000 OA
ENDROOT
BRANCH   1  12
ATOM     12  C   UNL     1       3.942   2.505  20.625  0.00  0.00    +0.000 C 
BRANCH  12  14
ATOM     13  O   UNL     1       5.612   1.267  21.827  0.00  0.00    +0.000 OA
ATOM     14  C   UNL     1       4.913   1.371  20.826  0.00  0.00    +0.000 C 
ATOM     15  N   UNL     1       5.002   0.491  19.764  0.00  0.00    +0.000 N 
ATOM     16  H   UNL     1       4.176   0.238  19.219  0.00  0.00    +0.000 HD
BRANCH  15  17
ATOM     17  O   UNL     1       5.925  -0.565  19.974  0.00  0.00    +0.000 OA
ATOM     18  H   UNL     1       5.406  -1.357  19.717  0.00  0.00    +0.000 HD
ENDBRANCH  15  17
ENDBRANCH  12  14
ENDBRANCH   1  12
BRANCH   9  19
ATOM     19  C   UNL     1       3.700   4.216  16.609  0.00  0.00    +0.000 C 
BRANCH  19  20
ATOM     20  C   UNL     1       5.235   4.343  16.654  0.00  0.00    +0.000 C 
ATOM     21  O   UNL     1       5.843   4.499  17.717  0.00  0.00    +0.000 OA
ATOM     22  N   UNL     1       5.865   4.386  15.422  0.00  0.00    +0.000 N 
ATOM     23  C   UNL     1       7.260   4.749  15.275  0.00  0.00    +0.000 C 
ATOM     24  C   UNL     1       7.381   5.065  13.792  0.00  0.00    +0.000 C 
ATOM     25  C   UNL     1       6.435   4.062  13.138  0.00  0.00    +0.000 C 
ATOM     26  C   UNL     1       5.356   3.805  14.188  0.00  0.00    +0.000 C 
ENDBRANCH  19  20
ENDBRANCH   9  19
TORSDOF 5
ENDMDL
MODEL 9
REMARK VINA RESULT:      -6.6      1.269      1.735
REMARK  Name = 
REMARK  5 active torsions:
REMARK  status: ('A' for Active; 'I' for Inactive)
REMARK    1  A    between atoms: C_2  and  C_3
REMARK    2  A    between atoms: C_3  and  C_4
REMARK    3  A    between atoms: N_12  and  C_13
REMARK    4  A    between atoms: C_13  and  C_14
REMARK    5  A    between atoms: N_23  and  O_24
REMARK                            x       y       z     vdW  Elec       q    Type
REMARK                         _______ _______ _______ _____ _____    ______ ____
ROOT
ATOM      1  C   UNL     1       4.852   5.467  17.714  0.00  0.00    +0.000 C 
ATOM      2  S   UNL     1       4.272   3.856  17.092  0.00  0.00    +0.000 S 
ATOM      3  C   UNL     1       2.915   3.686  18.236  0.00  0.00    +0.000 A 
ATOM      4  C   UNL     1       2.641   2.400  18.720  0.00  0.00    +0.000 A 
ATOM      5  C   UNL     1       1.657   2.210  19.685  0.00  0.00    +0.000 A 
ATOM      6  C   UNL     1       0.922   3.300  20.140  0.00  0.00    +0.000 A 
ATOM      7  C   UNL     1       1.168   4.582  19.633  0.00  0.00    +0.000 A 
ATOM      8  C   UNL     1       2.183   4.805  18.689  0.00  0.00    +0.000 A 
ATOM      9  N   UNL     1       2.492   6.130  18.224  0.00  0.00    +0.000 N 
ATOM     10  C   UNL     1       3.707   6.465  17.624  0.00  0.00    +0.000 C 
ATOM     11  O   UNL     1       3.902   7.578  17.125  0.00  0.00    +0.000 OA
ENDROOT
BRANCH   1  12
ATOM     12  C   UNL     1       5.388   5.332  19.141  0.00  0.00    +0.000 C 
BRANCH  12  14
ATOM     13  O   UNL     1       7.605   5.281  20.065  0.00  0.00    +0.000 OA
ATOM     14  C   UNL     1       6.853   4.978  19.146  0.00  0.00    +0.000 C 
ATOM     15  N   UNL     1       7.298   4.342  18.003  0.00  0.00    +0.000 N 
ATOM     16  H   UNL     1       6.710   3.665  17.513  0.00  0.00    +0.000 HD
BRANCH  15  17
ATOM     17  O   UNL     1       8.680   4.024  18.028  0.00  0.00    +0.000 OA
ATOM     18  H   UNL     1       9.099   4.904  18.144  0.00  0.00    +0.000 HD
ENDBRANCH  15  17
ENDBRANCH  12  14
ENDBRANCH   1  12
BRANCH   9  19
ATOM     19  C   UNL     1       1.522   7.221  18.369  0.00  0.00    +0.000 C 
BRANCH  19  20
ATOM     20  C   UNL     1       1.709   8.005  19.682  0.00  0.00    +0.000 C 
ATOM     21  O   UNL     1       2.277   7.509  20.660  0.00  0.00    +0.000 OA
ATOM     22  N   UNL     1       1.099   9.247  19.725  0.00  0.00    +0.000 N 
ATOM     23  C   UNL     1       0.963  10.003  20.954  0.00  0.00    +0.000 C 
ATOM     24  C   UNL     1      -0.096  11.039  20.608  0.00  0.00    +0.000 C 
ATOM     25  C   UNL     1       0.193  11.365  19.146  0.00  0.00    +0.000 C 
ATOM     26  C   UNL     1       0.799  10.085  18.574  0.00  0.00    +0.000 C 
ENDBRANCH  19  20
ENDBRANCH   9  19
TORSDOF 5
ENDMDL
