MODEL 1
REMARK VINA RESULT:      -7.3      0.000      0.000
REMARK  Name = 
REMARK  12 active torsions:
REMARK  status: ('A' for Active; 'I' for Inactive)
REMARK    1  A    between atoms: C_1  and  C_2
REMARK    2  A    between atoms: C_2  and  N_3
REMARK    3  A    between atoms: N_3  and  C_4
REMARK    4  A    between atoms: C_7  and  C_8
REMARK    5  A    between atoms: C_8  and  C_9
REMARK    6  A    between atoms: C_12  and  C_13
REMARK    7  A    between atoms: C_13  and  C_14
REMARK    8  A    between atoms: C_14  and  N_15
REMARK    9  A    between atoms: C_17  and  C_18
REMARK   10  A    between atoms: C_20  and  C_21
REMARK   11  A    between atoms: C_21  and  C_22
REMARK   12  A    between atoms: C_21  and  C_23
REMARK                            x       y       z     vdW  Elec       q    Type
REMARK                         _______ _______ _______ _____ _____    ______ ____
ROOT
ATOM      1  C   UNL     1       6.445   5.053  15.844  0.00  0.00    +0.000 A 
ATOM      2  C   UNL     1       5.318   4.363  15.359  0.00  0.00    +0.000 A 
ATOM      3  C   UNL     1       4.239   4.032  16.176  0.00  0.00    +0.000 A 
ATOM      4  C   UNL     1       4.263   4.347  17.531  0.00  0.00    +0.000 A 
ATOM      5  C   UNL     1       5.420   4.932  18.055  0.00  0.00    +0.000 A 
ATOM      6  C   UNL     1       6.527   5.277  17.243  0.00  0.00    +0.000 A 
ENDROOT
BRANCH   6   7
ATOM      7  C   UNL     1       7.704   6.000  17.896  0.00  0.00    +0.000 C 
ATOM      8  C   UNL     1       7.556   7.505  17.644  0.00  0.00    +0.000 C 
ATOM      9  C   UNL     1       7.869   5.747  19.405  0.00  0.00    +0.000 C 
ENDBRANCH   6   7
BRANCH   1  10
ATOM     10  N   UNL     1       7.498   5.407  14.971  0.00  0.00    +0.000 N 
ATOM     11  H   UNL     1       7.647   6.412  14.960  0.00  0.00    +0.000 HD
BRANCH  10  13
ATOM     12  C   UNL     1       8.278   5.712  12.663  0.00  0.00    +0.000 C 
ATOM     13  C   UNL     1       7.462   4.853  13.615  0.00  0.00    +0.000 C 
ENDBRANCH  10  13
ENDBRANCH   1  10
BRANCH   4  14
ATOM     14  C   UNL     1       3.051   4.124  18.405  0.00  0.00    +0.000 C 
BRANCH  14  15
ATOM     15  C   UNL     1       2.575   5.374  19.136  0.00  0.00    +0.000 A 
ATOM     16  C   UNL     1       2.686   6.619  18.481  0.00  0.00    +0.000 A 
ATOM     17  C   UNL     1       2.205   7.791  19.062  0.00  0.00    +0.000 A 
ATOM     18  C   UNL     1       1.582   7.755  20.309  0.00  0.00    +0.000 A 
ATOM     19  C   UNL     1       1.502   6.528  20.984  0.00  0.00    +0.000 A 
ATOM     20  C   UNL     1       1.996   5.340  20.418  0.00  0.00    +0.000 A 
ATOM     21  C   UNL     1       1.843   4.060  21.195  0.00  0.00    +0.000 C 
BRANCH  18  22
ATOM     22  C   UNL     1       0.993   9.010  20.908  0.00  0.00    +0.000 C 
BRANCH  22  23
ATOM     23  C   UNL     1       0.765  10.115  19.876  0.00  0.00    +0.000 C 
BRANCH  23  24
ATOM     24  N   UNL     1      -0.663  10.270  19.587  0.00  0.00    +0.000 NA
ATOM     25  H   UNL     1      -0.845  10.019  18.616  0.00  0.00    +0.000 HD
ATOM     26  H   UNL     1      -0.919  11.253  19.679  0.00  0.00    +0.000 HD
ENDBRANCH  23  24
ENDBRANCH  22  23
ENDBRANCH  18  22
ENDBRANCH  14  15
ENDBRANCH   4  14
TORSDOF 8
ENDMDL
MODEL 2
REMARK VINA RESULT:      -6.9      2.491      5.057
REMARK  Name = 
REMARK  12 active torsions:
REMARK  status: ('A' for Active; 'I' for Inactive)
REMARK    1  A    between atoms: C_1  and  C_2
REMARK    2  A    between atoms: C_2  and  N_3
REMARK    3  A    between atoms: N_3  and  C_4
REMARK    4  A    between atoms: C_7  and  C_8
REMARK    5  A    between atoms: C_8  and  C_9
REMARK    6  A    between atoms: C_12  and  C_13
REMARK    7  A    between atoms: C_13  and  C_14
REMARK    8  A    between atoms: C_14  and  N_15
REMARK    9  A    between atoms: C_17  and  C_18
REMARK   10  A    between atoms: C_20  and  C_21
REMARK   11  A    between atoms: C_21  and  C_22
REMARK   12  A    between atoms: C_21  and  C_23
REMARK                            x       y       z     vdW  Elec       q    Type
REMARK                         _______ _______ _______ _____ _____    ______ ____
ROOT
ATOM      1  C   UNL     1       2.860   4.812  18.263  0.00  0.00    +0.000 A 
ATOM      2  C   UNL     1       3.059   6.180  17.997  0.00  0.00    +0.000 A 
ATOM      3  C   UNL     1       2.648   7.178  18.878  0.00  0.00    +0.000 A 
ATOM      4  C   UNL     1       1.982   6.844  20.052  0.00  0.00    +0.000 A 
ATOM      5  C   UNL     1       1.675   5.500  20.282  0.00  0.00    +0.000 A 
ATOM      6  C   UNL     1       2.083   4.470  19.401  0.00  0.00    +0.000 A 
ENDROOT
BRANCH   6   7
ATOM      7  C   UNL     1       1.782   3.024  19.792  0.00  0.00    +0.000 C 
ATOM      8  C   UNL     1       1.434   2.981  21.284  0.00  0.00    +0.000 C 
ATOM      9  C   UNL     1       0.658   2.350  18.984  0.00  0.00    +0.000 C 
ENDBRANCH   6   7
BRANCH   1  10
ATOM     10  N   UNL     1       3.332   3.831  17.363  0.00  0.00    +0.000 N 
ATOM     11  H   UNL     1       2.867   2.940  17.510  0.00  0.00    +0.000 HD
BRANCH  10  13
ATOM     12  C   UNL     1       5.271   4.162  15.894  0.00  0.00    +0.000 C 
ATOM     13  C   UNL     1       4.784   3.668  17.246  0.00  0.00    +0.000 C 
ENDBRANCH  10  13
ENDBRANCH   1  10
BRANCH   4  14
ATOM     14  C   UNL     1       1.651   7.896  21.087  0.00  0.00    +0.000 C 
BRANCH  14  15
ATOM     15  C   UNL     1       0.859   9.076  20.539  0.00  0.00    +0.000 A 
ATOM     16  C   UNL     1       1.073   9.467  19.200  0.00  0.00    +0.000 A 
ATOM     17  C   UNL     1       0.331  10.491  18.615  0.00  0.00    +0.000 A 
ATOM     18  C   UNL     1      -0.661  11.148  19.343  0.00  0.00    +0.000 A 
ATOM     19  C   UNL     1      -0.854  10.792  20.686  0.00  0.00    +0.000 A 
ATOM     20  C   UNL     1      -0.103   9.771  21.295  0.00  0.00    +0.000 A 
ATOM     21  C   UNL     1      -0.395   9.430  22.732  0.00  0.00    +0.000 C 
BRANCH  18  22
ATOM     22  C   UNL     1      -1.517  12.207  18.690  0.00  0.00    +0.000 C 
BRANCH  22  23
ATOM     23  C   UNL     1      -2.635  11.623  17.826  0.00  0.00    +0.000 C 
BRANCH  23  24
ATOM     24  N   UNL     1      -2.268  11.657  16.408  0.00  0.00    +0.000 NA
ATOM     25  H   UNL     1      -1.253  11.622  16.316  0.00  0.00    +0.000 HD
ATOM     26  H   UNL     1      -2.559  12.549  16.008  0.00  0.00    +0.000 HD
ENDBRANCH  23  24
ENDBRANCH  22  23
ENDBRANCH  18  22
ENDBRANCH  14  15
ENDBRANCH   4  14
TORSDOF 8
ENDMDL
MODEL 3
REMARK VINA RESULT:      -6.9      2.438      4.271
REMARK  Name = 
REMARK  12 active torsions:
REMARK  status: ('A' for Active; 'I' for Inactive)
REMARK    1  A    between atoms: C_1  and  C_2
REMARK    2  A    between atoms: C_2  and  N_3
REMARK    3  A    between atoms: N_3  and  C_4
REMARK    4  A    between atoms: C_7  and  C_8
REMARK    5  A    between atoms: C_8  and  C_9
REMARK    6  A    between atoms: C_12  and  C_13
REMARK    7  A    between atoms: C_13  and  C_14
REMARK    8  A    between atoms: C_14  and  N_15
REMARK    9  A    between atoms: C_17  and  C_18
REMARK   10  A    between atoms: C_20  and  C_21
REMARK   11  A    between atoms: C_21  and  C_22
REMARK   12  A    between atoms: C_21  and  C_23
REMARK                            x       y       z     vdW  Elec       q    Type
REMARK                         _______ _______ _______ _____ _____    ______ ____
ROOT
ATOM      1  C   UNL     1       3.873   4.601  17.997  0.00  0.00    +0.000 A 
ATOM      2  C   UNL     1       2.483   4.748  18.163  0.00  0.00    +0.000 A 
ATOM      3  C   UNL     1       1.868   5.997  18.224  0.00  0.00    +0.000 A 
ATOM      4  C   UNL     1       2.631   7.157  18.160  0.00  0.00    +0.000 A 
ATOM      5  C   UNL     1       4.023   7.034  18.108  0.00  0.00    +0.000 A 
ATOM      6  C   UNL     1       4.669   5.776  18.046  0.00  0.00    +0.000 A 
ENDROOT
BRANCH   6   7
ATOM      7  C   UNL     1       6.189   5.751  17.893  0.00  0.00    +0.000 C 
ATOM      8  C   UNL     1       6.642   7.079  17.277  0.00  0.00    +0.000 C 
ATOM      9  C   UNL     1       6.971   5.497  19.194  0.00  0.00    +0.000 C 
ENDBRANCH   6   7
BRANCH   1  10
ATOM     10  N   UNL     1       4.451   3.316  17.896  0.00  0.00    +0.000 N 
ATOM     11  H   UNL     1       4.629   3.066  16.928  0.00  0.00    +0.000 HD
BRANCH  10  13
ATOM     12  C   UNL     1       4.386   2.081  20.017  0.00  0.00    +0.000 C 
ATOM     13  C   UNL     1       3.796   2.225  18.624  0.00  0.00    +0.000 C 
ENDBRANCH  10  13
ENDBRANCH   1  10
BRANCH   4  14
ATOM     14  C   UNL     1       1.977   8.518  18.084  0.00  0.00    +0.000 C 
BRANCH  14  15
ATOM     15  C   UNL     1       1.197   8.901  19.336  0.00  0.00    +0.000 A 
ATOM     16  C   UNL     1       1.645   8.415  20.582  0.00  0.00    +0.000 A 
ATOM     17  C   UNL     1       1.021   8.786  21.773  0.00  0.00    +0.000 A 
ATOM     18  C   UNL     1      -0.060   9.666  21.758  0.00  0.00    +0.000 A 
ATOM     19  C   UNL     1      -0.537  10.123  20.520  0.00  0.00    +0.000 A 
ATOM     20  C   UNL     1       0.072   9.747  19.310  0.00  0.00    +0.000 A 
ATOM     21  C   UNL     1      -0.481  10.307  18.027  0.00  0.00    +0.000 C 
BRANCH  18  22
ATOM     22  C   UNL     1      -0.691  10.127  23.050  0.00  0.00    +0.000 C 
BRANCH  22  23
ATOM     23  C   UNL     1      -1.264  11.542  22.965  0.00  0.00    +0.000 C 
BRANCH  23  24
ATOM     24  N   UNL     1      -2.678  11.555  23.347  0.00  0.00    +0.000 NA
ATOM     25  H   UNL     1      -2.916  10.676  23.806  0.00  0.00    +0.000 HD
ATOM     26  H   UNL     1      -3.252  11.600  22.505  0.00  0.00    +0.000 HD
ENDBRANCH  23  24
ENDBRANCH  22  23
ENDBRANCH  18  22
ENDBRANCH  14  15
ENDBRANCH   4  14
TORSDOF 8
ENDMDL
MODEL 4
REMARK VINA RESULT:      -6.9      1.785      7.551
REMARK  Name = 
REMARK  12 active torsions:
REMARK  status: ('A' for Active; 'I' for Inactive)
REMARK    1  A    between atoms: C_1  and  C_2
REMARK    2  A    between atoms: C_2  and  N_3
REMARK    3  A    between atoms: N_3  and  C_4
REMARK    4  A    between atoms: C_7  and  C_8
REMARK    5  A    between atoms: C_8  and  C_9
REMARK    6  A    between atoms: C_12  and  C_13
REMARK    7  A    between atoms: C_13  and  C_14
REMARK    8  A    between atoms: C_14  and  N_15
REMARK    9  A    between atoms: C_17  and  C_18
REMARK   10  A    between atoms: C_20  and  C_21
REMARK   11  A    between atoms: C_21  and  C_22
REMARK   12  A    between atoms: C_21  and  C_23
REMARK                            x       y       z     vdW  Elec       q    Type
REMARK                         _______ _______ _______ _____ _____    ______ ____
ROOT
ATOM      1  C   UNL     1       1.083   9.584  18.966  0.00  0.00    +0.000 A 
ATOM      2  C   UNL     1       1.769   9.048  17.859  0.00  0.00    +0.000 A 
ATOM      3  C   UNL     1       2.437   7.827  17.917  0.00  0.00    +0.000 A 
ATOM      4  C   UNL     1       2.479   7.107  19.107  0.00  0.00    +0.000 A 
ATOM      5  C   UNL     1       1.901   7.675  20.246  0.00  0.00    +0.000 A 
ATOM      6  C   UNL     1       1.217   8.914  20.210  0.00  0.00    +0.000 A 
ENDROOT
BRANCH   6   7
ATOM      7  C   UNL     1       0.536   9.401  21.488  0.00  0.00    +0.000 C 
ATOM      8  C   UNL     1      -0.686   8.518  21.760  0.00  0.00    +0.000 C 
ATOM      9  C   UNL     1       1.436   9.429  22.737  0.00  0.00    +0.000 C 
ENDBRANCH   6   7
BRANCH   1  10
ATOM     10  N   UNL     1       0.381  10.805  18.851  0.00  0.00    +0.000 N 
ATOM     11  H   UNL     1       0.125  11.171  19.763  0.00  0.00    +0.000 HD
BRANCH  10  13
ATOM     12  C   UNL     1      -1.908  10.016  18.443  0.00  0.00    +0.000 C 
ATOM     13  C   UNL     1      -0.748  10.845  17.917  0.00  0.00    +0.000 C 
ENDBRANCH  10  13
ENDBRANCH   1  10
BRANCH   4  14
ATOM     14  C   UNL     1       3.076   5.720  19.158  0.00  0.00    +0.000 C 
BRANCH  14  15
ATOM     15  C   UNL     1       3.907   5.357  17.934  0.00  0.00    +0.000 A 
ATOM     16  C   UNL     1       5.004   6.179  17.598  0.00  0.00    +0.000 A 
ATOM     17  C   UNL     1       5.848   5.865  16.534  0.00  0.00    +0.000 A 
ATOM     18  C   UNL     1       5.635   4.710  15.782  0.00  0.00    +0.000 A 
ATOM     19  C   UNL     1       4.524   3.908  16.086  0.00  0.00    +0.000 A 
ATOM     20  C   UNL     1       3.655   4.219  17.145  0.00  0.00    +0.000 A 
ATOM     21  C   UNL     1       2.506   3.288  17.424  0.00  0.00    +0.000 C 
BRANCH  18  22
ATOM     22  C   UNL     1       6.590   4.328  14.677  0.00  0.00    +0.000 C 
BRANCH  22  23
ATOM     23  C   UNL     1       5.888   4.069  13.343  0.00  0.00    +0.000 C 
BRANCH  23  24
ATOM     24  N   UNL     1       6.441   2.882  12.686  0.00  0.00    +0.000 NA
ATOM     25  H   UNL     1       5.788   2.105  12.777  0.00  0.00    +0.000 HD
ATOM     26  H   UNL     1       7.291   2.596  13.172  0.00  0.00    +0.000 HD
ENDBRANCH  23  24
ENDBRANCH  22  23
ENDBRANCH  18  22
ENDBRANCH  14  15
ENDBRANCH   4  14
TORSDOF 8
ENDMDL
MODEL 5
REMARK VINA RESULT:      -6.8      1.460      2.392
REMARK  Name = 
REMARK  12 active torsions:
REMARK  status: ('A' for Active; 'I' for Inactive)
REMARK    1  A    between atoms: C_1  and  C_2
REMARK    2  A    between atoms: C_2  and  N_3
REMARK    3  A    between atoms: N_3  and  C_4
REMARK    4  A    between atoms: C_7  and  C_8
REMARK    5  A    between atoms: C_8  and  C_9
REMARK    6  A    between atoms: C_12  and  C_13
REMARK    7  A    between atoms: C_13  and  C_14
REMARK    8  A    between atoms: C_14  and  N_15
REMARK    9  A    between atoms: C_17  and  C_18
REMARK   10  A    between atoms: C_20  and  C_21
REMARK   11  A    between atoms: C_21  and  C_22
REMARK   12  A    between atoms: C_21  and  C_23
REMARK                            x       y       z     vdW  Elec       q    Type
REMARK                         _______ _______ _______ _____ _____    ______ ____
ROOT
ATOM      1  C   UNL     1       5.144   4.201  16.997  0.00  0.00    +0.000 A 
ATOM      2  C   UNL     1       3.796   3.807  17.080  0.00  0.00    +0.000 A 
ATOM      3  C   UNL     1       2.918   4.345  18.020  0.00  0.00    +0.000 A 
ATOM      4  C   UNL     1       3.370   5.278  18.946  0.00  0.00    +0.000 A 
ATOM      5  C   UNL     1       4.731   5.600  18.954  0.00  0.00    +0.000 A 
ATOM      6  C   UNL     1       5.640   5.065  18.009  0.00  0.00    +0.000 A 
ENDROOT
BRANCH   6   7
ATOM      7  C   UNL     1       7.087   5.555  18.042  0.00  0.00    +0.000 C 
ATOM      8  C   UNL     1       7.158   6.922  17.353  0.00  0.00    +0.000 C 
ATOM      9  C   UNL     1       7.710   5.655  19.445  0.00  0.00    +0.000 C 
ENDBRANCH   6   7
BRANCH   1  10
ATOM     10  N   UNL     1       5.989   3.662  16.002  0.00  0.00    +0.000 N 
ATOM     11  H   UNL     1       6.961   3.675  16.294  0.00  0.00    +0.000 HD
BRANCH  10  13
ATOM     12  C   UNL     1       7.095   4.882  14.179  0.00  0.00    +0.000 C 
ATOM     13  C   UNL     1       5.830   4.174  14.637  0.00  0.00    +0.000 C 
ENDBRANCH  10  13
ENDBRANCH   1  10
BRANCH   4  14
ATOM     14  C   UNL     1       2.410   5.977  19.881  0.00  0.00    +0.000 C 
BRANCH  14  15
ATOM     15  C   UNL     1       2.109   7.420  19.496  0.00  0.00    +0.000 A 
ATOM     16  C   UNL     1       2.492   7.867  18.213  0.00  0.00    +0.000 A 
ATOM     17  C   UNL     1       2.183   9.152  17.769  0.00  0.00    +0.000 A 
ATOM     18  C   UNL     1       1.467  10.026  18.586  0.00  0.00    +0.000 A 
ATOM     19  C   UNL     1       1.117   9.603  19.878  0.00  0.00    +0.000 A 
ATOM     20  C   UNL     1       1.435   8.316  20.345  0.00  0.00    +0.000 A 
ATOM     21  C   UNL     1       0.994   7.931  21.731  0.00  0.00    +0.000 C 
BRANCH  18  22
ATOM     22  C   UNL     1       1.067  11.392  18.082  0.00  0.00    +0.000 C 
BRANCH  22  23
ATOM     23  C   UNL     1       1.828  12.529  18.766  0.00  0.00    +0.000 C 
BRANCH  23  24
ATOM     24  N   UNL     1       0.910  13.400  19.502  0.00  0.00    +0.000 NA
ATOM     25  H   UNL     1       0.433  14.023  18.851  0.00  0.00    +0.000 HD
ATOM     26  H   UNL     1       1.446  14.001  20.127  0.00  0.00    +0.000 HD
ENDBRANCH  23  24
ENDBRANCH  22  23
ENDBRANCH  18  22
ENDBRANCH  14  15
ENDBRANCH   4  14
TORSDOF 8
ENDMDL
MODEL 6
REMARK VINA RESULT:      -6.8      1.629      7.413
REMARK  Name = 
REMARK  12 active torsions:
REMARK  status: ('A' for Active; 'I' for Inactive)
REMARK    1  A    between atoms: C_1  and  C_2
REMARK    2  A    between atoms: C_2  and  N_3
REMARK    3  A    between atoms: N_3  and  C_4
REMARK    4  A    between atoms: C_7  and  C_8
REMARK    5  A    between atoms: C_8  and  C_9
REMARK    6  A    between atoms: C_12  and  C_13
REMARK    7  A    between atoms: C_13  and  C_14
REMARK    8  A    between atoms: C_14  and  N_15
REMARK    9  A    between atoms: C_17  and  C_18
REMARK   10  A    between atoms: C_20  and  C_21
REMARK   11  A    between atoms: C_21  and  C_22
REMARK   12  A    between atoms: C_21  and  C_23
REMARK                            x       y       z     vdW  Elec       q    Type
REMARK                         _______ _______ _______ _____ _____    ______ ____
ROOT
ATOM      1  C   UNL     1       1.129  10.279  18.861  0.00  0.00    +0.000 A 
ATOM      2  C   UNL     1       1.841   9.538  17.899  0.00  0.00    +0.000 A 
ATOM      3  C   UNL     1       2.303   8.247  18.144  0.00  0.00    +0.000 A 
ATOM      4  C   UNL     1       2.101   7.655  19.387  0.00  0.00    +0.000 A 
ATOM      5  C   UNL     1       1.495   8.415  20.392  0.00  0.00    +0.000 A 
ATOM      6  C   UNL     1       1.019   9.728  20.164  0.00  0.00    +0.000 A 
ENDROOT
BRANCH   6   7
ATOM      7  C   UNL     1       0.284  10.437  21.302  0.00  0.00    +0.000 C 
ATOM      8  C   UNL     1      -1.140  10.762  20.838  0.00  0.00    +0.000 C 
ATOM      9  C   UNL     1       0.226   9.657  22.627  0.00  0.00    +0.000 C 
ENDBRANCH   6   7
BRANCH   1  10
ATOM     10  N   UNL     1       0.640  11.568  18.555  0.00  0.00    +0.000 N 
ATOM     11  H   UNL     1       0.440  11.663  17.564  0.00  0.00    +0.000 HD
BRANCH  10  13
ATOM     12  C   UNL     1       2.441  13.159  18.045  0.00  0.00    +0.000 C 
ATOM     13  C   UNL     1       1.402  12.713  19.063  0.00  0.00    +0.000 C 
ENDBRANCH  10  13
ENDBRANCH   1  10
BRANCH   4  14
ATOM     14  C   UNL     1       2.468   6.210  19.631  0.00  0.00    +0.000 C 
BRANCH  14  15
ATOM     15  C   UNL     1       3.321   5.592  18.530  0.00  0.00    +0.000 A 
ATOM     16  C   UNL     1       4.647   6.049  18.370  0.00  0.00    +0.000 A 
ATOM     17  C   UNL     1       5.504   5.477  17.431  0.00  0.00    +0.000 A 
ATOM     18  C   UNL     1       5.070   4.420  16.633  0.00  0.00    +0.000 A 
ATOM     19  C   UNL     1       3.742   3.985  16.758  0.00  0.00    +0.000 A 
ATOM     20  C   UNL     1       2.861   4.561  17.690  0.00  0.00    +0.000 A 
ATOM     21  C   UNL     1       1.462   4.015  17.783  0.00  0.00    +0.000 C 
BRANCH  18  22
ATOM     22  C   UNL     1       6.018   3.750  15.667  0.00  0.00    +0.000 C 
BRANCH  22  23
ATOM     23  C   UNL     1       6.356   4.623  14.458  0.00  0.00    +0.000 C 
BRANCH  23  24
ATOM     24  N   UNL     1       7.647   5.289  14.641  0.00  0.00    +0.000 NA
ATOM     25  H   UNL     1       7.912   5.256  15.625  0.00  0.00    +0.000 HD
ATOM     26  H   UNL     1       7.551   6.277  14.407  0.00  0.00    +0.000 HD
ENDBRANCH  23  24
ENDBRANCH  22  23
ENDBRANCH  18  22
ENDBRANCH  14  15
ENDBRANCH   4  14
TORSDOF 8
ENDMDL
MODEL 7
REMARK VINA RESULT:      -6.8      2.306      4.613
REMARK  Name = 
REMARK  12 active torsions:
REMARK  status: ('A' for Active; 'I' for Inactive)
REMARK    1  A    between atoms: C_1  and  C_2
REMARK    2  A    between atoms: C_2  and  N_3
REMARK    3  A    between atoms: N_3  and  C_4
REMARK    4  A    between atoms: C_7  and  C_8
REMARK    5  A    between atoms: C_8  and  C_9
REMARK    6  A    between atoms: C_12  and  C_13
REMARK    7  A    between atoms: C_13  and  C_14
REMARK    8  A    between atoms: C_14  and  N_15
REMARK    9  A    between atoms: C_17  and  C_18
REMARK   10  A    between atoms: C_20  and  C_21
REMARK   11  A    between atoms: C_21  and  C_22
REMARK   12  A    between atoms: C_21  and  C_23
REMARK                            x       y       z     vdW  Elec       q    Type
REMARK                         _______ _______ _______ _____ _____    ______ ____
ROOT
ATOM      1  C   UNL     1       4.365   5.492  18.106  0.00  0.00    +0.000 A 
ATOM      2  C   UNL     1       4.749   6.700  17.494  0.00  0.00    +0.000 A 
ATOM      3  C   UNL     1       3.878   7.781  17.366  0.00  0.00    +0.000 A 
ATOM      4  C   UNL     1       2.565   7.679  17.815  0.00  0.00    +0.000 A 
ATOM      5  C   UNL     1       2.131   6.451  18.324  0.00  0.00    +0.000 A 
ATOM      6  C   UNL     1       2.999   5.341  18.462  0.00  0.00    +0.000 A 
ENDROOT
BRANCH   6   7
ATOM      7  C   UNL     1       2.452   4.074  19.120  0.00  0.00    +0.000 C 
ATOM      8  C   UNL     1       1.755   4.462  20.428  0.00  0.00    +0.000 C 
ATOM      9  C   UNL     1       1.485   3.253  18.248  0.00  0.00    +0.000 C 
ENDBRANCH   6   7
BRANCH   1  10
ATOM     10  N   UNL     1       5.292   4.437  18.254  0.00  0.00    +0.000 N 
ATOM     11  H   UNL     1       4.954   3.735  18.905  0.00  0.00    +0.000 HD
BRANCH  10  13
ATOM     12  C   UNL     1       7.567   4.495  17.331  0.00  0.00    +0.000 C 
ATOM     13  C   UNL     1       6.685   4.801  18.531  0.00  0.00    +0.000 C 
ENDBRANCH  10  13
ENDBRANCH   1  10
BRANCH   4  14
ATOM     14  C   UNL     1       1.646   8.878  17.814  0.00  0.00    +0.000 C 
BRANCH  14  15
ATOM     15  C   UNL     1       0.985   9.154  19.159  0.00  0.00    +0.000 A 
ATOM     16  C   UNL     1       1.587   8.631  20.323  0.00  0.00    +0.000 A 
ATOM     17  C   UNL     1       1.076   8.905  21.592  0.00  0.00    +0.000 A 
ATOM     18  C   UNL     1      -0.042   9.725  21.738  0.00  0.00    +0.000 A 
ATOM     19  C   UNL     1      -0.670  10.217  20.584  0.00  0.00    +0.000 A 
ATOM     20  C   UNL     1      -0.176   9.937  19.298  0.00  0.00    +0.000 A 
ATOM     21  C   UNL     1      -0.889  10.530  18.113  0.00  0.00    +0.000 C 
BRANCH  18  22
ATOM     22  C   UNL     1      -0.554  10.084  23.113  0.00  0.00    +0.000 C 
BRANCH  22  23
ATOM     23  C   UNL     1      -1.502  11.284  23.104  0.00  0.00    +0.000 C 
BRANCH  23  24
ATOM     24  N   UNL     1      -0.751  12.539  23.183  0.00  0.00    +0.000 NA
ATOM     25  H   UNL     1      -1.235  13.189  23.803  0.00  0.00    +0.000 HD
ATOM     26  H   UNL     1      -0.739  12.981  22.264  0.00  0.00    +0.000 HD
ENDBRANCH  23  24
ENDBRANCH  22  23
ENDBRANCH  18  22
ENDBRANCH  14  15
ENDBRANCH   4  14
TORSDOF 8
ENDMDL
MODEL 8
REMARK VINA RESULT:      -6.7      3.077      6.360
REMARK  Name = 
REMARK  12 active torsions:
REMARK  status: ('A' for Active; 'I' for Inactive)
REMARK    1  A    between atoms: C_1  and  C_2
REMARK    2  A    between atoms: C_2  and  N_3
REMARK    3  A    between atoms: N_3  and  C_4
REMARK    4  A    between atoms: C_7  and  C_8
REMARK    5  A    between atoms: C_8  and  C_9
REMARK    6  A    between atoms: C_12  and  C_13
REMARK    7  A    between atoms: C_13  and  C_14
REMARK    8  A    between atoms: C_14  and  N_15
REMARK    9  A    between atoms: C_17  and  C_18
REMARK   10  A    between atoms: C_20  and  C_21
REMARK   11  A    between atoms: C_21  and  C_22
REMARK   12  A    between atoms: C_21  and  C_23
REMARK                            x       y       z     vdW  Elec       q    Type
REMARK                         _______ _______ _______ _____ _____    ______ ____
ROOT
ATOM      1  C   UNL     1       2.209   6.121  20.195  0.00  0.00    +0.000 A 
ATOM      2  C   UNL     1       1.678   7.292  20.769  0.00  0.00    +0.000 A 
ATOM      3  C   UNL     1       1.515   8.470  20.043  0.00  0.00    +0.000 A 
ATOM      4  C   UNL     1       1.916   8.534  18.713  0.00  0.00    +0.000 A 
ATOM      5  C   UNL     1       2.548   7.418  18.156  0.00  0.00    +0.000 A 
ATOM      6  C   UNL     1       2.724   6.212  18.875  0.00  0.00    +0.000 A 
ENDROOT
BRANCH   6   7
ATOM      7  C   UNL     1       3.340   5.019  18.144  0.00  0.00    +0.000 C 
ATOM      8  C   UNL     1       2.214   4.211  17.489  0.00  0.00    +0.000 C 
ATOM      9  C   UNL     1       4.397   5.378  17.085  0.00  0.00    +0.000 C 
ENDBRANCH   6   7
BRANCH   1  10
ATOM     10  N   UNL     1       2.317   4.936  20.954  0.00  0.00    +0.000 N 
ATOM     11  H   UNL     1       3.205   4.471  20.791  0.00  0.00    +0.000 HD
BRANCH  10  13
ATOM     12  C   UNL     1       1.677   2.572  21.135  0.00  0.00    +0.000 C 
ATOM     13  C   UNL     1       1.196   3.993  20.892  0.00  0.00    +0.000 C 
ENDBRANCH  10  13
ENDBRANCH   1  10
BRANCH   4  14
ATOM     14  C   UNL     1       1.622   9.753  17.867  0.00  0.00    +0.000 C 
BRANCH  14  15
ATOM     15  C   UNL     1       0.316  10.452  18.221  0.00  0.00    +0.000 A 
ATOM     16  C   UNL     1      -0.893   9.895  17.751  0.00  0.00    +0.000 A 
ATOM     17  C   UNL     1      -2.128  10.442  18.097  0.00  0.00    +0.000 A 
ATOM     18  C   UNL     1      -2.196  11.553  18.937  0.00  0.00    +0.000 A 
ATOM     19  C   UNL     1      -0.998  12.136  19.377  0.00  0.00    +0.000 A 
ATOM     20  C   UNL     1       0.255  11.605  19.024  0.00  0.00    +0.000 A 
ATOM     21  C   UNL     1       1.492  12.273  19.564  0.00  0.00    +0.000 C 
BRANCH  18  22
ATOM     22  C   UNL     1      -3.533  12.103  19.373  0.00  0.00    +0.000 C 
BRANCH  22  23
ATOM     23  C   UNL     1      -3.424  13.078  20.547  0.00  0.00    +0.000 C 
BRANCH  23  24
ATOM     24  N   UNL     1      -4.302  12.669  21.645  0.00  0.00    +0.000 NA
ATOM     25  H   UNL     1      -4.848  11.855  21.362  0.00  0.00    +0.000 HD
ATOM     26  H   UNL     1      -4.977  13.411  21.829  0.00  0.00    +0.000 HD
ENDBRANCH  23  24
ENDBRANCH  22  23
ENDBRANCH  18  22
ENDBRANCH  14  15
ENDBRANCH   4  14
TORSDOF 8
ENDMDL
MODEL 9
REMARK VINA RESULT:      -6.7      2.725      4.948
REMARK  Name = 
REMARK  12 active torsions:
REMARK  status: ('A' for Active; 'I' for Inactive)
REMARK    1  A    between atoms: C_1  and  C_2
REMARK    2  A    between atoms: C_2  and  N_3
REMARK    3  A    between atoms: N_3  and  C_4
REMARK    4  A    between atoms: C_7  and  C_8
REMARK    5  A    between atoms: C_8  and  C_9
REMARK    6  A    between atoms: C_12  and  C_13
REMARK    7  A    between atoms: C_13  and  C_14
REMARK    8  A    between atoms: C_14  and  N_15
REMARK    9  A    between atoms: C_17  and  C_18
REMARK   10  A    between atoms: C_20  and  C_21
REMARK   11  A    between atoms: C_21  and  C_22
REMARK   12  A    between atoms: C_21  and  C_23
REMARK                            x       y       z     vdW  Elec       q    Type
REMARK                         _______ _______ _______ _____ _____    ______ ____
ROOT
ATOM      1  C   UNL     1       2.232   4.264  18.727  0.00  0.00    +0.000 A 
ATOM      2  C   UNL     1       1.388   4.371  19.848  0.00  0.00    +0.000 A 
ATOM      3  C   UNL     1       1.295   5.539  20.602  0.00  0.00    +0.000 A 
ATOM      4  C   UNL     1       2.081   6.642  20.284  0.00  0.00    +0.000 A 
ATOM      5  C   UNL     1       3.007   6.519  19.244  0.00  0.00    +0.000 A 
ATOM      6  C   UNL     1       3.117   5.342  18.465  0.00  0.00    +0.000 A 
ENDROOT
BRANCH   6   7
ATOM      7  C   UNL     1       4.093   5.344  17.289  0.00  0.00    +0.000 C 
ATOM      8  C   UNL     1       4.406   6.796  16.913  0.00  0.00    +0.000 C 
ATOM      9  C   UNL     1       5.409   4.583  17.532  0.00  0.00    +0.000 C 
ENDBRANCH   6   7
BRANCH   1  10
ATOM     10  N   UNL     1       2.263   3.076  17.963  0.00  0.00    +0.000 N 
ATOM     11  H   UNL     1       1.453   3.006  17.355  0.00  0.00    +0.000 HD
BRANCH  10  13
ATOM     12  C   UNL     1       3.919   1.792  19.243  0.00  0.00    +0.000 C 
ATOM     13  C   UNL     1       2.507   1.821  18.682  0.00  0.00    +0.000 C 
ENDBRANCH  10  13
ENDBRANCH   1  10
BRANCH   4  14
ATOM     14  C   UNL     1       1.898   7.961  20.999  0.00  0.00    +0.000 C 
BRANCH  14  15
ATOM     15  C   UNL     1       0.981   8.937  20.273  0.00  0.00    +0.000 A 
ATOM     16  C   UNL     1       1.191   9.160  18.896  0.00  0.00    +0.000 A 
ATOM     17  C   UNL     1       0.345   9.984  18.155  0.00  0.00    +0.000 A 
ATOM     18  C   UNL     1      -0.749  10.599  18.763  0.00  0.00    +0.000 A 
ATOM     19  C   UNL     1      -0.943  10.414  20.140  0.00  0.00    +0.000 A 
ATOM     20  C   UNL     1      -0.090   9.598  20.904  0.00  0.00    +0.000 A 
ATOM     21  C   UNL     1      -0.387   9.427  22.369  0.00  0.00    +0.000 C 
BRANCH  18  22
ATOM     22  C   UNL     1      -1.710  11.433  17.949  0.00  0.00    +0.000 C 
BRANCH  22  23
ATOM     23  C   UNL     1      -2.396  10.639  16.837  0.00  0.00    +0.000 C 
BRANCH  23  24
ATOM     24  N   UNL     1      -2.972  11.538  15.836  0.00  0.00    +0.000 NA
ATOM     25  H   UNL     1      -3.765  12.038  16.239  0.00  0.00    +0.000 HD
ATOM     26  H   UNL     1      -3.348  10.986  15.065  0.00  0.00    +0.000 HD
ENDBRANCH  23  24
ENDBRANCH  22  23
ENDBRANCH  18  22
ENDBRANCH  14  15
ENDBRANCH   4  14
TORSDOF 8
ENDMDL
