MODEL 1
REMARK VINA RESULT:      -8.0      0.000      0.000
REMARK  Name = 
REMARK  7 active torsions:
REMARK  status: ('A' for Active; 'I' for Inactive)
REMARK    1  A    between atoms: C_1  and  O_2
REMARK    2  A    between atoms: O_2  and  C_3
REMARK    3  A    between atoms: C_6  and  C_7
REMARK    4  A    between atoms: N_9  and  C_10
REMARK    5  A    between atoms: N_18  and  C_19
REMARK    6  A    between atoms: C_23  and  O_24
REMARK    7  A    between atoms: O_24  and  C_25
REMARK                            x       y       z     vdW  Elec       q    Type
REMARK                         _______ _______ _______ _____ _____    ______ ____
ROOT
ATOM      1  C   UNL     1       2.941   6.322  18.385  0.00  0.00    +0.000 C 
ATOM      2  O   UNL     1       2.215   5.414  18.775  0.00  0.00    +0.000 OA
ATOM      3  N   UNL     1       2.711   7.672  18.548  0.00  0.00    +0.000 N 
ATOM      4  H   UNL     1       3.296   8.312  18.023  0.00  0.00    +0.000 HD
ENDROOT
BRANCH   3   5
ATOM      5  C   UNL     1       1.727   8.250  19.381  0.00  0.00    +0.000 A 
ATOM      6  C   UNL     1       1.533   7.870  20.730  0.00  0.00    +0.000 A 
ATOM      7  C   UNL     1       0.789   8.669  21.611  0.00  0.00    +0.000 A 
ATOM      8  C   UNL     1       0.218   9.807  21.088  0.00  0.00    +0.000 A 
ATOM      9  C   UNL     1       0.263  10.069  19.733  0.00  0.00    +0.000 A 
ATOM     10  C   UNL     1       1.029   9.339  18.851  0.00  0.00    +0.000 A 
ATOM     11  C   UNL     1      -0.342  11.363  19.501  0.00  0.00    +0.000 C 
ATOM     12  O   UNL     1      -0.589  11.814  18.400  0.00  0.00    +0.000 OA
ATOM     13  N   UNL     1      -0.497  11.933  20.727  0.00  0.00    +0.000 N 
ATOM     14  C   UNL     1      -0.535  13.366  20.858  0.00  0.00    +0.000 C 
ATOM     15  C   UNL     1      -0.228  11.049  21.737  0.00  0.00    +0.000 C 
ATOM     16  O   UNL     1      -0.184  11.240  22.940  0.00  0.00    +0.000 OA
ENDBRANCH   3   5
BRANCH   1  20
ATOM     17  C   UNL     1       6.333   5.159  16.044  0.00  0.00    +0.000 A 
ATOM     18  C   UNL     1       5.254   4.285  16.261  0.00  0.00    +0.000 A 
ATOM     19  C   UNL     1       4.159   4.687  17.015  0.00  0.00    +0.000 A 
ATOM     20  C   UNL     1       4.137   5.958  17.590  0.00  0.00    +0.000 A 
ATOM     21  C   UNL     1       5.244   6.803  17.455  0.00  0.00    +0.000 A 
ATOM     22  C   UNL     1       6.353   6.409  16.688  0.00  0.00    +0.000 A 
BRANCH  17  24
ATOM     23  C   UNL     1       7.022   4.495  13.883  0.00  0.00    +0.000 C 
ATOM     24  O   UNL     1       7.375   4.790  15.235  0.00  0.00    +0.000 OA
ENDBRANCH  17  24
BRANCH  22  25
ATOM     25  O   UNL     1       7.339   7.363  16.676  0.00  0.00    +0.000 OA
ATOM     26  C   UNL     1       7.875   7.815  17.909  0.00  0.00    +0.000 C 
ENDBRANCH  22  25
ENDBRANCH   1  20
TORSDOF 4
ENDMDL
MODEL 2
REMARK VINA RESULT:      -7.9      2.218      8.772
REMARK  Name = 
REMARK  7 active torsions:
REMARK  status: ('A' for Active; 'I' for Inactive)
REMARK    1  A    between atoms: C_1  and  O_2
REMARK    2  A    between atoms: O_2  and  C_3
REMARK    3  A    between atoms: C_6  and  C_7
REMARK    4  A    between atoms: N_9  and  C_10
REMARK    5  A    between atoms: N_18  and  C_19
REMARK    6  A    between atoms: C_23  and  O_24
REMARK    7  A    between atoms: O_24  and  C_25
REMARK                            x       y       z     vdW  Elec       q    Type
REMARK                         _______ _______ _______ _____ _____    ______ ____
ROOT
ATOM      1  C   UNL     1       1.629   8.247  19.552  0.00  0.00    +0.000 C 
ATOM      2  O   UNL     1       1.942   8.654  18.438  0.00  0.00    +0.000 OA
ATOM      3  N   UNL     1       1.760   6.954  20.012  0.00  0.00    +0.000 N 
ATOM      4  H   UNL     1       1.297   6.719  20.883  0.00  0.00    +0.000 HD
ENDROOT
BRANCH   3   5
ATOM      5  C   UNL     1       2.477   5.918  19.374  0.00  0.00    +0.000 A 
ATOM      6  C   UNL     1       1.933   5.123  18.337  0.00  0.00    +0.000 A 
ATOM      7  C   UNL     1       2.755   4.339  17.513  0.00  0.00    +0.000 A 
ATOM      8  C   UNL     1       4.102   4.341  17.796  0.00  0.00    +0.000 A 
ATOM      9  C   UNL     1       4.594   4.974  18.920  0.00  0.00    +0.000 A 
ATOM     10  C   UNL     1       3.827   5.797  19.716  0.00  0.00    +0.000 A 
ATOM     11  C   UNL     1       6.037   4.875  18.901  0.00  0.00    +0.000 C 
ATOM     12  O   UNL     1       6.757   5.203  19.824  0.00  0.00    +0.000 OA
ATOM     13  N   UNL     1       6.368   4.417  17.663  0.00  0.00    +0.000 N 
ATOM     14  C   UNL     1       7.661   4.715  17.104  0.00  0.00    +0.000 C 
ATOM     15  C   UNL     1       5.265   4.028  16.952  0.00  0.00    +0.000 C 
ATOM     16  O   UNL     1       5.184   3.653  15.796  0.00  0.00    +0.000 OA
ENDBRANCH   3   5
BRANCH   1  20
ATOM     17  C   UNL     1      -0.271  10.910  22.317  0.00  0.00    +0.000 A 
ATOM     18  C   UNL     1      -0.102   9.545  22.607  0.00  0.00    +0.000 A 
ATOM     19  C   UNL     1       0.526   8.702  21.700  0.00  0.00    +0.000 A 
ATOM     20  C   UNL     1       0.970   9.201  20.475  0.00  0.00    +0.000 A 
ATOM     21  C   UNL     1       0.727  10.537  20.139  0.00  0.00    +0.000 A 
ATOM     22  C   UNL     1       0.099  11.401  21.052  0.00  0.00    +0.000 A 
BRANCH  17  24
ATOM     23  C   UNL     1      -2.243  11.846  23.221  0.00  0.00    +0.000 C 
ATOM     24  O   UNL     1      -0.819  11.756  23.245  0.00  0.00    +0.000 OA
ENDBRANCH  17  24
BRANCH  22  25
ATOM     25  O   UNL     1      -0.056  12.666  20.545  0.00  0.00    +0.000 OA
ATOM     26  C   UNL     1      -1.022  12.887  19.531  0.00  0.00    +0.000 C 
ENDBRANCH  22  25
ENDBRANCH   1  20
TORSDOF 4
ENDMDL
MODEL 3
REMARK VINA RESULT:      -7.7      2.754      8.746
REMARK  Name = 
REMARK  7 active torsions:
REMARK  status: ('A' for Active; 'I' for Inactive)
REMARK    1  A    between atoms: C_1  and  O_2
REMARK    2  A    between atoms: O_2  and  C_3
REMARK    3  A    between atoms: C_6  and  C_7
REMARK    4  A    between atoms: N_9  and  C_10
REMARK    5  A    between atoms: N_18  and  C_19
REMARK    6  A    between atoms: C_23  and  O_24
REMARK    7  A    between atoms: O_24  and  C_25
REMARK                            x       y       z     vdW  Elec       q    Type
REMARK                         _______ _______ _______ _____ _____    ______ ____
ROOT
ATOM      1  C   UNL     1       0.749   9.743  18.639  0.00  0.00    +0.000 C 
ATOM      2  O   UNL     1       1.481  10.431  19.342  0.00  0.00    +0.000 OA
ATOM      3  N   UNL     1       1.081   8.540  18.055  0.00  0.00    +0.000 N 
ATOM      4  H   UNL     1       0.447   8.169  17.356  0.00  0.00    +0.000 HD
ENDROOT
BRANCH   3   5
ATOM      5  C   UNL     1       2.234   7.773  18.336  0.00  0.00    +0.000 A 
ATOM      6  C   UNL     1       2.394   7.023  19.525  0.00  0.00    +0.000 A 
ATOM      7  C   UNL     1       3.380   6.030  19.632  0.00  0.00    +0.000 A 
ATOM      8  C   UNL     1       4.211   5.859  18.548  0.00  0.00    +0.000 A 
ATOM      9  C   UNL     1       4.161   6.719  17.469  0.00  0.00    +0.000 A 
ATOM     10  C   UNL     1       3.173   7.665  17.306  0.00  0.00    +0.000 A 
ATOM     11  C   UNL     1       5.086   6.239  16.464  0.00  0.00    +0.000 C 
ATOM     12  O   UNL     1       5.382   6.855  15.459  0.00  0.00    +0.000 OA
ATOM     13  N   UNL     1       5.463   4.994  16.861  0.00  0.00    +0.000 N 
ATOM     14  C   UNL     1       5.903   4.027  15.889  0.00  0.00    +0.000 C 
ATOM     15  C   UNL     1       5.020   4.706  18.125  0.00  0.00    +0.000 C 
ATOM     16  O   UNL     1       5.101   3.666  18.753  0.00  0.00    +0.000 OA
ENDBRANCH   3   5
BRANCH   1  20
ATOM     17  C   UNL     1      -3.108  11.388  17.769  0.00  0.00    +0.000 A 
ATOM     18  C   UNL     1      -2.351  11.829  18.868  0.00  0.00    +0.000 A 
ATOM     19  C   UNL     1      -1.098  11.289  19.126  0.00  0.00    +0.000 A 
ATOM     20  C   UNL     1      -0.593  10.278  18.307  0.00  0.00    +0.000 A 
ATOM     21  C   UNL     1      -1.375   9.769  17.264  0.00  0.00    +0.000 A 
ATOM     22  C   UNL     1      -2.641  10.314  16.991  0.00  0.00    +0.000 A 
BRANCH  17  24
ATOM     23  C   UNL     1      -5.240  12.043  18.550  0.00  0.00    +0.000 C 
ATOM     24  O   UNL     1      -4.309  11.977  17.470  0.00  0.00    +0.000 OA
ENDBRANCH  17  24
BRANCH  22  25
ATOM     25  O   UNL     1      -3.258   9.686  15.940  0.00  0.00    +0.000 OA
ATOM     26  C   UNL     1      -3.063  10.185  14.627  0.00  0.00    +0.000 C 
ENDBRANCH  22  25
ENDBRANCH   1  20
TORSDOF 4
ENDMDL
MODEL 4
REMARK VINA RESULT:      -7.6      1.439      1.621
REMARK  Name = 
REMARK  7 active torsions:
REMARK  status: ('A' for Active; 'I' for Inactive)
REMARK    1  A    between atoms: C_1  and  O_2
REMARK    2  A    between atoms: O_2  and  C_3
REMARK    3  A    between atoms: C_6  and  C_7
REMARK    4  A    between atoms: N_9  and  C_10
REMARK    5  A    between atoms: N_18  and  C_19
REMARK    6  A    between atoms: C_23  and  O_24
REMARK    7  A    between atoms: O_24  and  C_25
REMARK                            x       y       z     vdW  Elec       q    Type
REMARK                         _______ _______ _______ _____ _____    ______ ____
ROOT
ATOM      1  C   UNL     1       2.309   6.283  19.748  0.00  0.00    +0.000 C 
ATOM      2  O   UNL     1       1.596   5.522  20.394  0.00  0.00    +0.000 OA
ATOM      3  N   UNL     1       2.127   7.641  19.604  0.00  0.00    +0.000 N 
ATOM      4  H   UNL     1       2.683   8.115  18.900  0.00  0.00    +0.000 HD
ENDROOT
BRANCH   3   5
ATOM      5  C   UNL     1       1.227   8.440  20.345  0.00  0.00    +0.000 A 
ATOM      6  C   UNL     1       1.255   8.530  21.757  0.00  0.00    +0.000 A 
ATOM      7  C   UNL     1       0.582   9.560  22.434  0.00  0.00    +0.000 A 
ATOM      8  C   UNL     1      -0.142  10.441  21.663  0.00  0.00    +0.000 A 
ATOM      9  C   UNL     1      -0.308  10.233  20.308  0.00  0.00    +0.000 A 
ATOM     10  C   UNL     1       0.380   9.270  19.605  0.00  0.00    +0.000 A 
ATOM     11  C   UNL     1      -1.038  11.358  19.764  0.00  0.00    +0.000 C 
ATOM     12  O   UNL     1      -1.471  11.406  18.629  0.00  0.00    +0.000 OA
ATOM     13  N   UNL     1      -1.062  12.302  20.743  0.00  0.00    +0.000 N 
ATOM     14  C   UNL     1      -1.192  13.695  20.401  0.00  0.00    +0.000 C 
ATOM     15  C   UNL     1      -0.587  11.816  21.931  0.00  0.00    +0.000 C 
ATOM     16  O   UNL     1      -0.389  12.401  22.982  0.00  0.00    +0.000 OA
ENDBRANCH   3   5
BRANCH   1  20
ATOM     17  C   UNL     1       5.464   4.574  17.409  0.00  0.00    +0.000 A 
ATOM     18  C   UNL     1       4.148   4.657  16.922  0.00  0.00    +0.000 A 
ATOM     19  C   UNL     1       3.142   5.224  17.694  0.00  0.00    +0.000 A 
ATOM     20  C   UNL     1       3.428   5.692  18.977  0.00  0.00    +0.000 A 
ATOM     21  C   UNL     1       4.713   5.533  19.506  0.00  0.00    +0.000 A 
ATOM     22  C   UNL     1       5.740   4.967  18.731  0.00  0.00    +0.000 A 
BRANCH  17  24
ATOM     23  C   UNL     1       6.884   4.951  15.559  0.00  0.00    +0.000 C 
ATOM     24  O   UNL     1       6.470   4.086  16.617  0.00  0.00    +0.000 OA
ENDBRANCH  17  24
BRANCH  22  25
ATOM     25  O   UNL     1       6.924   4.889  19.418  0.00  0.00    +0.000 OA
ATOM     26  C   UNL     1       7.919   5.873  19.188  0.00  0.00    +0.000 C 
ENDBRANCH  22  25
ENDBRANCH   1  20
TORSDOF 4
ENDMDL
MODEL 5
REMARK VINA RESULT:      -7.6      2.200      8.798
REMARK  Name = 
REMARK  7 active torsions:
REMARK  status: ('A' for Active; 'I' for Inactive)
REMARK    1  A    between atoms: C_1  and  O_2
REMARK    2  A    between atoms: O_2  and  C_3
REMARK    3  A    between atoms: C_6  and  C_7
REMARK    4  A    between atoms: N_9  and  C_10
REMARK    5  A    between atoms: N_18  and  C_19
REMARK    6  A    between atoms: C_23  and  O_24
REMARK    7  A    between atoms: O_24  and  C_25
REMARK                            x       y       z     vdW  Elec       q    Type
REMARK                         _______ _______ _______ _____ _____    ______ ____
ROOT
ATOM      1  C   UNL     1       1.372   8.113  20.540  0.00  0.00    +0.000 C 
ATOM      2  O   UNL     1       1.592   7.114  21.217  0.00  0.00    +0.000 OA
ATOM      3  N   UNL     1       1.828   8.343  19.260  0.00  0.00    +0.000 N 
ATOM      4  H   UNL     1       1.723   9.281  18.889  0.00  0.00    +0.000 HD
ENDROOT
BRANCH   3   5
ATOM      5  C   UNL     1       2.438   7.391  18.414  0.00  0.00    +0.000 A 
ATOM      6  C   UNL     1       3.680   7.608  17.772  0.00  0.00    +0.000 A 
ATOM      7  C   UNL     1       4.407   6.545  17.215  0.00  0.00    +0.000 A 
ATOM      8  C   UNL     1       3.831   5.296  17.278  0.00  0.00    +0.000 A 
ATOM      9  C   UNL     1       2.542   5.129  17.743  0.00  0.00    +0.000 A 
ATOM     10  C   UNL     1       1.823   6.137  18.347  0.00  0.00    +0.000 A 
ATOM     11  C   UNL     1       2.250   3.712  17.767  0.00  0.00    +0.000 C 
ATOM     12  O   UNL     1       1.148   3.246  17.987  0.00  0.00    +0.000 OA
ATOM     13  N   UNL     1       3.435   3.078  17.562  0.00  0.00    +0.000 N 
ATOM     14  C   UNL     1       3.636   1.741  18.059  0.00  0.00    +0.000 C 
ATOM     15  C   UNL     1       4.428   3.954  17.214  0.00  0.00    +0.000 C 
ATOM     16  O   UNL     1       5.616   3.747  17.042  0.00  0.00    +0.000 OA
ENDBRANCH   3   5
BRANCH   1  20
ATOM     17  C   UNL     1      -0.798  11.253  22.482  0.00  0.00    +0.000 A 
ATOM     18  C   UNL     1      -0.498  10.049  23.141  0.00  0.00    +0.000 A 
ATOM     19  C   UNL     1       0.215   9.048  22.496  0.00  0.00    +0.000 A 
ATOM     20  C   UNL     1       0.616   9.221  21.171  0.00  0.00    +0.000 A 
ATOM     21  C   UNL     1       0.247  10.378  20.477  0.00  0.00    +0.000 A 
ATOM     22  C   UNL     1      -0.469  11.400  21.123  0.00  0.00    +0.000 A 
BRANCH  17  24
ATOM     23  C   UNL     1      -2.848  12.132  23.263  0.00  0.00    +0.000 C 
ATOM     24  O   UNL     1      -1.432  12.271  23.145  0.00  0.00    +0.000 OA
ENDBRANCH  17  24
BRANCH  22  25
ATOM     25  O   UNL     1      -0.744  12.449  20.283  0.00  0.00    +0.000 OA
ATOM     26  C   UNL     1      -1.831  12.342  19.379  0.00  0.00    +0.000 C 
ENDBRANCH  22  25
ENDBRANCH   1  20
TORSDOF 4
ENDMDL
MODEL 6
REMARK VINA RESULT:      -7.5      1.739      2.650
REMARK  Name = 
REMARK  7 active torsions:
REMARK  status: ('A' for Active; 'I' for Inactive)
REMARK    1  A    between atoms: C_1  and  O_2
REMARK    2  A    between atoms: O_2  and  C_3
REMARK    3  A    between atoms: C_6  and  C_7
REMARK    4  A    between atoms: N_9  and  C_10
REMARK    5  A    between atoms: N_18  and  C_19
REMARK    6  A    between atoms: C_23  and  O_24
REMARK    7  A    between atoms: O_24  and  C_25
REMARK                            x       y       z     vdW  Elec       q    Type
REMARK                         _______ _______ _______ _____ _____    ______ ____
ROOT
ATOM      1  C   UNL     1       1.994   6.702  20.093  0.00  0.00    +0.000 C 
ATOM      2  O   UNL     1       1.305   5.979  20.805  0.00  0.00    +0.000 OA
ATOM      3  N   UNL     1       1.800   8.049  19.874  0.00  0.00    +0.000 N 
ATOM      4  H   UNL     1       2.330   8.482  19.126  0.00  0.00    +0.000 HD
ENDROOT
BRANCH   3   5
ATOM      5  C   UNL     1       0.920   8.887  20.595  0.00  0.00    +0.000 A 
ATOM      6  C   UNL     1       0.863   8.915  22.009  0.00  0.00    +0.000 A 
ATOM      7  C   UNL     1       0.232   9.968  22.691  0.00  0.00    +0.000 A 
ATOM      8  C   UNL     1      -0.368  10.937  21.920  0.00  0.00    +0.000 A 
ATOM      9  C   UNL     1      -0.462  10.802  20.549  0.00  0.00    +0.000 A 
ATOM     10  C   UNL     1       0.192   9.815  19.845  0.00  0.00    +0.000 A 
ATOM     11  C   UNL     1      -1.062  12.005  20.015  0.00  0.00    +0.000 C 
ATOM     12  O   UNL     1      -1.415  12.136  18.859  0.00  0.00    +0.000 OA
ATOM     13  N   UNL     1      -1.075  12.906  21.034  0.00  0.00    +0.000 N 
ATOM     14  C   UNL     1      -1.071  14.317  20.751  0.00  0.00    +0.000 C 
ATOM     15  C   UNL     1      -0.718  12.332  22.225  0.00  0.00    +0.000 C 
ATOM     16  O   UNL     1      -0.544  12.854  23.312  0.00  0.00    +0.000 OA
ENDBRANCH   3   5
BRANCH   1  20
ATOM     17  C   UNL     1       5.162   4.982  17.782  0.00  0.00    +0.000 A 
ATOM     18  C   UNL     1       4.450   6.107  17.332  0.00  0.00    +0.000 A 
ATOM     19  C   UNL     1       3.433   6.655  18.102  0.00  0.00    +0.000 A 
ATOM     20  C   UNL     1       3.090   6.070  19.322  0.00  0.00    +0.000 A 
ATOM     21  C   UNL     1       3.731   4.898  19.737  0.00  0.00    +0.000 A 
ATOM     22  C   UNL     1       4.766   4.340  18.968  0.00  0.00    +0.000 A 
BRANCH  17  24
ATOM     23  C   UNL     1       7.510   4.817  17.569  0.00  0.00    +0.000 C 
ATOM     24  O   UNL     1       6.217   4.491  17.058  0.00  0.00    +0.000 OA
ENDBRANCH  17  24
BRANCH  22  25
ATOM     25  O   UNL     1       5.268   3.194  19.531  0.00  0.00    +0.000 OA
ATOM     26  C   UNL     1       4.367   2.213  20.016  0.00  0.00    +0.000 C 
ENDBRANCH  22  25
ENDBRANCH   1  20
TORSDOF 4
ENDMDL
MODEL 7
REMARK VINA RESULT:      -7.5      1.135      1.216
REMARK  Name = 
REMARK  7 active torsions:
REMARK  status: ('A' for Active; 'I' for Inactive)
REMARK    1  A    between atoms: C_1  and  O_2
REMARK    2  A    between atoms: O_2  and  C_3
REMARK    3  A    between atoms: C_6  and  C_7
REMARK    4  A    between atoms: N_9  and  C_10
REMARK    5  A    between atoms: N_18  and  C_19
REMARK    6  A    between atoms: C_23  and  O_24
REMARK    7  A    between atoms: O_24  and  C_25
REMARK                            x       y       z     vdW  Elec       q    Type
REMARK                         _______ _______ _______ _____ _____    ______ ____
ROOT
ATOM      1  C   UNL     1       3.013   6.554  18.989  0.00  0.00    +0.000 C 
ATOM      2  O   UNL     1       2.533   5.638  19.650  0.00  0.00    +0.000 OA
ATOM      3  N   UNL     1       2.515   7.836  18.897  0.00  0.00    +0.000 N 
ATOM      4  H   UNL     1       2.904   8.437  18.179  0.00  0.00    +0.000 HD
ENDROOT
BRANCH   3   5
ATOM      5  C   UNL     1       1.503   8.392  19.710  0.00  0.00    +0.000 A 
ATOM      6  C   UNL     1       1.323   8.044  21.070  0.00  0.00    +0.000 A 
ATOM      7  C   UNL     1       0.541   8.834  21.926  0.00  0.00    +0.000 A 
ATOM      8  C   UNL     1      -0.081   9.928  21.368  0.00  0.00    +0.000 A 
ATOM      9  C   UNL     1      -0.045  10.151  20.006  0.00  0.00    +0.000 A 
ATOM     10  C   UNL     1       0.756   9.431  19.148  0.00  0.00    +0.000 A 
ATOM     11  C   UNL     1      -0.709  11.408  19.736  0.00  0.00    +0.000 C 
ATOM     12  O   UNL     1      -0.974  11.814  18.621  0.00  0.00    +0.000 OA
ATOM     13  N   UNL     1      -0.893  12.006  20.943  0.00  0.00    +0.000 N 
ATOM     14  C   UNL     1      -0.998  13.439  21.032  0.00  0.00    +0.000 C 
ATOM     15  C   UNL     1      -0.586  11.166  21.980  0.00  0.00    +0.000 C 
ATOM     16  O   UNL     1      -0.554  11.395  23.176  0.00  0.00    +0.000 OA
ENDBRANCH   3   5
BRANCH   1  20
ATOM     17  C   UNL     1       6.353   5.745  16.434  0.00  0.00    +0.000 A 
ATOM     18  C   UNL     1       5.157   6.288  15.933  0.00  0.00    +0.000 A 
ATOM     19  C   UNL     1       4.090   6.552  16.781  0.00  0.00    +0.000 A 
ATOM     20  C   UNL     1       4.189   6.250  18.140  0.00  0.00    +0.000 A 
ATOM     21  C   UNL     1       5.340   5.628  18.634  0.00  0.00    +0.000 A 
ATOM     22  C   UNL     1       6.428   5.363  17.785  0.00  0.00    +0.000 A 
BRANCH  17  24
ATOM     23  C   UNL     1       7.150   4.898  14.377  0.00  0.00    +0.000 C 
ATOM     24  O   UNL     1       7.432   5.560  15.610  0.00  0.00    +0.000 OA
ENDBRANCH  17  24
BRANCH  22  25
ATOM     25  O   UNL     1       7.461   4.747  18.445  0.00  0.00    +0.000 OA
ATOM     26  C   UNL     1       8.100   5.426  19.513  0.00  0.00    +0.000 C 
ENDBRANCH  22  25
ENDBRANCH   1  20
TORSDOF 4
ENDMDL
MODEL 8
REMARK VINA RESULT:      -7.5      2.469      8.759
REMARK  Name = 
REMARK  7 active torsions:
REMARK  status: ('A' for Active; 'I' for Inactive)
REMARK    1  A    between atoms: C_1  and  O_2
REMARK    2  A    between atoms: O_2  and  C_3
REMARK    3  A    between atoms: C_6  and  C_7
REMARK    4  A    between atoms: N_9  and  C_10
REMARK    5  A    between atoms: N_18  and  C_19
REMARK    6  A    between atoms: C_23  and  O_24
REMARK    7  A    between atoms: O_24  and  C_25
REMARK                            x       y       z     vdW  Elec       q    Type
REMARK                         _______ _______ _______ _____ _____    ______ ____
ROOT
ATOM      1  C   UNL     1       0.635   9.644  19.117  0.00  0.00    +0.000 C 
ATOM      2  O   UNL     1       1.175  10.021  20.152  0.00  0.00    +0.000 OA
ATOM      3  N   UNL     1       1.136   8.714  18.231  0.00  0.00    +0.000 N 
ATOM      4  H   UNL     1       0.675   8.630  17.332  0.00  0.00    +0.000 HD
ENDROOT
BRANCH   3   5
ATOM      5  C   UNL     1       2.243   7.866  18.459  0.00  0.00    +0.000 A 
ATOM      6  C   UNL     1       2.367   7.045  19.605  0.00  0.00    +0.000 A 
ATOM      7  C   UNL     1       3.292   5.991  19.649  0.00  0.00    +0.000 A 
ATOM      8  C   UNL     1       4.102   5.828  18.548  0.00  0.00    +0.000 A 
ATOM      9  C   UNL     1       4.095   6.745  17.516  0.00  0.00    +0.000 A 
ATOM     10  C   UNL     1       3.165   7.756  17.414  0.00  0.00    +0.000 A 
ATOM     11  C   UNL     1       4.980   6.264  16.477  0.00  0.00    +0.000 C 
ATOM     12  O   UNL     1       5.305   6.914  15.502  0.00  0.00    +0.000 OA
ATOM     13  N   UNL     1       5.285   4.980  16.804  0.00  0.00    +0.000 N 
ATOM     14  C   UNL     1       5.657   4.041  15.778  0.00  0.00    +0.000 C 
ATOM     15  C   UNL     1       4.836   4.653  18.056  0.00  0.00    +0.000 C 
ATOM     16  O   UNL     1       4.859   3.578  18.628  0.00  0.00    +0.000 OA
ENDBRANCH   3   5
BRANCH   1  20
ATOM     17  C   UNL     1      -3.049  11.443  17.881  0.00  0.00    +0.000 A 
ATOM     18  C   UNL     1      -2.417  10.454  17.108  0.00  0.00    +0.000 A 
ATOM     19  C   UNL     1      -1.228   9.877  17.533  0.00  0.00    +0.000 A 
ATOM     20  C   UNL     1      -0.635  10.299  18.723  0.00  0.00    +0.000 A 
ATOM     21  C   UNL     1      -1.208  11.344  19.455  0.00  0.00    +0.000 A 
ATOM     22  C   UNL     1      -2.415  11.930  19.038  0.00  0.00    +0.000 A 
BRANCH  17  24
ATOM     23  C   UNL     1      -5.401  11.213  17.940  0.00  0.00    +0.000 C 
ATOM     24  O   UNL     1      -4.262  11.954  17.501  0.00  0.00    +0.000 OA
ENDBRANCH  17  24
BRANCH  22  25
ATOM     25  O   UNL     1      -2.817  12.938  19.876  0.00  0.00    +0.000 OA
ATOM     26  C   UNL     1      -3.084  12.638  21.236  0.00  0.00    +0.000 C 
ENDBRANCH  22  25
ENDBRANCH   1  20
TORSDOF 4
ENDMDL
MODEL 9
REMARK VINA RESULT:      -7.5      2.399      8.652
REMARK  Name = 
REMARK  7 active torsions:
REMARK  status: ('A' for Active; 'I' for Inactive)
REMARK    1  A    between atoms: C_1  and  O_2
REMARK    2  A    between atoms: O_2  and  C_3
REMARK    3  A    between atoms: C_6  and  C_7
REMARK    4  A    between atoms: N_9  and  C_10
REMARK    5  A    between atoms: N_18  and  C_19
REMARK    6  A    between atoms: C_23  and  O_24
REMARK    7  A    between atoms: O_24  and  C_25
REMARK                            x       y       z     vdW  Elec       q    Type
REMARK                         _______ _______ _______ _____ _____    ______ ____
ROOT
ATOM      1  C   UNL     1       1.295   8.845  19.511  0.00  0.00    +0.000 C 
ATOM      2  O   UNL     1       1.695   8.387  20.576  0.00  0.00    +0.000 OA
ATOM      3  N   UNL     1       1.760   8.510  18.258  0.00  0.00    +0.000 N 
ATOM      4  H   UNL     1       1.469   9.092  17.480  0.00  0.00    +0.000 HD
ENDROOT
BRANCH   3   5
ATOM      5  C   UNL     1       2.614   7.426  17.953  0.00  0.00    +0.000 A 
ATOM      6  C   UNL     1       3.935   7.593  17.474  0.00  0.00    +0.000 A 
ATOM      7  C   UNL     1       4.856   6.534  17.493  0.00  0.00    +0.000 A 
ATOM      8  C   UNL     1       4.397   5.319  17.950  0.00  0.00    +0.000 A 
ATOM      9  C   UNL     1       3.061   5.125  18.242  0.00  0.00    +0.000 A 
ATOM     10  C   UNL     1       2.145   6.153  18.289  0.00  0.00    +0.000 A 
ATOM     11  C   UNL     1       2.903   3.789  18.773  0.00  0.00    +0.000 C 
ATOM     12  O   UNL     1       1.828   3.263  18.988  0.00  0.00    +0.000 OA
ATOM     13  N   UNL     1       4.160   3.327  19.015  0.00  0.00    +0.000 N 
ATOM     14  C   UNL     1       4.379   2.317  20.018  0.00  0.00    +0.000 C 
ATOM     15  C   UNL     1       5.116   4.164  18.507  0.00  0.00    +0.000 C 
ATOM     16  O   UNL     1       6.329   4.105  18.612  0.00  0.00    +0.000 OA
ENDBRANCH   3   5
BRANCH   1  20
ATOM     17  C   UNL     1      -1.604  11.985  19.777  0.00  0.00    +0.000 A 
ATOM     18  C   UNL     1      -0.865  11.569  20.898  0.00  0.00    +0.000 A 
ATOM     19  C   UNL     1       0.078  10.556  20.787  0.00  0.00    +0.000 A 
ATOM     20  C   UNL     1       0.277   9.920  19.560  0.00  0.00    +0.000 A 
ATOM     21  C   UNL     1      -0.516  10.265  18.461  0.00  0.00    +0.000 A 
ATOM     22  C   UNL     1      -1.467  11.294  18.561  0.00  0.00    +0.000 A 
BRANCH  17  24
ATOM     23  C   UNL     1      -3.777  12.711  20.358  0.00  0.00    +0.000 C 
ATOM     24  O   UNL     1      -2.476  13.039  19.871  0.00  0.00    +0.000 OA
ENDBRANCH  17  24
BRANCH  22  25
ATOM     25  O   UNL     1      -2.149  11.485  17.386  0.00  0.00    +0.000 OA
ATOM     26  C   UNL     1      -2.362  10.378  16.526  0.00  0.00    +0.000 C 
ENDBRANCH  22  25
ENDBRANCH   1  20
TORSDOF 4
ENDMDL
