MODEL 1
REMARK VINA RESULT:      -7.0      0.000      0.000
REMARK  Name = 
REMARK  7 active torsions:
REMARK  status: ('A' for Active; 'I' for Inactive)
REMARK    1  A    between atoms: N_3  and  O_4
REMARK    2  A    between atoms: N_3  and  C_5
REMARK    3  A    between atoms: C_5  and  C_6
REMARK    4  A    between atoms: C_6  and  C_7
REMARK    5  A    between atoms: C_6  and  C_13
REMARK    6  A    between atoms: C_7  and  C_8
REMARK    7  A    between atoms: C_19  and  C_20
REMARK                            x       y       z     vdW  Elec       q    Type
REMARK                         _______ _______ _______ _____ _____    ______ ____
ROOT
ATOM      1  C   UNL     1       2.197   7.796  19.060  0.00  0.00    +0.000 C 
ATOM      2  O   UNL     1       2.934   8.390  18.267  0.00  0.00    +0.000 OA
ATOM      3  N   UNL     1       2.341   6.438  19.303  0.00  0.00    +0.000 N 
ATOM      4  C   UNL     1       1.421   5.612  20.082  0.00  0.00    +0.000 C 
ATOM      5  C   UNL     1       2.333   4.656  20.756  0.00  0.00    +0.000 C 
ATOM      6  C   UNL     1       3.579   4.772  20.283  0.00  0.00    +0.000 C 
ATOM      7  C   UNL     1       3.666   5.797  19.173  0.00  0.00    +0.000 C 
ENDROOT
BRANCH   7   8
ATOM      8  C   UNL     1       3.981   5.004  17.853  0.00  0.00    +0.000 C 
ATOM      9  O   UNL     1       3.069   4.562  17.144  0.00  0.00    +0.000 OA
ATOM     10  N   UNL     1       5.310   4.740  17.530  0.00  0.00    +0.000 N 
ATOM     11  C   UNL     1       6.444   5.561  17.945  0.00  0.00    +0.000 C 
ATOM     12  C   UNL     1       6.933   6.385  16.744  0.00  0.00    +0.000 C 
ATOM     13  O   UNL     1       7.347   5.509  15.682  0.00  0.00    +0.000 OA
ATOM     14  C   UNL     1       6.252   4.691  15.231  0.00  0.00    +0.000 C 
ATOM     15  C   UNL     1       5.632   3.882  16.381  0.00  0.00    +0.000 C 
ENDBRANCH   7   8
BRANCH   1  16
ATOM     16  C   UNL     1       1.128   8.564  19.862  0.00  0.00    +0.000 C 
BRANCH  16  17
ATOM     17  C   UNL     1       1.507   8.697  21.347  0.00  0.00    +0.000 C 
BRANCH  17  20
ATOM     18  O   UNL     1      -1.162  10.243  23.219  0.00  0.00    +0.000 OA
ATOM     19  C   UNL     1      -0.018   9.975  22.868  0.00  0.00    +0.000 C 
ATOM     20  N   UNL     1       0.332   8.817  22.215  0.00  0.00    +0.000 N 
BRANCH  20  21
ATOM     21  O   UNL     1      -0.768   8.026  21.788  0.00  0.00    +0.000 OA
ATOM     22  H   UNL     1      -1.506   8.406  22.321  0.00  0.00    +0.000 HD
ENDBRANCH  20  21
ENDBRANCH  17  20
ENDBRANCH  16  17
BRANCH  16  23
ATOM     23  C   UNL     1       0.678   9.895  19.215  0.00  0.00    +0.000 C 
BRANCH  23  24
ATOM     24  C   UNL     1      -0.824  10.198  19.089  0.00  0.00    +0.000 C 
ATOM     25  C   UNL     1      -1.242  11.621  19.444  0.00  0.00    +0.000 C 
ATOM     26  C   UNL     1      -2.621  11.758  18.808  0.00  0.00    +0.000 C 
ATOM     27  C   UNL     1      -2.571  10.923  17.532  0.00  0.00    +0.000 C 
ATOM     28  C   UNL     1      -1.301  10.079  17.630  0.00  0.00    +0.000 C 
ENDBRANCH  23  24
ENDBRANCH  16  23
ENDBRANCH   1  16
TORSDOF 7
ENDMDL
MODEL 2
REMARK VINA RESULT:      -6.9      0.911      1.203
REMARK  Name = 
REMARK  7 active torsions:
REMARK  status: ('A' for Active; 'I' for Inactive)
REMARK    1  A    between atoms: N_3  and  O_4
REMARK    2  A    between atoms: N_3  and  C_5
REMARK    3  A    between atoms: C_5  and  C_6
REMARK    4  A    between atoms: C_6  and  C_7
REMARK    5  A    between atoms: C_6  and  C_13
REMARK    6  A    between atoms: C_7  and  C_8
REMARK    7  A    between atoms: C_19  and  C_20
REMARK                            x       y       z     vdW  Elec       q    Type
REMARK                         _______ _______ _______ _____ _____    ______ ____
ROOT
ATOM      1  C   UNL     1       2.416   7.550  18.898  0.00  0.00    +0.000 C 
ATOM      2  O   UNL     1       3.186   8.159  18.150  0.00  0.00    +0.000 OA
ATOM      3  N   UNL     1       2.530   6.181  19.094  0.00  0.00    +0.000 N 
ATOM      4  C   UNL     1       1.573   5.343  19.814  0.00  0.00    +0.000 C 
ATOM      5  C   UNL     1       2.449   4.347  20.478  0.00  0.00    +0.000 C 
ATOM      6  C   UNL     1       3.710   4.458  20.047  0.00  0.00    +0.000 C 
ATOM      7  C   UNL     1       3.848   5.522  18.979  0.00  0.00    +0.000 C 
ENDROOT
BRANCH   7   8
ATOM      8  C   UNL     1       4.189   4.773  17.641  0.00  0.00    +0.000 C 
ATOM      9  O   UNL     1       3.292   4.312  16.923  0.00  0.00    +0.000 OA
ATOM     10  N   UNL     1       5.526   4.568  17.308  0.00  0.00    +0.000 N 
ATOM     11  C   UNL     1       6.629   5.423  17.740  0.00  0.00    +0.000 C 
ATOM     12  C   UNL     1       7.080   6.294  16.557  0.00  0.00    +0.000 C 
ATOM     13  O   UNL     1       7.525   5.459  15.473  0.00  0.00    +0.000 OA
ATOM     14  C   UNL     1       6.461   4.610  15.006  0.00  0.00    +0.000 C 
ATOM     15  C   UNL     1       5.878   3.751  16.138  0.00  0.00    +0.000 C 
ENDBRANCH   7   8
BRANCH   1  16
ATOM     16  C   UNL     1       1.336   8.306  19.696  0.00  0.00    +0.000 C 
BRANCH  16  17
ATOM     17  C   UNL     1       1.349   7.926  21.187  0.00  0.00    +0.000 C 
BRANCH  17  20
ATOM     18  O   UNL     1      -0.069  10.069  23.719  0.00  0.00    +0.000 OA
ATOM     19  C   UNL     1       0.002   9.412  22.686  0.00  0.00    +0.000 C 
ATOM     20  N   UNL     1       1.183   9.089  22.062  0.00  0.00    +0.000 N 
BRANCH  20  21
ATOM     21  O   UNL     1       2.349   9.402  22.812  0.00  0.00    +0.000 OA
ATOM     22  H   UNL     1       2.827  10.006  22.195  0.00  0.00    +0.000 HD
ENDBRANCH  20  21
ENDBRANCH  17  20
ENDBRANCH  16  17
BRANCH  16  23
ATOM     23  C   UNL     1       1.308   9.832  19.445  0.00  0.00    +0.000 C 
BRANCH  23  24
ATOM     24  C   UNL     1       0.172  10.434  18.602  0.00  0.00    +0.000 C 
ATOM     25  C   UNL     1      -0.499   9.478  17.621  0.00  0.00    +0.000 C 
ATOM     26  C   UNL     1      -1.816  10.172  17.290  0.00  0.00    +0.000 C 
ATOM     27  C   UNL     1      -2.234  10.892  18.568  0.00  0.00    +0.000 C 
ATOM     28  C   UNL     1      -1.012  10.870  19.485  0.00  0.00    +0.000 C 
ENDBRANCH  23  24
ENDBRANCH  16  23
ENDBRANCH   1  16
TORSDOF 7
ENDMDL
MODEL 3
REMARK VINA RESULT:      -6.7      3.710      7.441
REMARK  Name = 
REMARK  7 active torsions:
REMARK  status: ('A' for Active; 'I' for Inactive)
REMARK    1  A    between atoms: N_3  and  O_4
REMARK    2  A    between atoms: N_3  and  C_5
REMARK    3  A    between atoms: C_5  and  C_6
REMARK    4  A    between atoms: C_6  and  C_7
REMARK    5  A    between atoms: C_6  and  C_13
REMARK    6  A    between atoms: C_7  and  C_8
REMARK    7  A    between atoms: C_19  and  C_20
REMARK                            x       y       z     vdW  Elec       q    Type
REMARK                         _______ _______ _______ _____ _____    ______ ____
ROOT
ATOM      1  C   UNL     1       5.786   5.381  18.942  0.00  0.00    +0.000 C 
ATOM      2  O   UNL     1       5.974   4.765  19.995  0.00  0.00    +0.000 OA
ATOM      3  N   UNL     1       4.526   5.843  18.590  0.00  0.00    +0.000 N 
ATOM      4  C   UNL     1       4.165   6.425  17.299  0.00  0.00    +0.000 C 
ATOM      5  C   UNL     1       3.177   7.464  17.675  0.00  0.00    +0.000 C 
ATOM      6  C   UNL     1       2.853   7.368  18.969  0.00  0.00    +0.000 C 
ATOM      7  C   UNL     1       3.547   6.200  19.638  0.00  0.00    +0.000 C 
ENDROOT
BRANCH   7   8
ATOM      8  C   UNL     1       2.427   5.157  19.994  0.00  0.00    +0.000 C 
ATOM      9  O   UNL     1       1.435   5.489  20.655  0.00  0.00    +0.000 OA
ATOM     10  N   UNL     1       2.605   3.827  19.619  0.00  0.00    +0.000 N 
ATOM     11  C   UNL     1       3.404   3.387  18.479  0.00  0.00    +0.000 C 
ATOM     12  C   UNL     1       2.463   2.967  17.339  0.00  0.00    +0.000 C 
ATOM     13  O   UNL     1       1.619   1.885  17.771  0.00  0.00    +0.000 OA
ATOM     14  C   UNL     1       0.800   2.284  18.886  0.00  0.00    +0.000 C 
ATOM     15  C   UNL     1       1.647   2.803  20.059  0.00  0.00    +0.000 C 
ENDBRANCH   7   8
BRANCH   1  16
ATOM     16  C   UNL     1       6.966   5.715  18.009  0.00  0.00    +0.000 C 
BRANCH  16  17
ATOM     17  C   UNL     1       7.973   6.670  18.674  0.00  0.00    +0.000 C 
BRANCH  17  20
ATOM     18  O   UNL     1       8.867  10.083  17.925  0.00  0.00    +0.000 OA
ATOM     19  C   UNL     1       8.657   9.077  18.593  0.00  0.00    +0.000 C 
ATOM     20  N   UNL     1       7.840   8.047  18.193  0.00  0.00    +0.000 N 
BRANCH  20  21
ATOM     21  O   UNL     1       7.403   8.133  16.843  0.00  0.00    +0.000 OA
ATOM     22  H   UNL     1       7.958   7.442  16.409  0.00  0.00    +0.000 HD
ENDBRANCH  20  21
ENDBRANCH  17  20
ENDBRANCH  16  17
BRANCH  16  23
ATOM     23  C   UNL     1       7.624   4.484  17.344  0.00  0.00    +0.000 C 
BRANCH  23  24
ATOM     24  C   UNL     1       7.194   4.079  15.924  0.00  0.00    +0.000 C 
ATOM     25  C   UNL     1       5.706   3.804  15.738  0.00  0.00    +0.000 C 
ATOM     26  C   UNL     1       5.513   3.888  14.228  0.00  0.00    +0.000 C 
ATOM     27  C   UNL     1       6.493   4.952  13.746  0.00  0.00    +0.000 C 
ATOM     28  C   UNL     1       7.438   5.217  14.917  0.00  0.00    +0.000 C 
ENDBRANCH  23  24
ENDBRANCH  16  23
ENDBRANCH   1  16
TORSDOF 7
ENDMDL
MODEL 4
REMARK VINA RESULT:      -6.5      2.567      3.635
REMARK  Name = 
REMARK  7 active torsions:
REMARK  status: ('A' for Active; 'I' for Inactive)
REMARK    1  A    between atoms: N_3  and  O_4
REMARK    2  A    between atoms: N_3  and  C_5
REMARK    3  A    between atoms: C_5  and  C_6
REMARK    4  A    between atoms: C_6  and  C_7
REMARK    5  A    between atoms: C_6  and  C_13
REMARK    6  A    between atoms: C_7  and  C_8
REMARK    7  A    between atoms: C_19  and  C_20
REMARK                            x       y       z     vdW  Elec       q    Type
REMARK                         _______ _______ _______ _____ _____    ______ ____
ROOT
ATOM      1  C   UNL     1       3.157   5.781  19.055  0.00  0.00    +0.000 C 
ATOM      2  O   UNL     1       4.278   6.268  19.229  0.00  0.00    +0.000 OA
ATOM      3  N   UNL     1       2.958   4.719  18.183  0.00  0.00    +0.000 N 
ATOM      4  C   UNL     1       1.660   4.187  17.776  0.00  0.00    +0.000 C 
ATOM      5  C   UNL     1       1.928   2.733  17.656  0.00  0.00    +0.000 C 
ATOM      6  C   UNL     1       3.236   2.479  17.774  0.00  0.00    +0.000 C 
ATOM      7  C   UNL     1       4.044   3.748  17.937  0.00  0.00    +0.000 C 
ENDROOT
BRANCH   7   8
ATOM      8  C   UNL     1       4.900   3.906  16.628  0.00  0.00    +0.000 C 
ATOM      9  O   UNL     1       4.431   3.611  15.521  0.00  0.00    +0.000 OA
ATOM     10  N   UNL     1       6.227   4.316  16.739  0.00  0.00    +0.000 N 
ATOM     11  C   UNL     1       6.753   5.137  17.827  0.00  0.00    +0.000 C 
ATOM     12  C   UNL     1       6.971   6.569  17.313  0.00  0.00    +0.000 C 
ATOM     13  O   UNL     1       7.913   6.564  16.226  0.00  0.00    +0.000 OA
ATOM     14  C   UNL     1       7.423   5.778  15.124  0.00  0.00    +0.000 C 
ATOM     15  C   UNL     1       7.093   4.339  15.552  0.00  0.00    +0.000 C 
ENDBRANCH   7   8
BRANCH   1  16
ATOM     16  C   UNL     1       1.946   6.295  19.855  0.00  0.00    +0.000 C 
BRANCH  16  17
ATOM     17  C   UNL     1       1.786   5.557  21.196  0.00  0.00    +0.000 C 
BRANCH  17  20
ATOM     18  O   UNL     1       1.982   2.042  21.982  0.00  0.00    +0.000 OA
ATOM     19  C   UNL     1       2.358   3.193  21.791  0.00  0.00    +0.000 C 
ATOM     20  N   UNL     1       1.674   4.106  21.026  0.00  0.00    +0.000 N 
BRANCH  20  21
ATOM     21  O   UNL     1       0.377   3.684  20.625  0.00  0.00    +0.000 OA
ATOM     22  H   UNL     1      -0.099   4.545  20.551  0.00  0.00    +0.000 HD
ENDBRANCH  20  21
ENDBRANCH  17  20
ENDBRANCH  16  17
BRANCH  16  23
ATOM     23  C   UNL     1       1.870   7.835  19.982  0.00  0.00    +0.000 C 
BRANCH  23  24
ATOM     24  C   UNL     1       0.782   8.463  20.868  0.00  0.00    +0.000 C 
ATOM     25  C   UNL     1       1.262   9.037  22.196  0.00  0.00    +0.000 C 
ATOM     26  C   UNL     1       0.124   9.960  22.619  0.00  0.00    +0.000 C 
ATOM     27  C   UNL     1      -0.444  10.534  21.325  0.00  0.00    +0.000 C 
ATOM     28  C   UNL     1       0.151   9.696  20.194  0.00  0.00    +0.000 C 
ENDBRANCH  23  24
ENDBRANCH  16  23
ENDBRANCH   1  16
TORSDOF 7
ENDMDL
MODEL 5
REMARK VINA RESULT:      -6.5      3.855      7.792
REMARK  Name = 
REMARK  7 active torsions:
REMARK  status: ('A' for Active; 'I' for Inactive)
REMARK    1  A    between atoms: N_3  and  O_4
REMARK    2  A    between atoms: N_3  and  C_5
REMARK    3  A    between atoms: C_5  and  C_6
REMARK    4  A    between atoms: C_6  and  C_7
REMARK    5  A    between atoms: C_6  and  C_13
REMARK    6  A    between atoms: C_7  and  C_8
REMARK    7  A    between atoms: C_19  and  C_20
REMARK                            x       y       z     vdW  Elec       q    Type
REMARK                         _______ _______ _______ _____ _____    ______ ____
ROOT
ATOM      1  C   UNL     1       5.673   5.462  18.552  0.00  0.00    +0.000 C 
ATOM      2  O   UNL     1       5.671   4.625  19.460  0.00  0.00    +0.000 OA
ATOM      3  N   UNL     1       4.493   6.022  18.083  0.00  0.00    +0.000 N 
ATOM      4  C   UNL     1       4.370   6.882  16.908  0.00  0.00    +0.000 C 
ATOM      5  C   UNL     1       3.311   7.837  17.314  0.00  0.00    +0.000 C 
ATOM      6  C   UNL     1       2.753   7.467  18.471  0.00  0.00    +0.000 C 
ATOM      7  C   UNL     1       3.329   6.164  18.983  0.00  0.00    +0.000 C 
ENDROOT
BRANCH   7   8
ATOM      8  C   UNL     1       2.181   5.095  18.886  0.00  0.00    +0.000 C 
ATOM      9  O   UNL     1       1.677   4.800  17.794  0.00  0.00    +0.000 OA
ATOM     10  N   UNL     1       1.684   4.536  20.060  0.00  0.00    +0.000 N 
ATOM     11  C   UNL     1       2.445   4.393  21.298  0.00  0.00    +0.000 C 
ATOM     12  C   UNL     1       2.855   2.922  21.468  0.00  0.00    +0.000 C 
ATOM     13  O   UNL     1       1.683   2.090  21.535  0.00  0.00    +0.000 OA
ATOM     14  C   UNL     1       0.912   2.189  20.324  0.00  0.00    +0.000 C 
ATOM     15  C   UNL     1       0.518   3.642  20.015  0.00  0.00    +0.000 C 
ENDBRANCH   7   8
BRANCH   1  16
ATOM     16  C   UNL     1       7.000   5.965  17.953  0.00  0.00    +0.000 C 
BRANCH  16  17
ATOM     17  C   UNL     1       7.645   4.920  17.025  0.00  0.00    +0.000 C 
BRANCH  17  20
ATOM     18  O   UNL     1       6.579   4.167  13.661  0.00  0.00    +0.000 OA
ATOM     19  C   UNL     1       7.022   4.818  14.602  0.00  0.00    +0.000 C 
ATOM     20  N   UNL     1       6.762   4.533  15.921  0.00  0.00    +0.000 N 
BRANCH  20  21
ATOM     21  O   UNL     1       6.099   3.295  16.136  0.00  0.00    +0.000 OA
ATOM     22  H   UNL     1       5.852   3.364  17.089  0.00  0.00    +0.000 HD
ENDBRANCH  20  21
ENDBRANCH  17  20
ENDBRANCH  16  17
BRANCH  16  23
ATOM     23  C   UNL     1       6.928   7.381  17.336  0.00  0.00    +0.000 C 
BRANCH  23  24
ATOM     24  C   UNL     1       8.084   8.365  17.578  0.00  0.00    +0.000 C 
ATOM     25  C   UNL     1       7.727   9.843  17.464  0.00  0.00    +0.000 C 
ATOM     26  C   UNL     1       8.877  10.545  18.178  0.00  0.00    +0.000 C 
ATOM     27  C   UNL     1       9.293   9.609  19.308  0.00  0.00    +0.000 C 
ATOM     28  C   UNL     1       8.608   8.273  19.023  0.00  0.00    +0.000 C 
ENDBRANCH  23  24
ENDBRANCH  16  23
ENDBRANCH   1  16
TORSDOF 7
ENDMDL
MODEL 6
REMARK VINA RESULT:      -6.5      1.049      1.600
REMARK  Name = 
REMARK  7 active torsions:
REMARK  status: ('A' for Active; 'I' for Inactive)
REMARK    1  A    between atoms: N_3  and  O_4
REMARK    2  A    between atoms: N_3  and  C_5
REMARK    3  A    between atoms: C_5  and  C_6
REMARK    4  A    between atoms: C_6  and  C_7
REMARK    5  A    between atoms: C_6  and  C_13
REMARK    6  A    between atoms: C_7  and  C_8
REMARK    7  A    between atoms: C_19  and  C_20
REMARK                            x       y       z     vdW  Elec       q    Type
REMARK                         _______ _______ _______ _____ _____    ______ ____
ROOT
ATOM      1  C   UNL     1       2.193   7.799  19.034  0.00  0.00    +0.000 C 
ATOM      2  O   UNL     1       2.951   8.391  18.260  0.00  0.00    +0.000 OA
ATOM      3  N   UNL     1       2.332   6.441  19.284  0.00  0.00    +0.000 N 
ATOM      4  C   UNL     1       1.392   5.616  20.039  0.00  0.00    +0.000 C 
ATOM      5  C   UNL     1       2.286   4.663  20.740  0.00  0.00    +0.000 C 
ATOM      6  C   UNL     1       3.544   4.780  20.302  0.00  0.00    +0.000 C 
ATOM      7  C   UNL     1       3.662   5.802  19.193  0.00  0.00    +0.000 C 
ENDROOT
BRANCH   7   8
ATOM      8  C   UNL     1       4.015   5.007  17.884  0.00  0.00    +0.000 C 
ATOM      9  O   UNL     1       3.123   4.530  17.169  0.00  0.00    +0.000 OA
ATOM     10  N   UNL     1       5.354   4.779  17.577  0.00  0.00    +0.000 N 
ATOM     11  C   UNL     1       6.458   5.639  17.996  0.00  0.00    +0.000 C 
ATOM     12  C   UNL     1       6.934   6.467  16.792  0.00  0.00    +0.000 C 
ATOM     13  O   UNL     1       7.386   5.593  15.742  0.00  0.00    +0.000 OA
ATOM     14  C   UNL     1       6.321   4.738  15.288  0.00  0.00    +0.000 C 
ATOM     15  C   UNL     1       5.714   3.921  16.439  0.00  0.00    +0.000 C 
ENDBRANCH   7   8
BRANCH   1  16
ATOM     16  C   UNL     1       1.101   8.567  19.803  0.00  0.00    +0.000 C 
BRANCH  16  17
ATOM     17  C   UNL     1       1.503   8.829  21.265  0.00  0.00    +0.000 C 
BRANCH  17  20
ATOM     18  O   UNL     1      -1.167  10.190  23.274  0.00  0.00    +0.000 OA
ATOM     19  C   UNL     1      -0.024   9.978  22.884  0.00  0.00    +0.000 C 
ATOM     20  N   UNL     1       0.346   8.867  22.165  0.00  0.00    +0.000 N 
BRANCH  20  21
ATOM     21  O   UNL     1      -0.739   8.063  21.722  0.00  0.00    +0.000 OA
ATOM     22  H   UNL     1      -1.514   8.571  22.060  0.00  0.00    +0.000 HD
ENDBRANCH  20  21
ENDBRANCH  17  20
ENDBRANCH  16  17
BRANCH  16  23
ATOM     23  C   UNL     1       0.567   9.821  19.073  0.00  0.00    +0.000 C 
BRANCH  23  24
ATOM     24  C   UNL     1       1.055  11.211  19.513  0.00  0.00    +0.000 C 
ATOM     25  C   UNL     1       1.893  11.970  18.491  0.00  0.00    +0.000 C 
ATOM     26  C   UNL     1       1.836  13.413  18.982  0.00  0.00    +0.000 C 
ATOM     27  C   UNL     1       0.451  13.583  19.597  0.00  0.00    +0.000 C 
ATOM     28  C   UNL     1      -0.125  12.175  19.740  0.00  0.00    +0.000 C 
ENDBRANCH  23  24
ENDBRANCH  16  23
ENDBRANCH   1  16
TORSDOF 7
ENDMDL
MODEL 7
REMARK VINA RESULT:      -6.5      2.489      7.793
REMARK  Name = 
REMARK  7 active torsions:
REMARK  status: ('A' for Active; 'I' for Inactive)
REMARK    1  A    between atoms: N_3  and  O_4
REMARK    2  A    between atoms: N_3  and  C_5
REMARK    3  A    between atoms: C_5  and  C_6
REMARK    4  A    between atoms: C_6  and  C_7
REMARK    5  A    between atoms: C_6  and  C_13
REMARK    6  A    between atoms: C_7  and  C_8
REMARK    7  A    between atoms: C_19  and  C_20
REMARK                            x       y       z     vdW  Elec       q    Type
REMARK                         _______ _______ _______ _____ _____    ______ ____
ROOT
ATOM      1  C   UNL     1       4.581   6.320  17.545  0.00  0.00    +0.000 C 
ATOM      2  O   UNL     1       4.398   7.441  17.062  0.00  0.00    +0.000 OA
ATOM      3  N   UNL     1       3.757   5.819  18.543  0.00  0.00    +0.000 N 
ATOM      4  C   UNL     1       3.988   4.590  19.297  0.00  0.00    +0.000 C 
ATOM      5  C   UNL     1       2.614   4.069  19.498  0.00  0.00    +0.000 C 
ATOM      6  C   UNL     1       1.703   4.963  19.101  0.00  0.00    +0.000 C 
ATOM      7  C   UNL     1       2.345   6.248  18.624  0.00  0.00    +0.000 C 
ENDROOT
BRANCH   7   8
ATOM      8  C   UNL     1       1.964   7.357  19.670  0.00  0.00    +0.000 C 
ATOM      9  O   UNL     1       2.235   7.220  20.870  0.00  0.00    +0.000 OA
ATOM     10  N   UNL     1       1.246   8.470  19.237  0.00  0.00    +0.000 N 
ATOM     11  C   UNL     1       1.285   9.005  17.879  0.00  0.00    +0.000 C 
ATOM     12  C   UNL     1       2.135  10.285  17.868  0.00  0.00    +0.000 C 
ATOM     13  O   UNL     1       1.557  11.266  18.747  0.00  0.00    +0.000 OA
ATOM     14  C   UNL     1       1.516  10.784  20.102  0.00  0.00    +0.000 C 
ATOM     15  C   UNL     1       0.754   9.453  20.211  0.00  0.00    +0.000 C 
ENDBRANCH   7   8
BRANCH   1  16
ATOM     16  C   UNL     1       5.699   5.407  17.005  0.00  0.00    +0.000 C 
BRANCH  16  17
ATOM     17  C   UNL     1       6.580   4.846  18.135  0.00  0.00    +0.000 C 
BRANCH  17  20
ATOM     18  O   UNL     1       8.414   7.920  18.584  0.00  0.00    +0.000 OA
ATOM     19  C   UNL     1       7.799   7.030  18.007  0.00  0.00    +0.000 C 
ATOM     20  N   UNL     1       7.683   5.746  18.484  0.00  0.00    +0.000 N 
BRANCH  20  21
ATOM     21  O   UNL     1       8.161   5.564  19.809  0.00  0.00    +0.000 OA
ATOM     22  H   UNL     1       8.229   6.496  20.126  0.00  0.00    +0.000 HD
ENDBRANCH  20  21
ENDBRANCH  17  20
ENDBRANCH  16  17
BRANCH  16  23
ATOM     23  C   UNL     1       5.219   4.333  16.002  0.00  0.00    +0.000 C 
BRANCH  23  24
ATOM     24  C   UNL     1       6.126   3.950  14.821  0.00  0.00    +0.000 C 
ATOM     25  C   UNL     1       5.414   3.706  13.495  0.00  0.00    +0.000 C 
ATOM     26  C   UNL     1       6.534   3.808  12.464  0.00  0.00    +0.000 C 
ATOM     27  C   UNL     1       7.498   4.858  13.006  0.00  0.00    +0.000 C 
ATOM     28  C   UNL     1       7.092   5.093  14.461  0.00  0.00    +0.000 C 
ENDBRANCH  23  24
ENDBRANCH  16  23
ENDBRANCH   1  16
TORSDOF 7
ENDMDL
MODEL 8
REMARK VINA RESULT:      -6.5      2.544      7.313
REMARK  Name = 
REMARK  7 active torsions:
REMARK  status: ('A' for Active; 'I' for Inactive)
REMARK    1  A    between atoms: N_3  and  O_4
REMARK    2  A    between atoms: N_3  and  C_5
REMARK    3  A    between atoms: C_5  and  C_6
REMARK    4  A    between atoms: C_6  and  C_7
REMARK    5  A    between atoms: C_6  and  C_13
REMARK    6  A    between atoms: C_7  and  C_8
REMARK    7  A    between atoms: C_19  and  C_20
REMARK                            x       y       z     vdW  Elec       q    Type
REMARK                         _______ _______ _______ _____ _____    ______ ____
ROOT
ATOM      1  C   UNL     1       2.357   8.082  18.965  0.00  0.00    +0.000 C 
ATOM      2  O   UNL     1       2.642   8.910  18.095  0.00  0.00    +0.000 OA
ATOM      3  N   UNL     1       1.601   8.431  20.075  0.00  0.00    +0.000 N 
ATOM      4  C   UNL     1       1.357   7.580  21.237  0.00  0.00    +0.000 C 
ATOM      5  C   UNL     1      -0.032   7.936  21.615  0.00  0.00    +0.000 C 
ATOM      6  C   UNL     1      -0.465   8.985  20.907  0.00  0.00    +0.000 C 
ATOM      7  C   UNL     1       0.608   9.521  19.984  0.00  0.00    +0.000 C 
ENDROOT
BRANCH   7   8
ATOM      8  C   UNL     1       1.008  10.938  20.534  0.00  0.00    +0.000 C 
ATOM      9  O   UNL     1       1.235  11.111  21.738  0.00  0.00    +0.000 OA
ATOM     10  N   UNL     1       1.031  12.018  19.655  0.00  0.00    +0.000 N 
ATOM     11  C   UNL     1       1.273  11.913  18.218  0.00  0.00    +0.000 C 
ATOM     12  C   UNL     1       2.700  12.394  17.914  0.00  0.00    +0.000 C 
ATOM     13  O   UNL     1       2.855  13.765  18.321  0.00  0.00    +0.000 OA
ATOM     14  C   UNL     1       2.640  13.910  19.737  0.00  0.00    +0.000 C 
ATOM     15  C   UNL     1       1.262  13.377  20.163  0.00  0.00    +0.000 C 
ENDBRANCH   7   8
BRANCH   1  16
ATOM     16  C   UNL     1       2.780   6.608  18.812  0.00  0.00    +0.000 C 
BRANCH  16  17
ATOM     17  C   UNL     1       1.704   5.773  18.095  0.00  0.00    +0.000 C 
BRANCH  17  20
ATOM     18  O   UNL     1       0.726   2.928  20.087  0.00  0.00    +0.000 OA
ATOM     19  C   UNL     1       1.183   4.035  19.821  0.00  0.00    +0.000 C 
ATOM     20  N   UNL     1       1.655   4.391  18.580  0.00  0.00    +0.000 N 
BRANCH  20  21
ATOM     21  O   UNL     1       1.392   3.443  17.555  0.00  0.00    +0.000 OA
ATOM     22  H   UNL     1       0.406   3.397  17.574  0.00  0.00    +0.000 HD
ENDBRANCH  20  21
ENDBRANCH  17  20
ENDBRANCH  16  17
BRANCH  16  23
ATOM     23  C   UNL     1       4.203   6.407  18.242  0.00  0.00    +0.000 C 
BRANCH  23  24
ATOM     24  C   UNL     1       4.385   5.604  16.944  0.00  0.00    +0.000 C 
ATOM     25  C   UNL     1       5.233   6.274  15.868  0.00  0.00    +0.000 C 
ATOM     26  C   UNL     1       5.615   5.121  14.944  0.00  0.00    +0.000 C 
ATOM     27  C   UNL     1       5.766   3.903  15.849  0.00  0.00    +0.000 C 
ATOM     28  C   UNL     1       5.160   4.298  17.195  0.00  0.00    +0.000 C 
ENDBRANCH  23  24
ENDBRANCH  16  23
ENDBRANCH   1  16
TORSDOF 7
ENDMDL
MODEL 9
REMARK VINA RESULT:      -6.4      6.228      9.664
REMARK  Name = 
REMARK  7 active torsions:
REMARK  status: ('A' for Active; 'I' for Inactive)
REMARK    1  A    between atoms: N_3  and  O_4
REMARK    2  A    between atoms: N_3  and  C_5
REMARK    3  A    between atoms: C_5  and  C_6
REMARK    4  A    between atoms: C_6  and  C_7
REMARK    5  A    between atoms: C_6  and  C_13
REMARK    6  A    between atoms: C_7  and  C_8
REMARK    7  A    between atoms: C_19  and  C_20
REMARK                            x       y       z     vdW  Elec       q    Type
REMARK                         _______ _______ _______ _____ _____    ______ ____
ROOT
ATOM      1  C   UNL     1      -2.029  12.216  19.350  0.00  0.00    +0.000 C 
ATOM      2  O   UNL     1      -2.620  13.029  20.067  0.00  0.00    +0.000 OA
ATOM      3  N   UNL     1      -2.721  11.363  18.502  0.00  0.00    +0.000 N 
ATOM      4  C   UNL     1      -2.136  10.256  17.749  0.00  0.00    +0.000 C 
ATOM      5  C   UNL     1      -2.915  10.274  16.487  0.00  0.00    +0.000 C 
ATOM      6  C   UNL     1      -3.939  11.130  16.571  0.00  0.00    +0.000 C 
ATOM      7  C   UNL     1      -4.024  11.773  17.939  0.00  0.00    +0.000 C 
ENDROOT
BRANCH   7   8
ATOM      8  C   UNL     1      -5.332  11.222  18.614  0.00  0.00    +0.000 C 
ATOM      9  O   UNL     1      -5.605  10.015  18.582  0.00  0.00    +0.000 OA
ATOM     10  N   UNL     1      -6.223  12.126  19.189  0.00  0.00    +0.000 N 
ATOM     11  C   UNL     1      -5.848  13.429  19.731  0.00  0.00    +0.000 C 
ATOM     12  C   UNL     1      -5.854  13.354  21.265  0.00  0.00    +0.000 C 
ATOM     13  O   UNL     1      -7.168  13.006  21.736  0.00  0.00    +0.000 OA
ATOM     14  C   UNL     1      -7.569  11.717  21.237  0.00  0.00    +0.000 C 
ATOM     15  C   UNL     1      -7.518  11.658  19.702  0.00  0.00    +0.000 C 
ENDBRANCH   7   8
BRANCH   1  16
ATOM     16  C   UNL     1      -0.489  12.167  19.326  0.00  0.00    +0.000 C 
BRANCH  16  17
ATOM     17  C   UNL     1       0.102  13.153  18.304  0.00  0.00    +0.000 C 
BRANCH  17  20
ATOM     18  O   UNL     1       1.619  16.382  18.841  0.00  0.00    +0.000 OA
ATOM     19  C   UNL     1       1.520  15.161  18.779  0.00  0.00    +0.000 C 
ATOM     20  N   UNL     1       0.329  14.483  18.876  0.00  0.00    +0.000 N 
BRANCH  20  21
ATOM     21  O   UNL     1      -0.825  15.312  18.851  0.00  0.00    +0.000 OA
ATOM     22  H   UNL     1      -0.576  15.980  18.170  0.00  0.00    +0.000 HD
ENDBRANCH  20  21
ENDBRANCH  17  20
ENDBRANCH  16  17
BRANCH  16  23
ATOM     23  C   UNL     1       0.175  12.246  20.720  0.00  0.00    +0.000 C 
BRANCH  23  24
ATOM     24  C   UNL     1       0.354  10.958  21.541  0.00  0.00    +0.000 C 
ATOM     25  C   UNL     1      -0.638  10.760  22.682  0.00  0.00    +0.000 C 
ATOM     26  C   UNL     1      -0.530   9.271  22.995  0.00  0.00    +0.000 C 
ATOM     27  C   UNL     1      -0.255   8.588  21.659  0.00  0.00    +0.000 C 
ATOM     28  C   UNL     1       0.108   9.705  20.680  0.00  0.00    +0.000 C 
ENDBRANCH  23  24
ENDBRANCH  16  23
ENDBRANCH   1  16
TORSDOF 7
ENDMDL
