MODEL 1
REMARK VINA RESULT:      -6.6      0.000      0.000
REMARK  Name = 
REMARK  12 active torsions:
REMARK  status: ('A' for Active; 'I' for Inactive)
REMARK    1  A    between atoms: C_1  and  O_2
REMARK    2  A    between atoms: O_2  and  C_3
REMARK    3  A    between atoms: C_3  and  C_4
REMARK    4  A    between atoms: C_3  and  O_23
REMARK    5  A    between atoms: C_4  and  N_5
REMARK    6  A    between atoms: C_6  and  S_7
REMARK    7  A    between atoms: C_10  and  C_11
REMARK    8  A    between atoms: C_15  and  S_16
REMARK    9  A    between atoms: S_16  and  N_19
REMARK   10  A    between atoms: N_19  and  C_20
REMARK   11  A    between atoms: N_19  and  C_21
REMARK   12  A    between atoms: O_23  and  C_24
REMARK                            x       y       z     vdW  Elec       q    Type
REMARK                         _______ _______ _______ _____ _____    ______ ____
ROOT
ATOM      1  N   UNL     1       3.727   4.284  18.772  0.00  0.00    +0.000 N 
ATOM      2  C   UNL     1       3.520   3.040  19.297  0.00  0.00    +0.000 A 
ATOM      3  N   UNL     1       3.022   3.143  20.507  0.00  0.00    +0.000 NA
ATOM      4  N   UNL     1       2.706   4.459  20.711  0.00  0.00    +0.000 NA
ATOM      5  C   UNL     1       2.983   5.126  19.604  0.00  0.00    +0.000 A 
ENDROOT
BRANCH   5   6
ATOM      6  C   UNL     1       2.487   6.473  19.300  0.00  0.00    +0.000 A 
ATOM      7  C   UNL     1       2.803   7.082  18.076  0.00  0.00    +0.000 A 
ATOM      8  C   UNL     1       2.416   8.402  17.804  0.00  0.00    +0.000 A 
ATOM      9  C   UNL     1       1.724   9.140  18.759  0.00  0.00    +0.000 A 
ATOM     10  C   UNL     1       1.444   8.553  19.996  0.00  0.00    +0.000 A 
ATOM     11  C   UNL     1       1.806   7.234  20.259  0.00  0.00    +0.000 A 
BRANCH  10  12
ATOM     12  S   UNL     1       0.645   9.497  21.272  0.00  0.00    +0.000 S 
ATOM     13  O   UNL     1      -0.558   8.791  21.638  0.00  0.00    +0.000 OA
ATOM     14  O   UNL     1       1.648   9.815  22.258  0.00  0.00    +0.000 OA
BRANCH  12  15
ATOM     15  N   UNL     1       0.203  10.927  20.453  0.00  0.00    +0.000 NA
ATOM     16  C   UNL     1      -1.095  10.933  19.756  0.00  0.00    +0.000 C 
ATOM     17  C   UNL     1       0.478  12.188  21.163  0.00  0.00    +0.000 C 
ENDBRANCH  12  15
ENDBRANCH  10  12
ENDBRANCH   5   6
BRANCH   2  18
ATOM     18  S   UNL     1       3.655   1.543  18.459  0.00  0.00    +0.000 S 
ATOM     19  H   UNL     1       2.374   1.167  18.546  0.00  0.00    +0.000 HD
ENDBRANCH   2  18
BRANCH   1  20
ATOM     20  C   UNL     1       4.432   4.743  17.590  0.00  0.00    +0.000 C 
BRANCH  20  21
ATOM     21  C   UNL     1       5.952   5.015  17.576  0.00  0.00    +0.000 C 
BRANCH  21  23
ATOM     22  C   UNL     1       6.778   4.690  15.311  0.00  0.00    +0.000 C 
ATOM     23  O   UNL     1       6.610   4.174  16.617  0.00  0.00    +0.000 OA
ENDBRANCH  21  23
BRANCH  21  24
ATOM     24  O   UNL     1       6.473   4.632  18.848  0.00  0.00    +0.000 OA
ATOM     25  C   UNL     1       7.311   5.607  19.447  0.00  0.00    +0.000 C 
ENDBRANCH  21  24
ENDBRANCH  20  21
ENDBRANCH   1  20
TORSDOF 8
ENDMDL
MODEL 2
REMARK VINA RESULT:      -6.5      0.643      1.295
REMARK  Name = 
REMARK  12 active torsions:
REMARK  status: ('A' for Active; 'I' for Inactive)
REMARK    1  A    between atoms: C_1  and  O_2
REMARK    2  A    between atoms: O_2  and  C_3
REMARK    3  A    between atoms: C_3  and  C_4
REMARK    4  A    between atoms: C_3  and  O_23
REMARK    5  A    between atoms: C_4  and  N_5
REMARK    6  A    between atoms: C_6  and  S_7
REMARK    7  A    between atoms: C_10  and  C_11
REMARK    8  A    between atoms: C_15  and  S_16
REMARK    9  A    between atoms: S_16  and  N_19
REMARK   10  A    between atoms: N_19  and  C_20
REMARK   11  A    between atoms: N_19  and  C_21
REMARK   12  A    between atoms: O_23  and  C_24
REMARK                            x       y       z     vdW  Elec       q    Type
REMARK                         _______ _______ _______ _____ _____    ______ ____
ROOT
ATOM      1  N   UNL     1       3.804   4.153  18.985  0.00  0.00    +0.000 N 
ATOM      2  C   UNL     1       3.526   2.898  19.449  0.00  0.00    +0.000 A 
ATOM      3  N   UNL     1       2.867   2.978  20.581  0.00  0.00    +0.000 NA
ATOM      4  N   UNL     1       2.527   4.289  20.770  0.00  0.00    +0.000 NA
ATOM      5  C   UNL     1       2.954   4.979  19.726  0.00  0.00    +0.000 A 
ENDROOT
BRANCH   5   6
ATOM      6  C   UNL     1       2.505   6.334  19.386  0.00  0.00    +0.000 A 
ATOM      7  C   UNL     1       2.880   6.917  18.165  0.00  0.00    +0.000 A 
ATOM      8  C   UNL     1       2.539   8.242  17.863  0.00  0.00    +0.000 A 
ATOM      9  C   UNL     1       1.834   9.012  18.783  0.00  0.00    +0.000 A 
ATOM     10  C   UNL     1       1.496   8.452  20.017  0.00  0.00    +0.000 A 
ATOM     11  C   UNL     1       1.813   7.127  20.310  0.00  0.00    +0.000 A 
BRANCH  10  12
ATOM     12  S   UNL     1       0.679   9.435  21.251  0.00  0.00    +0.000 S 
ATOM     13  O   UNL     1      -0.536   8.748  21.611  0.00  0.00    +0.000 OA
ATOM     14  O   UNL     1       1.664   9.771  22.248  0.00  0.00    +0.000 OA
BRANCH  12  15
ATOM     15  N   UNL     1       0.264  10.846  20.386  0.00  0.00    +0.000 NA
ATOM     16  C   UNL     1      -1.068  10.888  19.760  0.00  0.00    +0.000 C 
ATOM     17  C   UNL     1       0.642  12.123  21.016  0.00  0.00    +0.000 C 
ENDBRANCH  12  15
ENDBRANCH  10  12
ENDBRANCH   5   6
BRANCH   2  18
ATOM     18  S   UNL     1       3.772   1.419  18.605  0.00  0.00    +0.000 S 
ATOM     19  H   UNL     1       2.489   1.131  18.359  0.00  0.00    +0.000 HD
ENDBRANCH   2  18
BRANCH   1  20
ATOM     20  C   UNL     1       4.664   4.634  17.920  0.00  0.00    +0.000 C 
BRANCH  20  21
ATOM     21  C   UNL     1       6.203   4.672  18.042  0.00  0.00    +0.000 C 
BRANCH  21  23
ATOM     22  C   UNL     1       7.274   6.796  17.531  0.00  0.00    +0.000 C 
ATOM     23  O   UNL     1       6.646   5.964  18.486  0.00  0.00    +0.000 OA
ENDBRANCH  21  23
BRANCH  21  24
ATOM     24  O   UNL     1       6.746   4.507  16.734  0.00  0.00    +0.000 OA
ATOM     25  C   UNL     1       5.870   3.865  15.821  0.00  0.00    +0.000 C 
ENDBRANCH  21  24
ENDBRANCH  20  21
ENDBRANCH   1  20
TORSDOF 8
ENDMDL
MODEL 3
REMARK VINA RESULT:      -6.5      2.482      3.201
REMARK  Name = 
REMARK  12 active torsions:
REMARK  status: ('A' for Active; 'I' for Inactive)
REMARK    1  A    between atoms: C_1  and  O_2
REMARK    2  A    between atoms: O_2  and  C_3
REMARK    3  A    between atoms: C_3  and  C_4
REMARK    4  A    between atoms: C_3  and  O_23
REMARK    5  A    between atoms: C_4  and  N_5
REMARK    6  A    between atoms: C_6  and  S_7
REMARK    7  A    between atoms: C_10  and  C_11
REMARK    8  A    between atoms: C_15  and  S_16
REMARK    9  A    between atoms: S_16  and  N_19
REMARK   10  A    between atoms: N_19  and  C_20
REMARK   11  A    between atoms: N_19  and  C_21
REMARK   12  A    between atoms: O_23  and  C_24
REMARK                            x       y       z     vdW  Elec       q    Type
REMARK                         _______ _______ _______ _____ _____    ______ ____
ROOT
ATOM      1  N   UNL     1       4.960   5.638  16.987  0.00  0.00    +0.000 N 
ATOM      2  C   UNL     1       5.009   4.552  16.159  0.00  0.00    +0.000 A 
ATOM      3  N   UNL     1       4.366   3.547  16.704  0.00  0.00    +0.000 NA
ATOM      4  N   UNL     1       3.711   4.024  17.806  0.00  0.00    +0.000 NA
ATOM      5  C   UNL     1       3.939   5.324  17.889  0.00  0.00    +0.000 A 
ENDROOT
BRANCH   5   6
ATOM      6  C   UNL     1       3.163   6.251  18.719  0.00  0.00    +0.000 A 
ATOM      7  C   UNL     1       2.749   5.871  20.006  0.00  0.00    +0.000 A 
ATOM      8  C   UNL     1       1.930   6.705  20.778  0.00  0.00    +0.000 A 
ATOM      9  C   UNL     1       1.495   7.925  20.270  0.00  0.00    +0.000 A 
ATOM     10  C   UNL     1       1.867   8.290  18.974  0.00  0.00    +0.000 A 
ATOM     11  C   UNL     1       2.701   7.473  18.214  0.00  0.00    +0.000 A 
BRANCH  10  12
ATOM     12  S   UNL     1       1.253   9.797  18.258  0.00  0.00    +0.000 S 
ATOM     13  O   UNL     1       2.358  10.433  17.585  0.00  0.00    +0.000 OA
ATOM     14  O   UNL     1       0.043   9.468  17.548  0.00  0.00    +0.000 OA
BRANCH  12  15
ATOM     15  N   UNL     1       0.853  10.724  19.633  0.00  0.00    +0.000 NA
ATOM     16  C   UNL     1       1.473  12.054  19.755  0.00  0.00    +0.000 C 
ATOM     17  C   UNL     1      -0.566  10.714  20.027  0.00  0.00    +0.000 C 
ENDBRANCH  12  15
ENDBRANCH  10  12
ENDBRANCH   5   6
BRANCH   2  18
ATOM     18  S   UNL     1       5.607   4.525  14.545  0.00  0.00    +0.000 S 
ATOM     19  H   UNL     1       5.380   3.232  14.287  0.00  0.00    +0.000 HD
ENDBRANCH   2  18
BRANCH   1  20
ATOM     20  C   UNL     1       5.659   6.909  16.977  0.00  0.00    +0.000 C 
BRANCH  20  21
ATOM     21  C   UNL     1       6.899   7.187  17.856  0.00  0.00    +0.000 C 
BRANCH  21  23
ATOM     22  C   UNL     1       8.254   9.205  17.959  0.00  0.00    +0.000 C 
ATOM     23  O   UNL     1       7.789   8.104  17.202  0.00  0.00    +0.000 OA
ENDBRANCH  21  23
BRANCH  21  24
ATOM     24  O   UNL     1       7.625   5.966  17.980  0.00  0.00    +0.000 OA
ATOM     25  C   UNL     1       7.912   5.598  19.320  0.00  0.00    +0.000 C 
ENDBRANCH  21  24
ENDBRANCH  20  21
ENDBRANCH   1  20
TORSDOF 8
ENDMDL
MODEL 4
REMARK VINA RESULT:      -6.4      1.255      1.904
REMARK  Name = 
REMARK  12 active torsions:
REMARK  status: ('A' for Active; 'I' for Inactive)
REMARK    1  A    between atoms: C_1  and  O_2
REMARK    2  A    between atoms: O_2  and  C_3
REMARK    3  A    between atoms: C_3  and  C_4
REMARK    4  A    between atoms: C_3  and  O_23
REMARK    5  A    between atoms: C_4  and  N_5
REMARK    6  A    between atoms: C_6  and  S_7
REMARK    7  A    between atoms: C_10  and  C_11
REMARK    8  A    between atoms: C_15  and  S_16
REMARK    9  A    between atoms: S_16  and  N_19
REMARK   10  A    between atoms: N_19  and  C_20
REMARK   11  A    between atoms: N_19  and  C_21
REMARK   12  A    between atoms: O_23  and  C_24
REMARK                            x       y       z     vdW  Elec       q    Type
REMARK                         _______ _______ _______ _____ _____    ______ ____
ROOT
ATOM      1  N   UNL     1       3.300   5.061  19.674  0.00  0.00    +0.000 N 
ATOM      2  C   UNL     1       2.860   3.808  19.995  0.00  0.00    +0.000 A 
ATOM      3  N   UNL     1       1.816   3.891  20.786  0.00  0.00    +0.000 NA
ATOM      4  N   UNL     1       1.434   5.204  20.829  0.00  0.00    +0.000 NA
ATOM      5  C   UNL     1       2.233   5.891  20.030  0.00  0.00    +0.000 A 
ENDROOT
BRANCH   5   6
ATOM      6  C   UNL     1       1.954   7.247  19.545  0.00  0.00    +0.000 A 
ATOM      7  C   UNL     1       2.279   7.606  18.226  0.00  0.00    +0.000 A 
ATOM      8  C   UNL     1       2.106   8.921  17.772  0.00  0.00    +0.000 A 
ATOM      9  C   UNL     1       1.622   9.902  18.632  0.00  0.00    +0.000 A 
ATOM     10  C   UNL     1       1.338   9.561  19.957  0.00  0.00    +0.000 A 
ATOM     11  C   UNL     1       1.487   8.250  20.404  0.00  0.00    +0.000 A 
BRANCH  10  12
ATOM     12  S   UNL     1       0.810  10.808  21.107  0.00  0.00    +0.000 S 
ATOM     13  O   UNL     1       0.829  10.215  22.421  0.00  0.00    +0.000 OA
ATOM     14  O   UNL     1       1.568  12.000  20.821  0.00  0.00    +0.000 OA
BRANCH  12  15
ATOM     15  N   UNL     1      -0.814  11.065  20.655  0.00  0.00    +0.000 NA
ATOM     16  C   UNL     1      -1.704  11.685  21.652  0.00  0.00    +0.000 C 
ATOM     17  C   UNL     1      -1.031  11.582  19.293  0.00  0.00    +0.000 C 
ENDBRANCH  12  15
ENDBRANCH  10  12
ENDBRANCH   5   6
BRANCH   2  18
ATOM     18  S   UNL     1       3.408   2.327  19.310  0.00  0.00    +0.000 S 
ATOM     19  H   UNL     1       4.207   1.946  20.314  0.00  0.00    +0.000 HD
ENDBRANCH   2  18
BRANCH   1  20
ATOM     20  C   UNL     1       4.505   5.539  19.024  0.00  0.00    +0.000 C 
BRANCH  20  21
ATOM     21  C   UNL     1       5.830   4.745  19.032  0.00  0.00    +0.000 C 
BRANCH  21  23
ATOM     22  C   UNL     1       7.897   6.028  19.026  0.00  0.00    +0.000 C 
ATOM     23  O   UNL     1       6.841   5.450  19.768  0.00  0.00    +0.000 OA
ENDBRANCH  21  23
BRANCH  21  24
ATOM     24  O   UNL     1       6.305   4.680  17.689  0.00  0.00    +0.000 OA
ATOM     25  C   UNL     1       5.277   4.645  16.712  0.00  0.00    +0.000 C 
ENDBRANCH  21  24
ENDBRANCH  20  21
ENDBRANCH   1  20
TORSDOF 8
ENDMDL
MODEL 5
REMARK VINA RESULT:      -6.4      2.397      3.617
REMARK  Name = 
REMARK  12 active torsions:
REMARK  status: ('A' for Active; 'I' for Inactive)
REMARK    1  A    between atoms: C_1  and  O_2
REMARK    2  A    between atoms: O_2  and  C_3
REMARK    3  A    between atoms: C_3  and  C_4
REMARK    4  A    between atoms: C_3  and  O_23
REMARK    5  A    between atoms: C_4  and  N_5
REMARK    6  A    between atoms: C_6  and  S_7
REMARK    7  A    between atoms: C_10  and  C_11
REMARK    8  A    between atoms: C_15  and  S_16
REMARK    9  A    between atoms: S_16  and  N_19
REMARK   10  A    between atoms: N_19  and  C_20
REMARK   11  A    between atoms: N_19  and  C_21
REMARK   12  A    between atoms: O_23  and  C_24
REMARK                            x       y       z     vdW  Elec       q    Type
REMARK                         _______ _______ _______ _____ _____    ______ ____
ROOT
ATOM      1  N   UNL     1       3.090   5.678  18.160  0.00  0.00    +0.000 N 
ATOM      2  C   UNL     1       4.402   5.300  18.200  0.00  0.00    +0.000 A 
ATOM      3  N   UNL     1       5.169   6.316  17.881  0.00  0.00    +0.000 NA
ATOM      4  N   UNL     1       4.376   7.429  17.825  0.00  0.00    +0.000 NA
ATOM      5  C   UNL     1       3.145   7.075  18.151  0.00  0.00    +0.000 A 
ENDROOT
BRANCH   5   6
ATOM      6  C   UNL     1       2.084   8.014  18.531  0.00  0.00    +0.000 A 
ATOM      7  C   UNL     1       1.529   8.878  17.573  0.00  0.00    +0.000 A 
ATOM      8  C   UNL     1       0.581   9.844  17.934  0.00  0.00    +0.000 A 
ATOM      9  C   UNL     1       0.185   9.976  19.262  0.00  0.00    +0.000 A 
ATOM     10  C   UNL     1       0.765   9.148  20.227  0.00  0.00    +0.000 A 
ATOM     11  C   UNL     1       1.690   8.171  19.865  0.00  0.00    +0.000 A 
BRANCH  10  12
ATOM     12  S   UNL     1       0.354   9.352  21.943  0.00  0.00    +0.000 S 
ATOM     13  O   UNL     1      -0.603   8.328  22.279  0.00  0.00    +0.000 OA
ATOM     14  O   UNL     1       1.595   9.474  22.667  0.00  0.00    +0.000 OA
BRANCH  12  15
ATOM     15  N   UNL     1      -0.444  10.860  21.956  0.00  0.00    +0.000 NA
ATOM     16  C   UNL     1      -1.366  11.128  23.073  0.00  0.00    +0.000 C 
ATOM     17  C   UNL     1       0.380  12.028  21.600  0.00  0.00    +0.000 C 
ENDBRANCH  12  15
ENDBRANCH  10  12
ENDBRANCH   5   6
BRANCH   2  18
ATOM     18  S   UNL     1       5.017   3.807  18.795  0.00  0.00    +0.000 S 
ATOM     19  H   UNL     1       4.204   3.681  19.851  0.00  0.00    +0.000 HD
ENDBRANCH   2  18
BRANCH   1  20
ATOM     20  C   UNL     1       1.852   4.924  18.217  0.00  0.00    +0.000 C 
BRANCH  20  21
ATOM     21  C   UNL     1       1.329   4.272  19.516  0.00  0.00    +0.000 C 
BRANCH  21  23
ATOM     22  C   UNL     1       2.340   3.836  21.686  0.00  0.00    +0.000 C 
ATOM     23  O   UNL     1       2.050   4.762  20.656  0.00  0.00    +0.000 OA
ENDBRANCH  21  23
BRANCH  21  24
ATOM     24  O   UNL     1       1.617   2.877  19.447  0.00  0.00    +0.000 OA
ATOM     25  C   UNL     1       0.664   2.125  18.711  0.00  0.00    +0.000 C 
ENDBRANCH  21  24
ENDBRANCH  20  21
ENDBRANCH   1  20
TORSDOF 8
ENDMDL
MODEL 6
REMARK VINA RESULT:      -6.4      2.472      7.607
REMARK  Name = 
REMARK  12 active torsions:
REMARK  status: ('A' for Active; 'I' for Inactive)
REMARK    1  A    between atoms: C_1  and  O_2
REMARK    2  A    between atoms: O_2  and  C_3
REMARK    3  A    between atoms: C_3  and  C_4
REMARK    4  A    between atoms: C_3  and  O_23
REMARK    5  A    between atoms: C_4  and  N_5
REMARK    6  A    between atoms: C_6  and  S_7
REMARK    7  A    between atoms: C_10  and  C_11
REMARK    8  A    between atoms: C_15  and  S_16
REMARK    9  A    between atoms: S_16  and  N_19
REMARK   10  A    between atoms: N_19  and  C_20
REMARK   11  A    between atoms: N_19  and  C_21
REMARK   12  A    between atoms: O_23  and  C_24
REMARK                            x       y       z     vdW  Elec       q    Type
REMARK                         _______ _______ _______ _____ _____    ______ ____
ROOT
ATOM      1  N   UNL     1      -0.440  10.039  21.060  0.00  0.00    +0.000 N 
ATOM      2  C   UNL     1      -0.494  10.705  22.252  0.00  0.00    +0.000 A 
ATOM      3  N   UNL     1       0.275  10.109  23.132  0.00  0.00    +0.000 NA
ATOM      4  N   UNL     1       1.003   9.159  22.467  0.00  0.00    +0.000 NA
ATOM      5  C   UNL     1       0.689   9.223  21.185  0.00  0.00    +0.000 A 
ENDROOT
BRANCH   5   6
ATOM      6  C   UNL     1       1.477   8.616  20.106  0.00  0.00    +0.000 A 
ATOM      7  C   UNL     1       1.550   9.237  18.849  0.00  0.00    +0.000 A 
ATOM      8  C   UNL     1       2.220   8.627  17.780  0.00  0.00    +0.000 A 
ATOM      9  C   UNL     1       2.814   7.379  17.945  0.00  0.00    +0.000 A 
ATOM     10  C   UNL     1       2.708   6.737  19.181  0.00  0.00    +0.000 A 
ATOM     11  C   UNL     1       2.062   7.352  20.252  0.00  0.00    +0.000 A 
BRANCH  10  12
ATOM     12  S   UNL     1       3.372   5.103  19.399  0.00  0.00    +0.000 S 
ATOM     13  O   UNL     1       4.808   5.224  19.420  0.00  0.00    +0.000 OA
ATOM     14  O   UNL     1       2.662   4.499  20.499  0.00  0.00    +0.000 OA
BRANCH  12  15
ATOM     15  N   UNL     1       2.918   4.323  17.952  0.00  0.00    +0.000 NA
ATOM     16  C   UNL     1       3.998   3.875  17.057  0.00  0.00    +0.000 C 
ATOM     17  C   UNL     1       1.823   3.344  18.064  0.00  0.00    +0.000 C 
ENDBRANCH  12  15
ENDBRANCH  10  12
ENDBRANCH   5   6
BRANCH   2  18
ATOM     18  S   UNL     1      -1.252  12.223  22.538  0.00  0.00    +0.000 S 
ATOM     19  H   UNL     1      -0.386  12.991  21.867  0.00  0.00    +0.000 HD
ENDBRANCH   2  18
BRANCH   1  20
ATOM     20  C   UNL     1      -1.229  10.137  19.847  0.00  0.00    +0.000 C 
BRANCH  20  21
ATOM     21  C   UNL     1      -1.370  11.449  19.046  0.00  0.00    +0.000 C 
BRANCH  21  23
ATOM     22  C   UNL     1      -2.225  10.082  17.223  0.00  0.00    +0.000 C 
ATOM     23  O   UNL     1      -1.435  11.181  17.637  0.00  0.00    +0.000 OA
ENDBRANCH  21  23
BRANCH  21  24
ATOM     24  O   UNL     1      -0.177  12.206  19.239  0.00  0.00    +0.000 OA
ATOM     25  C   UNL     1      -0.339  13.602  19.041  0.00  0.00    +0.000 C 
ENDBRANCH  21  24
ENDBRANCH  20  21
ENDBRANCH   1  20
TORSDOF 8
ENDMDL
MODEL 7
REMARK VINA RESULT:      -6.3      1.046      1.101
REMARK  Name = 
REMARK  12 active torsions:
REMARK  status: ('A' for Active; 'I' for Inactive)
REMARK    1  A    between atoms: C_1  and  O_2
REMARK    2  A    between atoms: O_2  and  C_3
REMARK    3  A    between atoms: C_3  and  C_4
REMARK    4  A    between atoms: C_3  and  O_23
REMARK    5  A    between atoms: C_4  and  N_5
REMARK    6  A    between atoms: C_6  and  S_7
REMARK    7  A    between atoms: C_10  and  C_11
REMARK    8  A    between atoms: C_15  and  S_16
REMARK    9  A    between atoms: S_16  and  N_19
REMARK   10  A    between atoms: N_19  and  C_20
REMARK   11  A    between atoms: N_19  and  C_21
REMARK   12  A    between atoms: O_23  and  C_24
REMARK                            x       y       z     vdW  Elec       q    Type
REMARK                         _______ _______ _______ _____ _____    ______ ____
ROOT
ATOM      1  N   UNL     1       3.719   4.446  19.231  0.00  0.00    +0.000 N 
ATOM      2  C   UNL     1       3.458   3.158  19.606  0.00  0.00    +0.000 A 
ATOM      3  N   UNL     1       2.647   3.150  20.638  0.00  0.00    +0.000 NA
ATOM      4  N   UNL     1       2.205   4.431  20.825  0.00  0.00    +0.000 NA
ATOM      5  C   UNL     1       2.726   5.190  19.877  0.00  0.00    +0.000 A 
ENDROOT
BRANCH   5   6
ATOM      6  C   UNL     1       2.246   6.531  19.528  0.00  0.00    +0.000 A 
ATOM      7  C   UNL     1       2.504   7.066  18.256  0.00  0.00    +0.000 A 
ATOM      8  C   UNL     1       2.134   8.379  17.936  0.00  0.00    +0.000 A 
ATOM      9  C   UNL     1       1.516   9.185  18.887  0.00  0.00    +0.000 A 
ATOM     10  C   UNL     1       1.295   8.673  20.168  0.00  0.00    +0.000 A 
ATOM     11  C   UNL     1       1.641   7.361  20.481  0.00  0.00    +0.000 A 
BRANCH  10  12
ATOM     12  S   UNL     1       0.595   9.705  21.434  0.00  0.00    +0.000 S 
ATOM     13  O   UNL     1      -0.657   9.109  21.828  0.00  0.00    +0.000 OA
ATOM     14  O   UNL     1       1.633   9.956  22.401  0.00  0.00    +0.000 OA
BRANCH  12  15
ATOM     15  N   UNL     1       0.263  11.151  20.592  0.00  0.00    +0.000 NA
ATOM     16  C   UNL     1      -1.152  11.531  20.433  0.00  0.00    +0.000 C 
ATOM     17  C   UNL     1       1.132  12.297  20.909  0.00  0.00    +0.000 C 
ENDBRANCH  12  15
ENDBRANCH  10  12
ENDBRANCH   5   6
BRANCH   2  18
ATOM     18  S   UNL     1       3.908   1.735  18.750  0.00  0.00    +0.000 S 
ATOM     19  H   UNL     1       2.711   1.451  18.223  0.00  0.00    +0.000 HD
ENDBRANCH   2  18
BRANCH   1  20
ATOM     20  C   UNL     1       4.685   5.022  18.315  0.00  0.00    +0.000 C 
BRANCH  20  21
ATOM     21  C   UNL     1       4.580   4.865  16.782  0.00  0.00    +0.000 C 
BRANCH  21  23
ATOM     22  C   UNL     1       6.102   3.863  15.169  0.00  0.00    +0.000 C 
ATOM     23  O   UNL     1       5.317   3.716  16.337  0.00  0.00    +0.000 OA
ENDBRANCH  21  23
BRANCH  21  24
ATOM     24  O   UNL     1       5.222   5.990  16.186  0.00  0.00    +0.000 OA
ATOM     25  C   UNL     1       5.896   6.829  17.111  0.00  0.00    +0.000 C 
ENDBRANCH  21  24
ENDBRANCH  20  21
ENDBRANCH   1  20
TORSDOF 8
ENDMDL
MODEL 8
REMARK VINA RESULT:      -6.3      2.970      4.369
REMARK  Name = 
REMARK  12 active torsions:
REMARK  status: ('A' for Active; 'I' for Inactive)
REMARK    1  A    between atoms: C_1  and  O_2
REMARK    2  A    between atoms: O_2  and  C_3
REMARK    3  A    between atoms: C_3  and  C_4
REMARK    4  A    between atoms: C_3  and  O_23
REMARK    5  A    between atoms: C_4  and  N_5
REMARK    6  A    between atoms: C_6  and  S_7
REMARK    7  A    between atoms: C_10  and  C_11
REMARK    8  A    between atoms: C_15  and  S_16
REMARK    9  A    between atoms: S_16  and  N_19
REMARK   10  A    between atoms: N_19  and  C_20
REMARK   11  A    between atoms: N_19  and  C_21
REMARK   12  A    between atoms: O_23  and  C_24
REMARK                            x       y       z     vdW  Elec       q    Type
REMARK                         _______ _______ _______ _____ _____    ______ ____
ROOT
ATOM      1  N   UNL     1       2.794   5.982  19.456  0.00  0.00    +0.000 N 
ATOM      2  C   UNL     1       3.902   5.689  18.711  0.00  0.00    +0.000 A 
ATOM      3  N   UNL     1       4.014   6.545  17.723  0.00  0.00    +0.000 NA
ATOM      4  N   UNL     1       3.093   7.535  17.928  0.00  0.00    +0.000 NA
ATOM      5  C   UNL     1       2.461   7.282  19.062  0.00  0.00    +0.000 A 
ENDROOT
BRANCH   5   6
ATOM      6  C   UNL     1       1.648   8.258  19.796  0.00  0.00    +0.000 A 
ATOM      7  C   UNL     1       1.283   8.012  21.129  0.00  0.00    +0.000 A 
ATOM      8  C   UNL     1       0.432   8.887  21.817  0.00  0.00    +0.000 A 
ATOM      9  C   UNL     1      -0.082  10.012  21.179  0.00  0.00    +0.000 A 
ATOM     10  C   UNL     1       0.243  10.239  19.840  0.00  0.00    +0.000 A 
ATOM     11  C   UNL     1       1.108   9.383  19.161  0.00  0.00    +0.000 A 
BRANCH  10  12
ATOM     12  S   UNL     1      -0.471  11.612  18.967  0.00  0.00    +0.000 S 
ATOM     13  O   UNL     1       0.613  12.473  18.564  0.00  0.00    +0.000 OA
ATOM     14  O   UNL     1      -1.387  11.070  17.996  0.00  0.00    +0.000 OA
BRANCH  12  15
ATOM     15  N   UNL     1      -1.362  12.403  20.187  0.00  0.00    +0.000 NA
ATOM     16  C   UNL     1      -0.794  13.643  20.744  0.00  0.00    +0.000 C 
ATOM     17  C   UNL     1      -2.817  12.485  19.972  0.00  0.00    +0.000 C 
ENDBRANCH  12  15
ENDBRANCH  10  12
ENDBRANCH   5   6
BRANCH   2  18
ATOM     18  S   UNL     1       5.118   4.535  19.101  0.00  0.00    +0.000 S 
ATOM     19  H   UNL     1       4.332   3.454  19.163  0.00  0.00    +0.000 HD
ENDBRANCH   2  18
BRANCH   1  20
ATOM     20  C   UNL     1       2.100   5.259  20.504  0.00  0.00    +0.000 C 
BRANCH  20  21
ATOM     21  C   UNL     1       0.997   4.218  20.211  0.00  0.00    +0.000 C 
BRANCH  21  23
ATOM     22  C   UNL     1       2.351   2.914  21.757  0.00  0.00    +0.000 C 
ATOM     23  O   UNL     1       1.113   3.092  21.096  0.00  0.00    +0.000 OA
ENDBRANCH  21  23
BRANCH  21  24
ATOM     24  O   UNL     1       1.223   3.703  18.901  0.00  0.00    +0.000 OA
ATOM     25  C   UNL     1       0.719   2.392  18.699  0.00  0.00    +0.000 C 
ENDBRANCH  21  24
ENDBRANCH  20  21
ENDBRANCH   1  20
TORSDOF 8
ENDMDL
MODEL 9
REMARK VINA RESULT:      -6.3      2.888      4.250
REMARK  Name = 
REMARK  12 active torsions:
REMARK  status: ('A' for Active; 'I' for Inactive)
REMARK    1  A    between atoms: C_1  and  O_2
REMARK    2  A    between atoms: O_2  and  C_3
REMARK    3  A    between atoms: C_3  and  C_4
REMARK    4  A    between atoms: C_3  and  O_23
REMARK    5  A    between atoms: C_4  and  N_5
REMARK    6  A    between atoms: C_6  and  S_7
REMARK    7  A    between atoms: C_10  and  C_11
REMARK    8  A    between atoms: C_15  and  S_16
REMARK    9  A    between atoms: S_16  and  N_19
REMARK   10  A    between atoms: N_19  and  C_20
REMARK   11  A    between atoms: N_19  and  C_21
REMARK   12  A    between atoms: O_23  and  C_24
REMARK                            x       y       z     vdW  Elec       q    Type
REMARK                         _______ _______ _______ _____ _____    ______ ____
ROOT
ATOM      1  N   UNL     1       2.939   6.073  19.143  0.00  0.00    +0.000 N 
ATOM      2  C   UNL     1       4.060   5.931  18.375  0.00  0.00    +0.000 A 
ATOM      3  N   UNL     1       4.126   6.906  17.499  0.00  0.00    +0.000 NA
ATOM      4  N   UNL     1       3.155   7.814  17.818  0.00  0.00    +0.000 NA
ATOM      5  C   UNL     1       2.538   7.392  18.909  0.00  0.00    +0.000 A 
ENDROOT
BRANCH   5   6
ATOM      6  C   UNL     1       1.677   8.228  19.752  0.00  0.00    +0.000 A 
ATOM      7  C   UNL     1       1.366   7.827  21.061  0.00  0.00    +0.000 A 
ATOM      8  C   UNL     1       0.472   8.564  21.850  0.00  0.00    +0.000 A 
ATOM      9  C   UNL     1      -0.139   9.704  21.337  0.00  0.00    +0.000 A 
ATOM     10  C   UNL     1       0.133  10.084  20.020  0.00  0.00    +0.000 A 
ATOM     11  C   UNL     1       1.039   9.366  19.243  0.00  0.00    +0.000 A 
BRANCH  10  12
ATOM     12  S   UNL     1      -0.702  11.479  19.302  0.00  0.00    +0.000 S 
ATOM     13  O   UNL     1      -1.212  12.278  20.388  0.00  0.00    +0.000 OA
ATOM     14  O   UNL     1       0.185  12.045  18.317  0.00  0.00    +0.000 OA
BRANCH  12  15
ATOM     15  N   UNL     1      -2.021  10.750  18.503  0.00  0.00    +0.000 NA
ATOM     16  C   UNL     1      -3.273  11.523  18.421  0.00  0.00    +0.000 C 
ATOM     17  C   UNL     1      -1.704  10.037  17.254  0.00  0.00    +0.000 C 
ENDBRANCH  12  15
ENDBRANCH  10  12
ENDBRANCH   5   6
BRANCH   2  18
ATOM     18  S   UNL     1       5.334   4.803  18.627  0.00  0.00    +0.000 S 
ATOM     19  H   UNL     1       4.715   3.716  18.151  0.00  0.00    +0.000 HD
ENDBRANCH   2  18
BRANCH   1  20
ATOM     20  C   UNL     1       2.284   5.192  20.092  0.00  0.00    +0.000 C 
BRANCH  20  21
ATOM     21  C   UNL     1       1.205   4.169  19.675  0.00  0.00    +0.000 C 
BRANCH  21  23
ATOM     22  C   UNL     1       1.936   2.976  21.666  0.00  0.00    +0.000 C 
ATOM     23  O   UNL     1       1.396   2.922  20.360  0.00  0.00    +0.000 OA
ENDBRANCH  21  23
BRANCH  21  24
ATOM     24  O   UNL     1       1.392   3.882  18.290  0.00  0.00    +0.000 OA
ATOM     25  C   UNL     1       2.046   2.648  18.038  0.00  0.00    +0.000 C 
ENDBRANCH  21  24
ENDBRANCH  20  21
ENDBRANCH   1  20
TORSDOF 8
ENDMDL
