MODEL 1
REMARK VINA RESULT:      -5.6      0.000      0.000
REMARK  Name = 
REMARK  4 active torsions:
REMARK  status: ('A' for Active; 'I' for Inactive)
REMARK    1  A    between atoms: C_1  and  C_2
REMARK    2  A    between atoms: C_2  and  C_3
REMARK    3  A    between atoms: C_3  and  C_4
REMARK    4  A    between atoms: C_4  and  C_5
REMARK                            x       y       z     vdW  Elec       q    Type
REMARK                         _______ _______ _______ _____ _____    ______ ____
ROOT
ATOM      1  C   UNL     1       2.705   3.939  19.582  0.00  0.00    +0.000 C 
ATOM      2  C   UNL     1       3.788   2.916  19.988  0.00  0.00    +0.000 C 
ATOM      3  N   UNL     1       5.075   3.183  19.392  0.00  0.00    +0.000 N 
ATOM      4  C   UNL     1       5.543   4.420  19.092  0.00  0.00    +0.000 C 
ATOM      5  O   UNL     1       6.708   4.605  18.763  0.00  0.00    +0.000 OA
ATOM      6  N   UNL     1       4.647   5.434  19.151  0.00  0.00    +0.000 N 
ATOM      7  C   UNL     1       3.346   5.330  19.765  0.00  0.00    +0.000 C 
ATOM      8  H   UNL     1       5.790   2.468  19.403  0.00  0.00    +0.000 HD
ATOM      9  H   UNL     1       5.057   6.347  18.996  0.00  0.00    +0.000 HD
ENDROOT
BRANCH   1  11
ATOM     10  C   UNL     1       1.567   2.695  21.567  0.00  0.00    +0.000 C 
ATOM     11  C   UNL     1       1.493   3.829  20.552  0.00  0.00    +0.000 C 
ENDBRANCH   1  11
BRANCH   1  12
ATOM     12  C   UNL     1       2.288   3.693  18.100  0.00  0.00    +0.000 C 
ATOM     13  C   UNL     1       2.318   2.240  17.638  0.00  0.00    +0.000 C 
ENDBRANCH   1  12
TORSDOF 2
ENDMDL
MODEL 2
REMARK VINA RESULT:      -5.4      1.127      2.498
REMARK  Name = 
REMARK  4 active torsions:
REMARK  status: ('A' for Active; 'I' for Inactive)
REMARK    1  A    between atoms: C_1  and  C_2
REMARK    2  A    between atoms: C_2  and  C_3
REMARK    3  A    between atoms: C_3  and  C_4
REMARK    4  A    between atoms: C_4  and  C_5
REMARK                            x       y       z     vdW  Elec       q    Type
REMARK                         _______ _______ _______ _____ _____    ______ ____
ROOT
ATOM      1  C   UNL     1       2.876   4.024  18.920  0.00  0.00    +0.000 C 
ATOM      2  C   UNL     1       3.441   5.305  18.270  0.00  0.00    +0.000 C 
ATOM      3  N   UNL     1       4.774   5.630  18.718  0.00  0.00    +0.000 N 
ATOM      4  C   UNL     1       5.708   4.717  19.082  0.00  0.00    +0.000 C 
ATOM      5  O   UNL     1       6.875   5.032  19.275  0.00  0.00    +0.000 OA
ATOM      6  N   UNL     1       5.274   3.445  19.248  0.00  0.00    +0.000 N 
ATOM      7  C   UNL     1       3.989   2.963  18.802  0.00  0.00    +0.000 C 
ATOM      8  H   UNL     1       5.152   6.551  18.538  0.00  0.00    +0.000 HD
ATOM      9  H   UNL     1       6.017   2.786  19.444  0.00  0.00    +0.000 HD
ENDROOT
BRANCH   1  11
ATOM     10  C   UNL     1       0.825   2.425  18.771  0.00  0.00    +0.000 C 
ATOM     11  C   UNL     1       1.643   3.528  18.110  0.00  0.00    +0.000 C 
ENDBRANCH   1  11
BRANCH   1  12
ATOM     12  C   UNL     1       2.517   4.312  20.409  0.00  0.00    +0.000 C 
ATOM     13  C   UNL     1       1.715   5.584  20.661  0.00  0.00    +0.000 C 
ENDBRANCH   1  12
TORSDOF 2
ENDMDL
MODEL 3
REMARK VINA RESULT:      -5.4      2.170      3.166
REMARK  Name = 
REMARK  4 active torsions:
REMARK  status: ('A' for Active; 'I' for Inactive)
REMARK    1  A    between atoms: C_1  and  C_2
REMARK    2  A    between atoms: C_2  and  C_3
REMARK    3  A    between atoms: C_3  and  C_4
REMARK    4  A    between atoms: C_4  and  C_5
REMARK                            x       y       z     vdW  Elec       q    Type
REMARK                         _______ _______ _______ _____ _____    ______ ____
ROOT
ATOM      1  C   UNL     1       4.207   5.211  18.021  0.00  0.00    +0.000 C 
ATOM      2  C   UNL     1       4.609   4.171  16.953  0.00  0.00    +0.000 C 
ATOM      3  N   UNL     1       6.027   4.154  16.682  0.00  0.00    +0.000 N 
ATOM      4  C   UNL     1       6.990   4.433  17.595  0.00  0.00    +0.000 C 
ATOM      5  O   UNL     1       8.174   4.224  17.366  0.00  0.00    +0.000 OA
ATOM      6  N   UNL     1       6.572   4.982  18.761  0.00  0.00    +0.000 N 
ATOM      7  C   UNL     1       5.195   5.021  19.190  0.00  0.00    +0.000 C 
ATOM      8  H   UNL     1       6.373   3.683  15.856  0.00  0.00    +0.000 HD
ATOM      9  H   UNL     1       7.313   5.102  19.440  0.00  0.00    +0.000 HD
ENDROOT
BRANCH   1  11
ATOM     10  C   UNL     1       1.927   4.013  17.633  0.00  0.00    +0.000 C 
ATOM     11  C   UNL     1       2.774   4.899  18.539  0.00  0.00    +0.000 C 
ENDBRANCH   1  11
BRANCH   1  12
ATOM     12  C   UNL     1       4.308   6.644  17.415  0.00  0.00    +0.000 C 
ATOM     13  C   UNL     1       3.166   7.592  17.767  0.00  0.00    +0.000 C 
ENDBRANCH   1  12
TORSDOF 2
ENDMDL
MODEL 4
REMARK VINA RESULT:      -5.4      2.151      2.770
REMARK  Name = 
REMARK  4 active torsions:
REMARK  status: ('A' for Active; 'I' for Inactive)
REMARK    1  A    between atoms: C_1  and  C_2
REMARK    2  A    between atoms: C_2  and  C_3
REMARK    3  A    between atoms: C_3  and  C_4
REMARK    4  A    between atoms: C_4  and  C_5
REMARK                            x       y       z     vdW  Elec       q    Type
REMARK                         _______ _______ _______ _____ _____    ______ ____
ROOT
ATOM      1  C   UNL     1       4.012   4.881  17.923  0.00  0.00    +0.000 C 
ATOM      2  C   UNL     1       5.013   4.402  18.997  0.00  0.00    +0.000 C 
ATOM      3  N   UNL     1       6.300   4.039  18.452  0.00  0.00    +0.000 N 
ATOM      4  C   UNL     1       6.866   4.615  17.363  0.00  0.00    +0.000 C 
ATOM      5  O   UNL     1       8.031   4.402  17.054  0.00  0.00    +0.000 OA
ATOM      6  N   UNL     1       6.064   5.414  16.620  0.00  0.00    +0.000 N 
ATOM      7  C   UNL     1       4.777   5.901  17.056  0.00  0.00    +0.000 C 
ATOM      8  H   UNL     1       6.950   3.507  19.016  0.00  0.00    +0.000 HD
ATOM      9  H   UNL     1       6.547   5.882  15.863  0.00  0.00    +0.000 HD
ENDROOT
BRANCH   1  11
ATOM     10  C   UNL     1       2.623   7.069  18.188  0.00  0.00    +0.000 C 
ATOM     11  C   UNL     1       2.826   5.618  18.609  0.00  0.00    +0.000 C 
ENDBRANCH   1  11
BRANCH   1  12
ATOM     12  C   UNL     1       3.531   3.661  17.081  0.00  0.00    +0.000 C 
ATOM     13  C   UNL     1       3.054   2.453  17.880  0.00  0.00    +0.000 C 
ENDBRANCH   1  12
TORSDOF 2
ENDMDL
MODEL 5
REMARK VINA RESULT:      -5.3      0.923      2.557
REMARK  Name = 
REMARK  4 active torsions:
REMARK  status: ('A' for Active; 'I' for Inactive)
REMARK    1  A    between atoms: C_1  and  C_2
REMARK    2  A    between atoms: C_2  and  C_3
REMARK    3  A    between atoms: C_3  and  C_4
REMARK    4  A    between atoms: C_4  and  C_5
REMARK                            x       y       z     vdW  Elec       q    Type
REMARK                         _______ _______ _______ _____ _____    ______ ____
ROOT
ATOM      1  C   UNL     1       2.901   3.541  19.345  0.00  0.00    +0.000 C 
ATOM      2  C   UNL     1       3.072   5.075  19.395  0.00  0.00    +0.000 C 
ATOM      3  N   UNL     1       4.404   5.486  19.770  0.00  0.00    +0.000 N 
ATOM      4  C   UNL     1       5.535   4.795  19.477  0.00  0.00    +0.000 C 
ATOM      5  O   UNL     1       6.647   5.277  19.653  0.00  0.00    +0.000 OA
ATOM      6  N   UNL     1       5.366   3.536  19.007  0.00  0.00    +0.000 N 
ATOM      7  C   UNL     1       4.106   3.006  18.546  0.00  0.00    +0.000 C 
ATOM      8  H   UNL     1       4.573   6.443  20.051  0.00  0.00    +0.000 HD
ATOM      9  H   UNL     1       6.230   3.088  18.731  0.00  0.00    +0.000 HD
ENDROOT
BRANCH   1  11
ATOM     10  C   UNL     1       1.224   4.154  17.448  0.00  0.00    +0.000 C 
ATOM     11  C   UNL     1       1.602   3.187  18.564  0.00  0.00    +0.000 C 
ENDBRANCH   1  11
BRANCH   1  12
ATOM     12  C   UNL     1       2.879   2.973  20.797  0.00  0.00    +0.000 C 
ATOM     13  C   UNL     1       1.499   2.831  21.430  0.00  0.00    +0.000 C 
ENDBRANCH   1  12
TORSDOF 2
ENDMDL
MODEL 6
REMARK VINA RESULT:      -5.3      1.788      2.434
REMARK  Name = 
REMARK  4 active torsions:
REMARK  status: ('A' for Active; 'I' for Inactive)
REMARK    1  A    between atoms: C_1  and  C_2
REMARK    2  A    between atoms: C_2  and  C_3
REMARK    3  A    between atoms: C_3  and  C_4
REMARK    4  A    between atoms: C_4  and  C_5
REMARK                            x       y       z     vdW  Elec       q    Type
REMARK                         _______ _______ _______ _____ _____    ______ ____
ROOT
ATOM      1  C   UNL     1       4.089   4.279  18.425  0.00  0.00    +0.000 C 
ATOM      2  C   UNL     1       5.104   5.180  19.160  0.00  0.00    +0.000 C 
ATOM      3  N   UNL     1       6.476   4.881  18.825  0.00  0.00    +0.000 N 
ATOM      4  C   UNL     1       6.892   4.419  17.620  0.00  0.00    +0.000 C 
ATOM      5  O   UNL     1       8.080   4.359  17.328  0.00  0.00    +0.000 OA
ATOM      6  N   UNL     1       5.925   4.004  16.768  0.00  0.00    +0.000 N 
ATOM      7  C   UNL     1       4.519   4.276  16.944  0.00  0.00    +0.000 C 
ATOM      8  H   UNL     1       7.224   5.244  19.402  0.00  0.00    +0.000 HD
ATOM      9  H   UNL     1       6.274   3.740  15.855  0.00  0.00    +0.000 HD
ENDROOT
BRANCH   1  11
ATOM     10  C   UNL     1       2.034   4.893  19.904  0.00  0.00    +0.000 C 
ATOM     11  C   UNL     1       2.669   4.910  18.518  0.00  0.00    +0.000 C 
ENDBRANCH   1  11
BRANCH   1  12
ATOM     12  C   UNL     1       4.130   2.845  19.035  0.00  0.00    +0.000 C 
ATOM     13  C   UNL     1       3.424   1.763  18.226  0.00  0.00    +0.000 C 
ENDBRANCH   1  12
TORSDOF 2
ENDMDL
MODEL 7
REMARK VINA RESULT:      -5.3      2.901      4.609
REMARK  Name = 
REMARK  4 active torsions:
REMARK  status: ('A' for Active; 'I' for Inactive)
REMARK    1  A    between atoms: C_1  and  C_2
REMARK    2  A    between atoms: C_2  and  C_3
REMARK    3  A    between atoms: C_3  and  C_4
REMARK    4  A    between atoms: C_4  and  C_5
REMARK                            x       y       z     vdW  Elec       q    Type
REMARK                         _______ _______ _______ _____ _____    ______ ____
ROOT
ATOM      1  C   UNL     1       5.692   4.745  16.413  0.00  0.00    +0.000 C 
ATOM      2  C   UNL     1       5.434   6.043  17.208  0.00  0.00    +0.000 C 
ATOM      3  N   UNL     1       5.930   5.988  18.563  0.00  0.00    +0.000 N 
ATOM      4  C   UNL     1       7.023   5.287  18.955  0.00  0.00    +0.000 C 
ATOM      5  O   UNL     1       7.507   5.422  20.072  0.00  0.00    +0.000 OA
ATOM      6  N   UNL     1       7.531   4.411  18.056  0.00  0.00    +0.000 N 
ATOM      7  C   UNL     1       7.171   4.384  16.659  0.00  0.00    +0.000 C 
ATOM      8  H   UNL     1       5.626   6.679  19.236  0.00  0.00    +0.000 HD
ATOM      9  H   UNL     1       8.388   3.967  18.362  0.00  0.00    +0.000 HD
ENDROOT
BRANCH   1  11
ATOM     10  C   UNL     1       6.228   4.056  13.959  0.00  0.00    +0.000 C 
ATOM     11  C   UNL     1       5.504   5.018  14.893  0.00  0.00    +0.000 C 
ENDBRANCH   1  11
BRANCH   1  12
ATOM     12  C   UNL     1       4.737   3.624  16.926  0.00  0.00    +0.000 C 
ATOM     13  C   UNL     1       3.299   4.055  17.198  0.00  0.00    +0.000 C 
ENDBRANCH   1  12
TORSDOF 2
ENDMDL
MODEL 8
REMARK VINA RESULT:      -5.3      1.458      1.643
REMARK  Name = 
REMARK  4 active torsions:
REMARK  status: ('A' for Active; 'I' for Inactive)
REMARK    1  A    between atoms: C_1  and  C_2
REMARK    2  A    between atoms: C_2  and  C_3
REMARK    3  A    between atoms: C_3  and  C_4
REMARK    4  A    between atoms: C_4  and  C_5
REMARK                            x       y       z     vdW  Elec       q    Type
REMARK                         _______ _______ _______ _____ _____    ______ ____
ROOT
ATOM      1  C   UNL     1       3.431   4.610  18.315  0.00  0.00    +0.000 C 
ATOM      2  C   UNL     1       4.296   3.962  19.417  0.00  0.00    +0.000 C 
ATOM      3  N   UNL     1       5.668   3.757  19.016  0.00  0.00    +0.000 N 
ATOM      4  C   UNL     1       6.346   4.555  18.154  0.00  0.00    +0.000 C 
ATOM      5  O   UNL     1       7.555   4.446  17.992  0.00  0.00    +0.000 OA
ATOM      6  N   UNL     1       5.610   5.458  17.464  0.00  0.00    +0.000 N 
ATOM      7  C   UNL     1       4.247   5.806  17.783  0.00  0.00    +0.000 C 
ATOM      8  H   UNL     1       6.263   3.146  19.560  0.00  0.00    +0.000 HD
ATOM      9  H   UNL     1       6.166   6.081  16.891  0.00  0.00    +0.000 HD
ENDROOT
BRANCH   1  11
ATOM     10  C   UNL     1       1.973   4.964  20.445  0.00  0.00    +0.000 C 
ATOM     11  C   UNL     1       2.115   5.158  18.939  0.00  0.00    +0.000 C 
ENDBRANCH   1  11
BRANCH   1  12
ATOM     12  C   UNL     1       3.151   3.565  17.193  0.00  0.00    +0.000 C 
ATOM     13  C   UNL     1       2.589   2.227  17.661  0.00  0.00    +0.000 C 
ENDBRANCH   1  12
TORSDOF 2
ENDMDL
MODEL 9
REMARK VINA RESULT:      -5.2      2.485      3.236
REMARK  Name = 
REMARK  4 active torsions:
REMARK  status: ('A' for Active; 'I' for Inactive)
REMARK    1  A    between atoms: C_1  and  C_2
REMARK    2  A    between atoms: C_2  and  C_3
REMARK    3  A    between atoms: C_3  and  C_4
REMARK    4  A    between atoms: C_4  and  C_5
REMARK                            x       y       z     vdW  Elec       q    Type
REMARK                         _______ _______ _______ _____ _____    ______ ____
ROOT
ATOM      1  C   UNL     1       4.781   5.618  17.479  0.00  0.00    +0.000 C 
ATOM      2  C   UNL     1       5.297   5.029  18.809  0.00  0.00    +0.000 C 
ATOM      3  N   UNL     1       6.537   4.303  18.666  0.00  0.00    +0.000 N 
ATOM      4  C   UNL     1       7.502   4.598  17.761  0.00  0.00    +0.000 C 
ATOM      5  O   UNL     1       8.607   4.072  17.804  0.00  0.00    +0.000 OA
ATOM      6  N   UNL     1       7.168   5.483  16.791  0.00  0.00    +0.000 N 
ATOM      7  C   UNL     1       5.991   6.316  16.826  0.00  0.00    +0.000 C 
ATOM      8  H   UNL     1       6.849   3.693  19.410  0.00  0.00    +0.000 HD
ATOM      9  H   UNL     1       7.941   5.731  16.185  0.00  0.00    +0.000 HD
ENDROOT
BRANCH   1  11
ATOM     10  C   UNL     1       2.892   6.485  19.048  0.00  0.00    +0.000 C 
ATOM     11  C   UNL     1       3.697   6.695  17.771  0.00  0.00    +0.000 C 
ENDBRANCH   1  11
BRANCH   1  12
ATOM     12  C   UNL     1       4.231   4.468  16.580  0.00  0.00    +0.000 C 
ATOM     13  C   UNL     1       3.369   3.430  17.290  0.00  0.00    +0.000 C 
ENDBRANCH   1  12
TORSDOF 2
ENDMDL
