MODEL 1
REMARK VINA RESULT:      -7.5      0.000      0.000
REMARK  Name = 
REMARK  9 active torsions:
REMARK  status: ('A' for Active; 'I' for Inactive)
REMARK    1  A    between atoms: C_2  and  C_3
REMARK    2  A    between atoms: C_3  and  C_4
REMARK    3  A    between atoms: C_4  and  C_5
REMARK    4  A    between atoms: C_5  and  C_6
REMARK    5  A    between atoms: C_6  and  C_7
REMARK    6  A    between atoms: C_7  and  C_8
REMARK    7  A    between atoms: C_8  and  C_9
REMARK    8  A    between atoms: C_11  and  C_12
REMARK    9  A    between atoms: N_21  and  O_22
REMARK                            x       y       z     vdW  Elec       q    Type
REMARK                         _______ _______ _______ _____ _____    ______ ____
ROOT
ATOM      1  C   UNL     1       7.864   7.305  17.948  0.00  0.00    +0.000 C 
ENDROOT
BRANCH   1   2
ATOM      2  C   UNL     1       6.627   6.630  17.507  0.00  0.00    +0.000 A 
ATOM      3  N   UNL     1       5.828   5.838  18.180  0.00  0.00    +0.000 NA
ATOM      4  C   UNL     1       4.905   5.474  17.228  0.00  0.00    +0.000 A 
ATOM      5  N   UNL     1       5.109   6.030  16.023  0.00  0.00    +0.000 NA
ATOM      6  O   UNL     1       6.251   6.805  16.210  0.00  0.00    +0.000 OA
BRANCH   4   7
ATOM      7  C   UNL     1       3.838   4.534  17.525  0.00  0.00    +0.000 A 
ATOM      8  C   UNL     1       2.559   5.014  17.852  0.00  0.00    +0.000 A 
ATOM      9  C   UNL     1       1.536   4.125  18.181  0.00  0.00    +0.000 A 
ATOM     10  C   UNL     1       1.795   2.759  18.184  0.00  0.00    +0.000 A 
ATOM     11  F   UNL     1       0.817   1.906  18.513  0.00  0.00    +0.000 F 
ATOM     12  C   UNL     1       3.051   2.264  17.858  0.00  0.00    +0.000 A 
ATOM     13  C   UNL     1       4.075   3.152  17.523  0.00  0.00    +0.000 A 
ENDBRANCH   4   7
ENDBRANCH   1   2
BRANCH   1  14
ATOM     14  C   UNL     1       7.731   8.821  17.826  0.00  0.00    +0.000 C 
BRANCH  14  15
ATOM     15  C   UNL     1       9.086   9.508  17.985  0.00  0.00    +0.000 C 
BRANCH  15  16
ATOM     16  C   UNL     1       9.198  10.196  19.346  0.00  0.00    +0.000 C 
BRANCH  16  17
ATOM     17  C   UNL     1       9.915  11.539  19.221  0.00  0.00    +0.000 C 
BRANCH  17  18
ATOM     18  C   UNL     1      10.241  11.882  17.759  0.00  0.00    +0.000 C 
BRANCH  18  20
ATOM     19  O   UNL     1      10.174  14.204  18.414  0.00  0.00    +0.000 OA
ATOM     20  C   UNL     1      10.447  13.379  17.561  0.00  0.00    +0.000 C 
ATOM     21  N   UNL     1      10.964  13.737  16.354  0.00  0.00    +0.000 N 
ATOM     22  H   UNL     1      11.190  13.038  15.642  0.00  0.00    +0.000 HD
BRANCH  21  23
ATOM     23  O   UNL     1      11.220  15.077  16.001  0.00  0.00    +0.000 OA
ATOM     24  H   UNL     1      10.388  15.402  15.598  0.00  0.00    +0.000 HD
ENDBRANCH  21  23
ENDBRANCH  18  20
ENDBRANCH  17  18
ENDBRANCH  16  17
ENDBRANCH  15  16
ENDBRANCH  14  15
ENDBRANCH   1  14
TORSDOF 9
ENDMDL
MODEL 2
REMARK VINA RESULT:      -7.5      5.761      8.918
REMARK  Name = 
REMARK  9 active torsions:
REMARK  status: ('A' for Active; 'I' for Inactive)
REMARK    1  A    between atoms: C_2  and  C_3
REMARK    2  A    between atoms: C_3  and  C_4
REMARK    3  A    between atoms: C_4  and  C_5
REMARK    4  A    between atoms: C_5  and  C_6
REMARK    5  A    between atoms: C_6  and  C_7
REMARK    6  A    between atoms: C_7  and  C_8
REMARK    7  A    between atoms: C_8  and  C_9
REMARK    8  A    between atoms: C_11  and  C_12
REMARK    9  A    between atoms: N_21  and  O_22
REMARK                            x       y       z     vdW  Elec       q    Type
REMARK                         _______ _______ _______ _____ _____    ______ ____
ROOT
ATOM      1  C   UNL     1       4.370   4.589  19.623  0.00  0.00    +0.000 C 
ENDROOT
BRANCH   1   2
ATOM      2  C   UNL     1       5.184   4.893  18.429  0.00  0.00    +0.000 A 
ATOM      3  N   UNL     1       5.042   4.466  17.198  0.00  0.00    +0.000 NA
ATOM      4  C   UNL     1       6.127   5.027  16.566  0.00  0.00    +0.000 A 
ATOM      5  N   UNL     1       6.898   5.784  17.364  0.00  0.00    +0.000 NA
ATOM      6  O   UNL     1       6.267   5.700  18.603  0.00  0.00    +0.000 OA
BRANCH   4   7
ATOM      7  C   UNL     1       6.408   4.768  15.164  0.00  0.00    +0.000 A 
ATOM      8  C   UNL     1       5.621   3.845  14.457  0.00  0.00    +0.000 A 
ATOM      9  C   UNL     1       5.905   3.555  13.122  0.00  0.00    +0.000 A 
ATOM     10  C   UNL     1       6.977   4.186  12.501  0.00  0.00    +0.000 A 
ATOM     11  F   UNL     1       7.258   3.897  11.224  0.00  0.00    +0.000 F 
ATOM     12  C   UNL     1       7.764   5.106  13.181  0.00  0.00    +0.000 A 
ATOM     13  C   UNL     1       7.478   5.403  14.515  0.00  0.00    +0.000 A 
ENDBRANCH   4   7
ENDBRANCH   1   2
BRANCH   1  14
ATOM     14  C   UNL     1       3.166   5.523  19.714  0.00  0.00    +0.000 C 
BRANCH  14  15
ATOM     15  C   UNL     1       2.213   5.087  20.826  0.00  0.00    +0.000 C 
BRANCH  15  16
ATOM     16  C   UNL     1       0.947   4.453  20.247  0.00  0.00    +0.000 C 
BRANCH  16  17
ATOM     17  C   UNL     1       1.026   2.928  20.303  0.00  0.00    +0.000 C 
BRANCH  17  18
ATOM     18  C   UNL     1       0.772   2.289  18.929  0.00  0.00    +0.000 C 
BRANCH  18  20
ATOM     19  O   UNL     1       2.086   3.070  17.061  0.00  0.00    +0.000 OA
ATOM     20  C   UNL     1       2.008   2.349  18.040  0.00  0.00    +0.000 C 
ATOM     21  N   UNL     1       3.033   1.537  18.417  0.00  0.00    +0.000 N 
ATOM     22  H   UNL     1       2.960   0.934  19.240  0.00  0.00    +0.000 HD
BRANCH  21  23
ATOM     23  O   UNL     1       4.249   1.466  17.710  0.00  0.00    +0.000 OA
ATOM     24  H   UNL     1       4.022   1.676  16.780  0.00  0.00    +0.000 HD
ENDBRANCH  21  23
ENDBRANCH  18  20
ENDBRANCH  17  18
ENDBRANCH  16  17
ENDBRANCH  15  16
ENDBRANCH  14  15
ENDBRANCH   1  14
TORSDOF 9
ENDMDL
MODEL 3
REMARK VINA RESULT:      -7.4      5.567      8.150
REMARK  Name = 
REMARK  9 active torsions:
REMARK  status: ('A' for Active; 'I' for Inactive)
REMARK    1  A    between atoms: C_2  and  C_3
REMARK    2  A    between atoms: C_3  and  C_4
REMARK    3  A    between atoms: C_4  and  C_5
REMARK    4  A    between atoms: C_5  and  C_6
REMARK    5  A    between atoms: C_6  and  C_7
REMARK    6  A    between atoms: C_7  and  C_8
REMARK    7  A    between atoms: C_8  and  C_9
REMARK    8  A    between atoms: C_11  and  C_12
REMARK    9  A    between atoms: N_21  and  O_22
REMARK                            x       y       z     vdW  Elec       q    Type
REMARK                         _______ _______ _______ _____ _____    ______ ____
ROOT
ATOM      1  C   UNL     1       2.773   1.509  18.614  0.00  0.00    +0.000 C 
ENDROOT
BRANCH   1   2
ATOM      2  C   UNL     1       3.829   2.497  18.912  0.00  0.00    +0.000 A 
ATOM      3  N   UNL     1       4.177   3.567  18.241  0.00  0.00    +0.000 NA
ATOM      4  C   UNL     1       5.251   4.031  18.965  0.00  0.00    +0.000 A 
ATOM      5  N   UNL     1       5.544   3.293  20.048  0.00  0.00    +0.000 NA
ATOM      6  O   UNL     1       4.593   2.276  20.018  0.00  0.00    +0.000 OA
BRANCH   4   7
ATOM      7  C   UNL     1       6.006   5.198  18.541  0.00  0.00    +0.000 A 
ATOM      8  C   UNL     1       5.504   6.015  17.515  0.00  0.00    +0.000 A 
ATOM      9  C   UNL     1       6.238   7.115  17.069  0.00  0.00    +0.000 A 
ATOM     10  C   UNL     1       7.471   7.391  17.648  0.00  0.00    +0.000 A 
ATOM     11  F   UNL     1       8.182   8.438  17.210  0.00  0.00    +0.000 F 
ATOM     12  C   UNL     1       7.983   6.598  18.667  0.00  0.00    +0.000 A 
ATOM     13  C   UNL     1       7.247   5.501  19.119  0.00  0.00    +0.000 A 
ENDBRANCH   4   7
ENDBRANCH   1   2
BRANCH   1  14
ATOM     14  C   UNL     1       1.392   2.068  18.949  0.00  0.00    +0.000 C 
BRANCH  14  15
ATOM     15  C   UNL     1       1.386   2.735  20.323  0.00  0.00    +0.000 C 
BRANCH  15  16
ATOM     16  C   UNL     1       0.907   4.185  20.229  0.00  0.00    +0.000 C 
BRANCH  16  17
ATOM     17  C   UNL     1       2.036   5.156  20.570  0.00  0.00    +0.000 C 
BRANCH  17  18
ATOM     18  C   UNL     1       2.204   6.241  19.495  0.00  0.00    +0.000 C 
BRANCH  18  20
ATOM     19  O   UNL     1       1.812   8.617  19.336  0.00  0.00    +0.000 OA
ATOM     20  C   UNL     1       1.914   7.632  20.044  0.00  0.00    +0.000 C 
ATOM     21  N   UNL     1       1.774   7.702  21.396  0.00  0.00    +0.000 N 
ATOM     22  H   UNL     1       1.862   6.871  21.986  0.00  0.00    +0.000 HD
BRANCH  21  23
ATOM     23  O   UNL     1       1.503   8.908  22.074  0.00  0.00    +0.000 OA
ATOM     24  H   UNL     1       1.716   9.618  21.434  0.00  0.00    +0.000 HD
ENDBRANCH  21  23
ENDBRANCH  18  20
ENDBRANCH  17  18
ENDBRANCH  16  17
ENDBRANCH  15  16
ENDBRANCH  14  15
ENDBRANCH   1  14
TORSDOF 9
ENDMDL
MODEL 4
REMARK VINA RESULT:      -7.2      6.624      9.337
REMARK  Name = 
REMARK  9 active torsions:
REMARK  status: ('A' for Active; 'I' for Inactive)
REMARK    1  A    between atoms: C_2  and  C_3
REMARK    2  A    between atoms: C_3  and  C_4
REMARK    3  A    between atoms: C_4  and  C_5
REMARK    4  A    between atoms: C_5  and  C_6
REMARK    5  A    between atoms: C_6  and  C_7
REMARK    6  A    between atoms: C_7  and  C_8
REMARK    7  A    between atoms: C_8  and  C_9
REMARK    8  A    between atoms: C_11  and  C_12
REMARK    9  A    between atoms: N_21  and  O_22
REMARK                            x       y       z     vdW  Elec       q    Type
REMARK                         _______ _______ _______ _____ _____    ______ ____
ROOT
ATOM      1  C   UNL     1       3.172   6.045  18.776  0.00  0.00    +0.000 C 
ENDROOT
BRANCH   1   2
ATOM      2  C   UNL     1       2.415   7.271  19.097  0.00  0.00    +0.000 A 
ATOM      3  N   UNL     1       1.910   7.659  20.243  0.00  0.00    +0.000 NA
ATOM      4  C   UNL     1       1.268   8.826  19.901  0.00  0.00    +0.000 A 
ATOM      5  N   UNL     1       1.384   9.159  18.605  0.00  0.00    +0.000 NA
ATOM      6  O   UNL     1       2.153   8.128  18.071  0.00  0.00    +0.000 OA
BRANCH   4   7
ATOM      7  C   UNL     1       0.504   9.586  20.875  0.00  0.00    +0.000 A 
ATOM      8  C   UNL     1       0.314   9.069  22.167  0.00  0.00    +0.000 A 
ATOM      9  C   UNL     1      -0.453   9.768  23.100  0.00  0.00    +0.000 A 
ATOM     10  C   UNL     1      -1.030  10.979  22.737  0.00  0.00    +0.000 A 
ATOM     11  F   UNL     1      -1.777  11.643  23.628  0.00  0.00    +0.000 F 
ATOM     12  C   UNL     1      -0.850  11.511  21.466  0.00  0.00    +0.000 A 
ATOM     13  C   UNL     1      -0.077  10.816  20.534  0.00  0.00    +0.000 A 
ENDBRANCH   4   7
ENDBRANCH   1   2
BRANCH   1  14
ATOM     14  C   UNL     1       2.286   5.029  18.060  0.00  0.00    +0.000 C 
BRANCH  14  15
ATOM     15  C   UNL     1       1.411   4.265  19.053  0.00  0.00    +0.000 C 
BRANCH  15  16
ATOM     16  C   UNL     1       1.290   2.792  18.659  0.00  0.00    +0.000 C 
BRANCH  16  17
ATOM     17  C   UNL     1       2.483   2.355  17.811  0.00  0.00    +0.000 C 
BRANCH  17  18
ATOM     18  C   UNL     1       3.447   1.451  18.596  0.00  0.00    +0.000 C 
BRANCH  18  20
ATOM     19  O   UNL     1       4.796   2.087  20.494  0.00  0.00    +0.000 OA
ATOM     20  C   UNL     1       4.516   2.259  19.321  0.00  0.00    +0.000 C 
ATOM     21  N   UNL     1       5.147   3.196  18.562  0.00  0.00    +0.000 N 
ATOM     22  H   UNL     1       4.907   3.336  17.577  0.00  0.00    +0.000 HD
BRANCH  21  23
ATOM     23  O   UNL     1       6.161   4.032  19.070  0.00  0.00    +0.000 OA
ATOM     24  H   UNL     1       5.885   4.249  19.984  0.00  0.00    +0.000 HD
ENDBRANCH  21  23
ENDBRANCH  18  20
ENDBRANCH  17  18
ENDBRANCH  16  17
ENDBRANCH  15  16
ENDBRANCH  14  15
ENDBRANCH   1  14
TORSDOF 9
ENDMDL
MODEL 5
REMARK VINA RESULT:      -7.1      0.963      1.068
REMARK  Name = 
REMARK  9 active torsions:
REMARK  status: ('A' for Active; 'I' for Inactive)
REMARK    1  A    between atoms: C_2  and  C_3
REMARK    2  A    between atoms: C_3  and  C_4
REMARK    3  A    between atoms: C_4  and  C_5
REMARK    4  A    between atoms: C_5  and  C_6
REMARK    5  A    between atoms: C_6  and  C_7
REMARK    6  A    between atoms: C_7  and  C_8
REMARK    7  A    between atoms: C_8  and  C_9
REMARK    8  A    between atoms: C_11  and  C_12
REMARK    9  A    between atoms: N_21  and  O_22
REMARK                            x       y       z     vdW  Elec       q    Type
REMARK                         _______ _______ _______ _____ _____    ______ ____
ROOT
ATOM      1  C   UNL     1       8.272   7.603  18.021  0.00  0.00    +0.000 C 
ENDROOT
BRANCH   1   2
ATOM      2  C   UNL     1       7.169   6.773  17.498  0.00  0.00    +0.000 A 
ATOM      3  N   UNL     1       6.048   6.422  18.079  0.00  0.00    +0.000 NA
ATOM      4  C   UNL     1       5.472   5.602  17.136  0.00  0.00    +0.000 A 
ATOM      5  N   UNL     1       6.194   5.466  16.012  0.00  0.00    +0.000 NA
ATOM      6  O   UNL     1       7.320   6.251  16.249  0.00  0.00    +0.000 OA
BRANCH   4   7
ATOM      7  C   UNL     1       4.211   4.926  17.385  0.00  0.00    +0.000 A 
ATOM      8  C   UNL     1       3.124   5.649  17.902  0.00  0.00    +0.000 A 
ATOM      9  C   UNL     1       1.919   5.004  18.185  0.00  0.00    +0.000 A 
ATOM     10  C   UNL     1       1.808   3.638  17.955  0.00  0.00    +0.000 A 
ATOM     11  F   UNL     1       0.657   3.016  18.241  0.00  0.00    +0.000 F 
ATOM     12  C   UNL     1       2.870   2.905  17.440  0.00  0.00    +0.000 A 
ATOM     13  C   UNL     1       4.073   3.550  17.150  0.00  0.00    +0.000 A 
ENDBRANCH   4   7
ENDBRANCH   1   2
BRANCH   1  14
ATOM     14  C   UNL     1       7.926   9.087  17.934  0.00  0.00    +0.000 C 
BRANCH  14  15
ATOM     15  C   UNL     1       8.922   9.933  18.725  0.00  0.00    +0.000 C 
BRANCH  15  16
ATOM     16  C   UNL     1       9.131  11.297  18.067  0.00  0.00    +0.000 C 
BRANCH  16  17
ATOM     17  C   UNL     1      10.606  11.525  17.740  0.00  0.00    +0.000 C 
BRANCH  17  18
ATOM     18  C   UNL     1      11.315  12.348  18.827  0.00  0.00    +0.000 C 
BRANCH  18  20
ATOM     19  O   UNL     1      11.883  14.671  19.151  0.00  0.00    +0.000 OA
ATOM     20  C   UNL     1      11.557  13.785  18.382  0.00  0.00    +0.000 C 
ATOM     21  N   UNL     1      11.385  14.015  17.052  0.00  0.00    +0.000 N 
ATOM     22  H   UNL     1      11.110  13.266  16.411  0.00  0.00    +0.000 HD
BRANCH  21  23
ATOM     23  O   UNL     1      11.566  15.285  16.468  0.00  0.00    +0.000 OA
ATOM     24  H   UNL     1      12.008  15.826  17.155  0.00  0.00    +0.000 HD
ENDBRANCH  21  23
ENDBRANCH  18  20
ENDBRANCH  17  18
ENDBRANCH  16  17
ENDBRANCH  15  16
ENDBRANCH  14  15
ENDBRANCH   1  14
TORSDOF 9
ENDMDL
MODEL 6
REMARK VINA RESULT:      -7.1      6.088      8.663
REMARK  Name = 
REMARK  9 active torsions:
REMARK  status: ('A' for Active; 'I' for Inactive)
REMARK    1  A    between atoms: C_2  and  C_3
REMARK    2  A    between atoms: C_3  and  C_4
REMARK    3  A    between atoms: C_4  and  C_5
REMARK    4  A    between atoms: C_5  and  C_6
REMARK    5  A    between atoms: C_6  and  C_7
REMARK    6  A    between atoms: C_7  and  C_8
REMARK    7  A    between atoms: C_8  and  C_9
REMARK    8  A    between atoms: C_11  and  C_12
REMARK    9  A    between atoms: N_21  and  O_22
REMARK                            x       y       z     vdW  Elec       q    Type
REMARK                         _______ _______ _______ _____ _____    ______ ____
ROOT
ATOM      1  C   UNL     1       4.206   5.767  19.652  0.00  0.00    +0.000 C 
ENDROOT
BRANCH   1   2
ATOM      2  C   UNL     1       5.111   5.295  18.585  0.00  0.00    +0.000 A 
ATOM      3  N   UNL     1       5.038   5.484  17.291  0.00  0.00    +0.000 NA
ATOM      4  C   UNL     1       6.106   4.752  16.826  0.00  0.00    +0.000 A 
ATOM      5  N   UNL     1       6.823   4.152  17.791  0.00  0.00    +0.000 NA
ATOM      6  O   UNL     1       6.165   4.518  18.963  0.00  0.00    +0.000 OA
BRANCH   4   7
ATOM      7  C   UNL     1       6.381   4.628  15.405  0.00  0.00    +0.000 A 
ATOM      8  C   UNL     1       5.573   3.799  14.611  0.00  0.00    +0.000 A 
ATOM      9  C   UNL     1       5.850   3.637  13.253  0.00  0.00    +0.000 A 
ATOM     10  C   UNL     1       6.937   4.301  12.696  0.00  0.00    +0.000 A 
ATOM     11  F   UNL     1       7.212   4.134  11.396  0.00  0.00    +0.000 F 
ATOM     12  C   UNL     1       7.746   5.129  13.463  0.00  0.00    +0.000 A 
ATOM     13  C   UNL     1       7.466   5.298  14.820  0.00  0.00    +0.000 A 
ENDBRANCH   4   7
ENDBRANCH   1   2
BRANCH   1  14
ATOM     14  C   UNL     1       2.942   6.385  19.060  0.00  0.00    +0.000 C 
BRANCH  14  15
ATOM     15  C   UNL     1       1.793   6.362  20.068  0.00  0.00    +0.000 C 
BRANCH  15  16
ATOM     16  C   UNL     1       1.711   5.009  20.776  0.00  0.00    +0.000 C 
BRANCH  16  17
ATOM     17  C   UNL     1       0.969   3.988  19.915  0.00  0.00    +0.000 C 
BRANCH  17  18
ATOM     18  C   UNL     1       1.330   2.543  20.298  0.00  0.00    +0.000 C 
BRANCH  18  20
ATOM     19  O   UNL     1       3.127   2.413  21.903  0.00  0.00    +0.000 OA
ATOM     20  C   UNL     1       2.784   2.420  20.735  0.00  0.00    +0.000 C 
ATOM     21  N   UNL     1       3.686   2.315  19.721  0.00  0.00    +0.000 N 
ATOM     22  H   UNL     1       3.391   2.322  18.741  0.00  0.00    +0.000 HD
BRANCH  21  23
ATOM     23  O   UNL     1       5.072   2.193  19.942  0.00  0.00    +0.000 OA
ATOM     24  H   UNL     1       5.388   3.103  20.117  0.00  0.00    +0.000 HD
ENDBRANCH  21  23
ENDBRANCH  18  20
ENDBRANCH  17  18
ENDBRANCH  16  17
ENDBRANCH  15  16
ENDBRANCH  14  15
ENDBRANCH   1  14
TORSDOF 9
ENDMDL
MODEL 7
REMARK VINA RESULT:      -7.1      5.232      7.677
REMARK  Name = 
REMARK  9 active torsions:
REMARK  status: ('A' for Active; 'I' for Inactive)
REMARK    1  A    between atoms: C_2  and  C_3
REMARK    2  A    between atoms: C_3  and  C_4
REMARK    3  A    between atoms: C_4  and  C_5
REMARK    4  A    between atoms: C_5  and  C_6
REMARK    5  A    between atoms: C_6  and  C_7
REMARK    6  A    between atoms: C_7  and  C_8
REMARK    7  A    between atoms: C_8  and  C_9
REMARK    8  A    between atoms: C_11  and  C_12
REMARK    9  A    between atoms: N_21  and  O_22
REMARK                            x       y       z     vdW  Elec       q    Type
REMARK                         _______ _______ _______ _____ _____    ______ ____
ROOT
ATOM      1  C   UNL     1       2.452   1.958  19.170  0.00  0.00    +0.000 C 
ENDROOT
BRANCH   1   2
ATOM      2  C   UNL     1       3.390   2.869  18.483  0.00  0.00    +0.000 A 
ATOM      3  N   UNL     1       4.349   3.606  18.987  0.00  0.00    +0.000 NA
ATOM      4  C   UNL     1       4.815   4.279  17.881  0.00  0.00    +0.000 A 
ATOM      5  N   UNL     1       4.186   3.959  16.738  0.00  0.00    +0.000 NA
ATOM      6  O   UNL     1       3.242   3.016  17.137  0.00  0.00    +0.000 OA
BRANCH   4   7
ATOM      7  C   UNL     1       5.869   5.273  17.984  0.00  0.00    +0.000 A 
ATOM      8  C   UNL     1       6.889   5.108  18.935  0.00  0.00    +0.000 A 
ATOM      9  C   UNL     1       7.885   6.076  19.074  0.00  0.00    +0.000 A 
ATOM     10  C   UNL     1       7.855   7.205  18.265  0.00  0.00    +0.000 A 
ATOM     11  F   UNL     1       8.802   8.141  18.408  0.00  0.00    +0.000 F 
ATOM     12  C   UNL     1       6.857   7.385  17.315  0.00  0.00    +0.000 A 
ATOM     13  C   UNL     1       5.864   6.415  17.169  0.00  0.00    +0.000 A 
ENDBRANCH   4   7
ENDBRANCH   1   2
BRANCH   1  14
ATOM     14  C   UNL     1       1.874   2.613  20.421  0.00  0.00    +0.000 C 
BRANCH  14  15
ATOM     15  C   UNL     1       1.014   3.823  20.063  0.00  0.00    +0.000 C 
BRANCH  15  16
ATOM     16  C   UNL     1       1.525   5.086  20.758  0.00  0.00    +0.000 C 
BRANCH  16  17
ATOM     17  C   UNL     1       2.226   6.010  19.763  0.00  0.00    +0.000 C 
BRANCH  17  18
ATOM     18  C   UNL     1       1.963   7.492  20.072  0.00  0.00    +0.000 C 
BRANCH  18  20
ATOM     19  O   UNL     1       2.812   8.124  17.902  0.00  0.00    +0.000 OA
ATOM     20  C   UNL     1       2.042   8.354  18.818  0.00  0.00    +0.000 C 
ATOM     21  N   UNL     1       1.185   9.411  18.787  0.00  0.00    +0.000 N 
ATOM     22  H   UNL     1       0.541   9.599  19.560  0.00  0.00    +0.000 HD
BRANCH  21  23
ATOM     23  O   UNL     1       1.123  10.311  17.705  0.00  0.00    +0.000 OA
ATOM     24  H   UNL     1       1.220  11.202  18.103  0.00  0.00    +0.000 HD
ENDBRANCH  21  23
ENDBRANCH  18  20
ENDBRANCH  17  18
ENDBRANCH  16  17
ENDBRANCH  15  16
ENDBRANCH  14  15
ENDBRANCH   1  14
TORSDOF 9
ENDMDL
MODEL 8
REMARK VINA RESULT:      -7.0      5.120      7.746
REMARK  Name = 
REMARK  9 active torsions:
REMARK  status: ('A' for Active; 'I' for Inactive)
REMARK    1  A    between atoms: C_2  and  C_3
REMARK    2  A    between atoms: C_3  and  C_4
REMARK    3  A    between atoms: C_4  and  C_5
REMARK    4  A    between atoms: C_5  and  C_6
REMARK    5  A    between atoms: C_6  and  C_7
REMARK    6  A    between atoms: C_7  and  C_8
REMARK    7  A    between atoms: C_8  and  C_9
REMARK    8  A    between atoms: C_11  and  C_12
REMARK    9  A    between atoms: N_21  and  O_22
REMARK                            x       y       z     vdW  Elec       q    Type
REMARK                         _______ _______ _______ _____ _____    ______ ____
ROOT
ATOM      1  C   UNL     1       2.851   1.851  18.740  0.00  0.00    +0.000 C 
ENDROOT
BRANCH   1   2
ATOM      2  C   UNL     1       3.745   2.874  18.162  0.00  0.00    +0.000 A 
ATOM      3  N   UNL     1       4.637   3.629  18.756  0.00  0.00    +0.000 NA
ATOM      4  C   UNL     1       5.088   4.419  17.724  0.00  0.00    +0.000 A 
ATOM      5  N   UNL     1       4.516   4.154  16.538  0.00  0.00    +0.000 NA
ATOM      6  O   UNL     1       3.627   3.121  16.827  0.00  0.00    +0.000 OA
BRANCH   4   7
ATOM      7  C   UNL     1       6.069   5.468  17.943  0.00  0.00    +0.000 A 
ATOM      8  C   UNL     1       6.037   6.626  17.150  0.00  0.00    +0.000 A 
ATOM      9  C   UNL     1       6.998   7.623  17.321  0.00  0.00    +0.000 A 
ATOM     10  C   UNL     1       7.989   7.456  18.281  0.00  0.00    +0.000 A 
ATOM     11  F   UNL     1       8.920   8.407  18.436  0.00  0.00    +0.000 F 
ATOM     12  C   UNL     1       8.035   6.321  19.080  0.00  0.00    +0.000 A 
ATOM     13  C   UNL     1       7.070   5.325  18.915  0.00  0.00    +0.000 A 
ENDBRANCH   4   7
ENDBRANCH   1   2
BRANCH   1  14
ATOM     14  C   UNL     1       1.499   2.454  19.110  0.00  0.00    +0.000 C 
BRANCH  14  15
ATOM     15  C   UNL     1       1.547   3.111  20.488  0.00  0.00    +0.000 C 
BRANCH  15  16
ATOM     16  C   UNL     1       1.110   4.574  20.416  0.00  0.00    +0.000 C 
BRANCH  16  17
ATOM     17  C   UNL     1       2.307   5.489  20.164  0.00  0.00    +0.000 C 
BRANCH  17  18
ATOM     18  C   UNL     1       1.903   6.972  20.147  0.00  0.00    +0.000 C 
BRANCH  18  20
ATOM     19  O   UNL     1       2.838   7.069  17.924  0.00  0.00    +0.000 OA
ATOM     20  C   UNL     1       2.208   7.626  18.806  0.00  0.00    +0.000 C 
ATOM     21  N   UNL     1       1.725   8.889  18.654  0.00  0.00    +0.000 N 
ATOM     22  H   UNL     1       1.197   9.352  19.399  0.00  0.00    +0.000 HD
BRANCH  21  23
ATOM     23  O   UNL     1       1.914   9.643  17.479  0.00  0.00    +0.000 OA
ATOM     24  H   UNL     1       1.152   9.423  16.904  0.00  0.00    +0.000 HD
ENDBRANCH  21  23
ENDBRANCH  18  20
ENDBRANCH  17  18
ENDBRANCH  16  17
ENDBRANCH  15  16
ENDBRANCH  14  15
ENDBRANCH   1  14
TORSDOF 9
ENDMDL
MODEL 9
REMARK VINA RESULT:      -7.0      1.255      1.408
REMARK  Name = 
REMARK  9 active torsions:
REMARK  status: ('A' for Active; 'I' for Inactive)
REMARK    1  A    between atoms: C_2  and  C_3
REMARK    2  A    between atoms: C_3  and  C_4
REMARK    3  A    between atoms: C_4  and  C_5
REMARK    4  A    between atoms: C_5  and  C_6
REMARK    5  A    between atoms: C_6  and  C_7
REMARK    6  A    between atoms: C_7  and  C_8
REMARK    7  A    between atoms: C_8  and  C_9
REMARK    8  A    between atoms: C_11  and  C_12
REMARK    9  A    between atoms: N_21  and  O_22
REMARK                            x       y       z     vdW  Elec       q    Type
REMARK                         _______ _______ _______ _____ _____    ______ ____
ROOT
ATOM      1  C   UNL     1       8.164   7.497  17.431  0.00  0.00    +0.000 C 
ENDROOT
BRANCH   1   2
ATOM      2  C   UNL     1       7.074   6.502  17.471  0.00  0.00    +0.000 A 
ATOM      3  N   UNL     1       5.895   6.584  18.036  0.00  0.00    +0.000 NA
ATOM      4  C   UNL     1       5.366   5.337  17.798  0.00  0.00    +0.000 A 
ATOM      5  N   UNL     1       6.173   4.522  17.098  0.00  0.00    +0.000 NA
ATOM      6  O   UNL     1       7.308   5.299  16.875  0.00  0.00    +0.000 OA
BRANCH   4   7
ATOM      7  C   UNL     1       4.062   4.954  18.309  0.00  0.00    +0.000 A 
ATOM      8  C   UNL     1       3.736   5.216  19.650  0.00  0.00    +0.000 A 
ATOM      9  C   UNL     1       2.503   4.817  20.166  0.00  0.00    +0.000 A 
ATOM     10  C   UNL     1       1.602   4.154  19.341  0.00  0.00    +0.000 A 
ATOM     11  F   UNL     1       0.424   3.758  19.840  0.00  0.00    +0.000 F 
ATOM     12  C   UNL     1       1.902   3.889  18.011  0.00  0.00    +0.000 A 
ATOM     13  C   UNL     1       3.133   4.294  17.491  0.00  0.00    +0.000 A 
ENDBRANCH   4   7
ENDBRANCH   1   2
BRANCH   1  14
ATOM     14  C   UNL     1       7.686   8.850  17.952  0.00  0.00    +0.000 C 
BRANCH  14  15
ATOM     15  C   UNL     1       8.827   9.619  18.616  0.00  0.00    +0.000 C 
BRANCH  15  16
ATOM     16  C   UNL     1       8.875  11.066  18.123  0.00  0.00    +0.000 C 
BRANCH  16  17
ATOM     17  C   UNL     1      10.106  11.788  18.669  0.00  0.00    +0.000 C 
BRANCH  17  18
ATOM     18  C   UNL     1      11.110  12.134  17.558  0.00  0.00    +0.000 C 
BRANCH  18  20
ATOM     19  O   UNL     1      11.716  14.341  18.323  0.00  0.00    +0.000 OA
ATOM     20  C   UNL     1      11.303  13.638  17.418  0.00  0.00    +0.000 C 
ATOM     21  N   UNL     1      10.982  14.152  16.199  0.00  0.00    +0.000 N 
ATOM     22  H   UNL     1      10.635  13.557  15.443  0.00  0.00    +0.000 HD
BRANCH  21  23
ATOM     23  O   UNL     1      11.100  15.523  15.895  0.00  0.00    +0.000 OA
ATOM     24  H   UNL     1      10.436  15.972  16.458  0.00  0.00    +0.000 HD
ENDBRANCH  21  23
ENDBRANCH  18  20
ENDBRANCH  17  18
ENDBRANCH  16  17
ENDBRANCH  15  16
ENDBRANCH  14  15
ENDBRANCH   1  14
TORSDOF 9
ENDMDL
