MODEL 1
REMARK VINA RESULT:      -8.5      0.000      0.000
REMARK  Name = 
REMARK  9 active torsions:
REMARK  status: ('A' for Active; 'I' for Inactive)
REMARK    1  A    between atoms: C_1  and  C_2
REMARK    2  A    between atoms: C_2  and  C_3
REMARK    3  A    between atoms: C_8  and  C_10
REMARK    4  A    between atoms: C_15  and  C_16
REMARK    5  A    between atoms: C_16  and  O_17
REMARK    6  A    between atoms: C_16  and  C_18
REMARK    7  A    between atoms: C_16  and  C_24
REMARK    8  A    between atoms: N_30  and  C_31
REMARK    9  A    between atoms: C_31  and  C_32
REMARK                            x       y       z     vdW  Elec       q    Type
REMARK                         _______ _______ _______ _____ _____    ______ ____
ROOT
ATOM      1  C   UNL     1       0.585   9.976  19.591  0.00  0.00    +0.000 A 
ATOM      2  C   UNL     1       1.119  10.433  18.381  0.00  0.00    +0.000 A 
ATOM      3  C   UNL     1       2.060   9.658  17.673  0.00  0.00    +0.000 A 
ATOM      4  C   UNL     1       2.461   8.413  18.190  0.00  0.00    +0.000 A 
ATOM      5  N   UNL     1       3.344   7.488  17.699  0.00  0.00    +0.000 NA
ATOM      6  C   UNL     1       3.389   6.493  18.586  0.00  0.00    +0.000 A 
ATOM      7  N   UNL     1       2.517   6.759  19.636  0.00  0.00    +0.000 N 
ATOM      8  C   UNL     1       1.932   7.987  19.397  0.00  0.00    +0.000 A 
ATOM      9  C   UNL     1       1.006   8.746  20.119  0.00  0.00    +0.000 A 
ENDROOT
BRANCH   1  15
ATOM     10  C   UNL     1      -3.523  13.192  21.876  0.00  0.00    +0.000 A 
ATOM     11  C   UNL     1      -3.868  13.767  20.673  0.00  0.00    +0.000 A 
ATOM     12  N   UNL     1      -3.024  13.205  19.754  0.00  0.00    +0.000 N 
ATOM     13  C   UNL     1      -2.191  12.334  20.415  0.00  0.00    +0.000 A 
ATOM     14  N   UNL     1      -1.226  11.615  19.744  0.00  0.00    +0.000 N 
ATOM     15  C   UNL     1      -0.399  10.738  20.422  0.00  0.00    +0.000 C 
ATOM     16  O   UNL     1      -0.412  10.497  21.625  0.00  0.00    +0.000 OA
ATOM     17  N   UNL     1      -2.482  12.321  21.693  0.00  0.00    +0.000 NA
ATOM     18  H   UNL     1      -3.003  13.403  18.768  0.00  0.00    +0.000 HD
ATOM     19  H   UNL     1      -1.177  11.689  18.743  0.00  0.00    +0.000 HD
BRANCH  10  21
ATOM     20  C   UNL     1      -3.702  12.288  24.193  0.00  0.00    +0.000 C 
ATOM     21  C   UNL     1      -4.109  13.390  23.228  0.00  0.00    +0.000 C 
ENDBRANCH  10  21
ENDBRANCH   1  15
BRANCH   7  22
ATOM     22  C   UNL     1       2.247   5.985  20.833  0.00  0.00    +0.000 C 
ATOM     23  C   UNL     1       1.083   5.002  20.756  0.00  0.00    +0.000 C 
ENDBRANCH   7  22
BRANCH   6  24
ATOM     24  C   UNL     1       4.257   5.227  18.374  0.00  0.00    +0.000 C 
BRANCH  24  25
ATOM     25  C   UNL     1       3.425   3.927  18.503  0.00  0.00    +0.000 A 
ATOM     26  C   UNL     1       2.201   3.760  17.824  0.00  0.00    +0.000 A 
ATOM     27  C   UNL     1       1.371   2.663  18.058  0.00  0.00    +0.000 A 
ATOM     28  C   UNL     1       1.782   1.662  18.929  0.00  0.00    +0.000 A 
ATOM     29  C   UNL     1       3.027   1.753  19.545  0.00  0.00    +0.000 A 
ATOM     30  C   UNL     1       3.838   2.878  19.344  0.00  0.00    +0.000 A 
ENDBRANCH  24  25
BRANCH  24  31
ATOM     31  C   UNL     1       5.160   5.270  17.127  0.00  0.00    +0.000 A 
ATOM     32  C   UNL     1       4.799   4.676  15.905  0.00  0.00    +0.000 A 
ATOM     33  C   UNL     1       5.707   4.588  14.848  0.00  0.00    +0.000 A 
ATOM     34  C   UNL     1       6.972   5.151  14.966  0.00  0.00    +0.000 A 
ATOM     35  C   UNL     1       7.317   5.839  16.124  0.00  0.00    +0.000 A 
ATOM     36  C   UNL     1       6.416   5.908  17.189  0.00  0.00    +0.000 A 
ENDBRANCH  24  31
BRANCH  24  37
ATOM     37  O   UNL     1       5.203   5.235  19.469  0.00  0.00    +0.000 OA
ATOM     38  H   UNL     1       5.786   6.000  19.290  0.00  0.00    +0.000 HD
ENDBRANCH  24  37
ENDBRANCH   6  24
TORSDOF 7
ENDMDL
MODEL 2
REMARK VINA RESULT:      -8.5      1.316      3.414
REMARK  Name = 
REMARK  9 active torsions:
REMARK  status: ('A' for Active; 'I' for Inactive)
REMARK    1  A    between atoms: C_1  and  C_2
REMARK    2  A    between atoms: C_2  and  C_3
REMARK    3  A    between atoms: C_8  and  C_10
REMARK    4  A    between atoms: C_15  and  C_16
REMARK    5  A    between atoms: C_16  and  O_17
REMARK    6  A    between atoms: C_16  and  C_18
REMARK    7  A    between atoms: C_16  and  C_24
REMARK    8  A    between atoms: N_30  and  C_31
REMARK    9  A    between atoms: C_31  and  C_32
REMARK                            x       y       z     vdW  Elec       q    Type
REMARK                         _______ _______ _______ _____ _____    ______ ____
ROOT
ATOM      1  C   UNL     1       0.402   9.954  19.978  0.00  0.00    +0.000 A 
ATOM      2  C   UNL     1       0.705  10.567  18.756  0.00  0.00    +0.000 A 
ATOM      3  C   UNL     1       1.585   9.951  17.842  0.00  0.00    +0.000 A 
ATOM      4  C   UNL     1       2.159   8.708  18.165  0.00  0.00    +0.000 A 
ATOM      5  N   UNL     1       3.027   7.918  17.457  0.00  0.00    +0.000 NA
ATOM      6  C   UNL     1       3.286   6.856  18.219  0.00  0.00    +0.000 A 
ATOM      7  N   UNL     1       2.568   6.943  19.407  0.00  0.00    +0.000 N 
ATOM      8  C   UNL     1       1.857   8.126  19.384  0.00  0.00    +0.000 A 
ATOM      9  C   UNL     1       0.997   8.726  20.308  0.00  0.00    +0.000 A 
ENDROOT
BRANCH   1  15
ATOM     10  C   UNL     1      -3.341  12.792  23.199  0.00  0.00    +0.000 A 
ATOM     11  C   UNL     1      -3.600  13.734  22.228  0.00  0.00    +0.000 A 
ATOM     12  N   UNL     1      -2.812  13.378  21.166  0.00  0.00    +0.000 N 
ATOM     13  C   UNL     1      -2.096  12.261  21.521  0.00  0.00    +0.000 A 
ATOM     14  N   UNL     1      -1.210  11.669  20.647  0.00  0.00    +0.000 N 
ATOM     15  C   UNL     1      -0.500  10.541  21.018  0.00  0.00    +0.000 C 
ATOM     16  O   UNL     1      -0.558   9.956  22.094  0.00  0.00    +0.000 OA
ATOM     17  N   UNL     1      -2.404  11.901  22.743  0.00  0.00    +0.000 NA
ATOM     18  H   UNL     1      -2.754  13.857  20.284  0.00  0.00    +0.000 HD
ATOM     19  H   UNL     1      -1.137  12.031  19.713  0.00  0.00    +0.000 HD
BRANCH  10  21
ATOM     20  C   UNL     1      -5.409  12.338  24.517  0.00  0.00    +0.000 C 
ATOM     21  C   UNL     1      -3.920  12.644  24.559  0.00  0.00    +0.000 C 
ENDBRANCH  10  21
ENDBRANCH   1  15
BRANCH   7  22
ATOM     22  C   UNL     1       2.548   6.041  20.544  0.00  0.00    +0.000 C 
ATOM     23  C   UNL     1       1.363   5.084  20.629  0.00  0.00    +0.000 C 
ENDBRANCH   7  22
BRANCH   6  24
ATOM     24  C   UNL     1       4.210   5.702  17.754  0.00  0.00    +0.000 C 
BRANCH  24  25
ATOM     25  C   UNL     1       5.693   5.971  18.108  0.00  0.00    +0.000 A 
ATOM     26  C   UNL     1       6.316   5.353  19.212  0.00  0.00    +0.000 A 
ATOM     27  C   UNL     1       7.599   5.710  19.630  0.00  0.00    +0.000 A 
ATOM     28  C   UNL     1       8.324   6.646  18.906  0.00  0.00    +0.000 A 
ATOM     29  C   UNL     1       7.772   7.207  17.756  0.00  0.00    +0.000 A 
ATOM     30  C   UNL     1       6.466   6.882  17.366  0.00  0.00    +0.000 A 
ENDBRANCH  24  25
BRANCH  24  31
ATOM     31  C   UNL     1       3.720   4.294  18.141  0.00  0.00    +0.000 A 
ATOM     32  C   UNL     1       4.355   3.509  19.120  0.00  0.00    +0.000 A 
ATOM     33  C   UNL     1       3.990   2.178  19.327  0.00  0.00    +0.000 A 
ATOM     34  C   UNL     1       2.939   1.622  18.608  0.00  0.00    +0.000 A 
ATOM     35  C   UNL     1       2.224   2.408  17.711  0.00  0.00    +0.000 A 
ATOM     36  C   UNL     1       2.603   3.733  17.488  0.00  0.00    +0.000 A 
ENDBRANCH  24  31
BRANCH  24  37
ATOM     37  O   UNL     1       4.112   5.703  16.311  0.00  0.00    +0.000 OA
ATOM     38  H   UNL     1       3.808   4.802  16.080  0.00  0.00    +0.000 HD
ENDBRANCH  24  37
ENDBRANCH   6  24
TORSDOF 7
ENDMDL
MODEL 3
REMARK VINA RESULT:      -8.2      1.171      1.315
REMARK  Name = 
REMARK  9 active torsions:
REMARK  status: ('A' for Active; 'I' for Inactive)
REMARK    1  A    between atoms: C_1  and  C_2
REMARK    2  A    between atoms: C_2  and  C_3
REMARK    3  A    between atoms: C_8  and  C_10
REMARK    4  A    between atoms: C_15  and  C_16
REMARK    5  A    between atoms: C_16  and  O_17
REMARK    6  A    between atoms: C_16  and  C_18
REMARK    7  A    between atoms: C_16  and  C_24
REMARK    8  A    between atoms: N_30  and  C_31
REMARK    9  A    between atoms: C_31  and  C_32
REMARK                            x       y       z     vdW  Elec       q    Type
REMARK                         _______ _______ _______ _____ _____    ______ ____
ROOT
ATOM      1  C   UNL     1       0.962   9.785  19.672  0.00  0.00    +0.000 A 
ATOM      2  C   UNL     1       1.402  10.235  18.422  0.00  0.00    +0.000 A 
ATOM      3  C   UNL     1       2.256   9.438  17.631  0.00  0.00    +0.000 A 
ATOM      4  C   UNL     1       2.664   8.179  18.106  0.00  0.00    +0.000 A 
ATOM      5  N   UNL     1       3.474   7.232  17.536  0.00  0.00    +0.000 NA
ATOM      6  C   UNL     1       3.566   6.230  18.411  0.00  0.00    +0.000 A 
ATOM      7  N   UNL     1       2.796   6.514  19.534  0.00  0.00    +0.000 N 
ATOM      8  C   UNL     1       2.228   7.759  19.352  0.00  0.00    +0.000 A 
ATOM      9  C   UNL     1       1.392   8.539  20.155  0.00  0.00    +0.000 A 
ENDROOT
BRANCH   1  15
ATOM     10  C   UNL     1      -1.767  13.518  22.998  0.00  0.00    +0.000 A 
ATOM     11  C   UNL     1      -0.766  14.460  22.916  0.00  0.00    +0.000 A 
ATOM     12  N   UNL     1       0.191  13.896  22.117  0.00  0.00    +0.000 N 
ATOM     13  C   UNL     1      -0.238  12.641  21.756  0.00  0.00    +0.000 A 
ATOM     14  N   UNL     1       0.524  11.827  20.947  0.00  0.00    +0.000 N 
ATOM     15  C   UNL     1       0.076  10.569  20.589  0.00  0.00    +0.000 C 
ATOM     16  O   UNL     1      -0.983  10.045  20.917  0.00  0.00    +0.000 OA
ATOM     17  N   UNL     1      -1.414  12.402  22.283  0.00  0.00    +0.000 NA
ATOM     18  H   UNL     1       1.064  14.317  21.850  0.00  0.00    +0.000 HD
ATOM     19  H   UNL     1       1.381  12.189  20.567  0.00  0.00    +0.000 HD
BRANCH  10  21
ATOM     20  C   UNL     1      -3.044  14.535  24.882  0.00  0.00    +0.000 C 
ATOM     21  C   UNL     1      -3.073  13.575  23.704  0.00  0.00    +0.000 C 
ENDBRANCH  10  21
ENDBRANCH   1  15
BRANCH   7  22
ATOM     22  C   UNL     1       2.608   5.739  20.746  0.00  0.00    +0.000 C 
ATOM     23  C   UNL     1       1.339   4.896  20.822  0.00  0.00    +0.000 C 
ENDBRANCH   7  22
BRANCH   6  24
ATOM     24  C   UNL     1       4.376   4.942  18.119  0.00  0.00    +0.000 C 
BRANCH  24  25
ATOM     25  C   UNL     1       3.506   3.668  18.263  0.00  0.00    +0.000 A 
ATOM     26  C   UNL     1       2.178   3.620  17.792  0.00  0.00    +0.000 A 
ATOM     27  C   UNL     1       1.340   2.536  18.059  0.00  0.00    +0.000 A 
ATOM     28  C   UNL     1       1.835   1.435  18.744  0.00  0.00    +0.000 A 
ATOM     29  C   UNL     1       3.169   1.413  19.142  0.00  0.00    +0.000 A 
ATOM     30  C   UNL     1       3.995   2.522  18.914  0.00  0.00    +0.000 A 
ENDBRANCH  24  25
BRANCH  24  31
ATOM     31  C   UNL     1       5.207   4.987  16.824  0.00  0.00    +0.000 A 
ATOM     32  C   UNL     1       4.731   4.499  15.595  0.00  0.00    +0.000 A 
ATOM     33  C   UNL     1       5.568   4.402  14.482  0.00  0.00    +0.000 A 
ATOM     34  C   UNL     1       6.881   4.853  14.554  0.00  0.00    +0.000 A 
ATOM     35  C   UNL     1       7.346   5.440  15.726  0.00  0.00    +0.000 A 
ATOM     36  C   UNL     1       6.514   5.517  16.846  0.00  0.00    +0.000 A 
ENDBRANCH  24  31
BRANCH  24  37
ATOM     37  O   UNL     1       5.380   4.888  19.159  0.00  0.00    +0.000 OA
ATOM     38  H   UNL     1       5.589   5.824  19.353  0.00  0.00    +0.000 HD
ENDBRANCH  24  37
ENDBRANCH   6  24
TORSDOF 7
ENDMDL
MODEL 4
REMARK VINA RESULT:      -8.2      1.370      3.266
REMARK  Name = 
REMARK  9 active torsions:
REMARK  status: ('A' for Active; 'I' for Inactive)
REMARK    1  A    between atoms: C_1  and  C_2
REMARK    2  A    between atoms: C_2  and  C_3
REMARK    3  A    between atoms: C_8  and  C_10
REMARK    4  A    between atoms: C_15  and  C_16
REMARK    5  A    between atoms: C_16  and  O_17
REMARK    6  A    between atoms: C_16  and  C_18
REMARK    7  A    between atoms: C_16  and  C_24
REMARK    8  A    between atoms: N_30  and  C_31
REMARK    9  A    between atoms: C_31  and  C_32
REMARK                            x       y       z     vdW  Elec       q    Type
REMARK                         _______ _______ _______ _____ _____    ______ ____
ROOT
ATOM      1  C   UNL     1       0.282   9.984  20.044  0.00  0.00    +0.000 A 
ATOM      2  C   UNL     1       0.527  10.585  18.803  0.00  0.00    +0.000 A 
ATOM      3  C   UNL     1       1.391   9.977  17.869  0.00  0.00    +0.000 A 
ATOM      4  C   UNL     1       2.008   8.755  18.190  0.00  0.00    +0.000 A 
ATOM      5  N   UNL     1       2.872   7.977  17.465  0.00  0.00    +0.000 NA
ATOM      6  C   UNL     1       3.186   6.934  18.235  0.00  0.00    +0.000 A 
ATOM      7  N   UNL     1       2.506   7.021  19.445  0.00  0.00    +0.000 N 
ATOM      8  C   UNL     1       1.764   8.186  19.429  0.00  0.00    +0.000 A 
ATOM      9  C   UNL     1       0.920   8.778  20.373  0.00  0.00    +0.000 A 
ENDROOT
BRANCH   1  15
ATOM     10  C   UNL     1      -3.330  12.859  23.380  0.00  0.00    +0.000 A 
ATOM     11  C   UNL     1      -3.512  13.871  22.465  0.00  0.00    +0.000 A 
ATOM     12  N   UNL     1      -2.730  13.530  21.394  0.00  0.00    +0.000 N 
ATOM     13  C   UNL     1      -2.092  12.350  21.691  0.00  0.00    +0.000 A 
ATOM     14  N   UNL     1      -1.230  11.756  20.794  0.00  0.00    +0.000 N 
ATOM     15  C   UNL     1      -0.599  10.565  21.105  0.00  0.00    +0.000 C 
ATOM     16  O   UNL     1      -0.712   9.922  22.143  0.00  0.00    +0.000 OA
ATOM     17  N   UNL     1      -2.443  11.939  22.885  0.00  0.00    +0.000 NA
ATOM     18  H   UNL     1      -2.627  14.056  20.544  0.00  0.00    +0.000 HD
ATOM     19  H   UNL     1      -1.119  12.168  19.885  0.00  0.00    +0.000 HD
BRANCH  10  21
ATOM     20  C   UNL     1      -5.403  12.262  24.632  0.00  0.00    +0.000 C 
ATOM     21  C   UNL     1      -3.940  12.667  24.722  0.00  0.00    +0.000 C 
ENDBRANCH  10  21
ENDBRANCH   1  15
BRANCH   7  22
ATOM     22  C   UNL     1       2.549   6.139  20.596  0.00  0.00    +0.000 C 
ATOM     23  C   UNL     1       1.408   5.134  20.723  0.00  0.00    +0.000 C 
ENDBRANCH   7  22
BRANCH   6  24
ATOM     24  C   UNL     1       4.123   5.797  17.756  0.00  0.00    +0.000 C 
BRANCH  24  25
ATOM     25  C   UNL     1       5.581   6.012  18.229  0.00  0.00    +0.000 A 
ATOM     26  C   UNL     1       6.481   6.828  17.512  0.00  0.00    +0.000 A 
ATOM     27  C   UNL     1       7.835   6.900  17.842  0.00  0.00    +0.000 A 
ATOM     28  C   UNL     1       8.312   6.211  18.949  0.00  0.00    +0.000 A 
ATOM     29  C   UNL     1       7.430   5.470  19.732  0.00  0.00    +0.000 A 
ATOM     30  C   UNL     1       6.081   5.362  19.372  0.00  0.00    +0.000 A 
ENDBRANCH  24  25
BRANCH  24  31
ATOM     31  C   UNL     1       3.587   4.375  18.010  0.00  0.00    +0.000 A 
ATOM     32  C   UNL     1       2.335   3.939  17.545  0.00  0.00    +0.000 A 
ATOM     33  C   UNL     1       1.809   2.706  17.933  0.00  0.00    +0.000 A 
ATOM     34  C   UNL     1       2.551   1.853  18.741  0.00  0.00    +0.000 A 
ATOM     35  C   UNL     1       3.838   2.214  19.126  0.00  0.00    +0.000 A 
ATOM     36  C   UNL     1       4.355   3.457  18.755  0.00  0.00    +0.000 A 
ENDBRANCH  24  31
BRANCH  24  37
ATOM     37  O   UNL     1       4.127   5.898  16.313  0.00  0.00    +0.000 OA
ATOM     38  H   UNL     1       4.431   5.021  16.001  0.00  0.00    +0.000 HD
ENDBRANCH  24  37
ENDBRANCH   6  24
TORSDOF 7
ENDMDL
MODEL 5
REMARK VINA RESULT:      -8.0      2.312     11.167
REMARK  Name = 
REMARK  9 active torsions:
REMARK  status: ('A' for Active; 'I' for Inactive)
REMARK    1  A    between atoms: C_1  and  C_2
REMARK    2  A    between atoms: C_2  and  C_3
REMARK    3  A    between atoms: C_8  and  C_10
REMARK    4  A    between atoms: C_15  and  C_16
REMARK    5  A    between atoms: C_16  and  O_17
REMARK    6  A    between atoms: C_16  and  C_18
REMARK    7  A    between atoms: C_16  and  C_24
REMARK    8  A    between atoms: N_30  and  C_31
REMARK    9  A    between atoms: C_31  and  C_32
REMARK                            x       y       z     vdW  Elec       q    Type
REMARK                         _______ _______ _______ _____ _____    ______ ____
ROOT
ATOM      1  C   UNL     1       0.716   9.166  21.007  0.00  0.00    +0.000 A 
ATOM      2  C   UNL     1       0.651   8.975  22.393  0.00  0.00    +0.000 A 
ATOM      3  C   UNL     1      -0.166   9.800  23.193  0.00  0.00    +0.000 A 
ATOM      4  C   UNL     1      -0.923  10.820  22.590  0.00  0.00    +0.000 A 
ATOM      5  N   UNL     1      -1.780  11.736  23.140  0.00  0.00    +0.000 NA
ATOM      6  C   UNL     1      -2.219  12.499  22.138  0.00  0.00    +0.000 A 
ATOM      7  N   UNL     1      -1.670  12.062  20.938  0.00  0.00    +0.000 N 
ATOM      8  C   UNL     1      -0.833  11.000  21.220  0.00  0.00    +0.000 A 
ATOM      9  C   UNL     1      -0.020  10.201  20.410  0.00  0.00    +0.000 A 
ENDROOT
BRANCH   1  15
ATOM     10  C   UNL     1       3.900   5.377  18.187  0.00  0.00    +0.000 A 
ATOM     11  C   UNL     1       3.960   4.502  19.248  0.00  0.00    +0.000 A 
ATOM     12  N   UNL     1       3.240   5.101  20.247  0.00  0.00    +0.000 N 
ATOM     13  C   UNL     1       2.786   6.311  19.779  0.00  0.00    +0.000 A 
ATOM     14  N   UNL     1       2.025   7.145  20.569  0.00  0.00    +0.000 N 
ATOM     15  C   UNL     1       1.570   8.357  20.082  0.00  0.00    +0.000 C 
ATOM     16  O   UNL     1       1.767   8.820  18.964  0.00  0.00    +0.000 OA
ATOM     17  N   UNL     1       3.180   6.488  18.542  0.00  0.00    +0.000 NA
ATOM     18  H   UNL     1       3.081   4.730  21.168  0.00  0.00    +0.000 HD
ATOM     19  H   UNL     1       1.749   6.828  21.482  0.00  0.00    +0.000 HD
BRANCH  10  21
ATOM     20  C   UNL     1       4.987   6.589  16.298  0.00  0.00    +0.000 C 
ATOM     21  C   UNL     1       4.472   5.258  16.821  0.00  0.00    +0.000 C 
ENDBRANCH  10  21
ENDBRANCH   1  15
BRANCH   7  22
ATOM     22  C   UNL     1      -1.834  12.592  19.597  0.00  0.00    +0.000 C 
ATOM     23  C   UNL     1      -2.787  11.833  18.680  0.00  0.00    +0.000 C 
ENDBRANCH   7  22
BRANCH   6  24
ATOM     24  C   UNL     1      -3.243  13.643  22.350  0.00  0.00    +0.000 C 
BRANCH  24  25
ATOM     25  C   UNL     1      -4.676  13.101  22.577  0.00  0.00    +0.000 A 
ATOM     26  C   UNL     1      -5.515  12.747  21.500  0.00  0.00    +0.000 A 
ATOM     27  C   UNL     1      -6.856  12.411  21.689  0.00  0.00    +0.000 A 
ATOM     28  C   UNL     1      -7.376  12.349  22.975  0.00  0.00    +0.000 A 
ATOM     29  C   UNL     1      -6.548  12.603  24.066  0.00  0.00    +0.000 A 
ATOM     30  C   UNL     1      -5.215  12.985  23.871  0.00  0.00    +0.000 A 
ENDBRANCH  24  25
BRANCH  24  31
ATOM     31  C   UNL     1      -2.809  14.710  23.371  0.00  0.00    +0.000 A 
ATOM     32  C   UNL     1      -1.784  14.496  24.308  0.00  0.00    +0.000 A 
ATOM     33  C   UNL     1      -1.530  15.417  25.326  0.00  0.00    +0.000 A 
ATOM     34  C   UNL     1      -2.250  16.604  25.389  0.00  0.00    +0.000 A 
ATOM     35  C   UNL     1      -3.197  16.890  24.411  0.00  0.00    +0.000 A 
ATOM     36  C   UNL     1      -3.465  15.958  23.406  0.00  0.00    +0.000 A 
ENDBRANCH  24  31
BRANCH  24  37
ATOM     37  O   UNL     1      -3.258  14.367  21.097  0.00  0.00    +0.000 OA
ATOM     38  H   UNL     1      -2.466  14.941  21.131  0.00  0.00    +0.000 HD
ENDBRANCH  24  37
ENDBRANCH   6  24
TORSDOF 7
ENDMDL
MODEL 6
REMARK VINA RESULT:      -8.0      2.243     11.277
REMARK  Name = 
REMARK  9 active torsions:
REMARK  status: ('A' for Active; 'I' for Inactive)
REMARK    1  A    between atoms: C_1  and  C_2
REMARK    2  A    between atoms: C_2  and  C_3
REMARK    3  A    between atoms: C_8  and  C_10
REMARK    4  A    between atoms: C_15  and  C_16
REMARK    5  A    between atoms: C_16  and  O_17
REMARK    6  A    between atoms: C_16  and  C_18
REMARK    7  A    between atoms: C_16  and  C_24
REMARK    8  A    between atoms: N_30  and  C_31
REMARK    9  A    between atoms: C_31  and  C_32
REMARK                            x       y       z     vdW  Elec       q    Type
REMARK                         _______ _______ _______ _____ _____    ______ ____
ROOT
ATOM      1  C   UNL     1       0.798   9.132  20.944  0.00  0.00    +0.000 A 
ATOM      2  C   UNL     1       0.757   8.870  22.319  0.00  0.00    +0.000 A 
ATOM      3  C   UNL     1      -0.077   9.625  23.169  0.00  0.00    +0.000 A 
ATOM      4  C   UNL     1      -0.874  10.649  22.627  0.00  0.00    +0.000 A 
ATOM      5  N   UNL     1      -1.753  11.507  23.233  0.00  0.00    +0.000 NA
ATOM      6  C   UNL     1      -2.229  12.305  22.276  0.00  0.00    +0.000 A 
ATOM      7  N   UNL     1      -1.681  11.948  21.049  0.00  0.00    +0.000 N 
ATOM      8  C   UNL     1      -0.807  10.901  21.267  0.00  0.00    +0.000 A 
ATOM      9  C   UNL     1       0.021  10.172  20.409  0.00  0.00    +0.000 A 
ENDROOT
BRANCH   1  15
ATOM     10  C   UNL     1       4.098   5.613  17.916  0.00  0.00    +0.000 A 
ATOM     11  C   UNL     1       4.240   4.712  18.948  0.00  0.00    +0.000 A 
ATOM     12  N   UNL     1       3.519   5.240  19.985  0.00  0.00    +0.000 N 
ATOM     13  C   UNL     1       2.984   6.436  19.568  0.00  0.00    +0.000 A 
ATOM     14  N   UNL     1       2.203   7.202  20.405  0.00  0.00    +0.000 N 
ATOM     15  C   UNL     1       1.666   8.401  19.969  0.00  0.00    +0.000 C 
ATOM     16  O   UNL     1       1.802   8.906  18.861  0.00  0.00    +0.000 OA
ATOM     17  N   UNL     1       3.329   6.671  18.326  0.00  0.00    +0.000 NA
ATOM     18  H   UNL     1       3.409   4.834  20.898  0.00  0.00    +0.000 HD
ATOM     19  H   UNL     1       1.974   6.844  21.316  0.00  0.00    +0.000 HD
BRANCH  10  21
ATOM     20  C   UNL     1       5.221   4.206  16.191  0.00  0.00    +0.000 C 
ATOM     21  C   UNL     1       4.633   5.566  16.530  0.00  0.00    +0.000 C 
ENDBRANCH  10  21
ENDBRANCH   1  15
BRANCH   7  22
ATOM     22  C   UNL     1      -1.879  12.540  19.739  0.00  0.00    +0.000 C 
ATOM     23  C   UNL     1      -0.778  13.471  19.243  0.00  0.00    +0.000 C 
ENDBRANCH   7  22
BRANCH   6  24
ATOM     24  C   UNL     1      -3.287  13.402  22.556  0.00  0.00    +0.000 C 
BRANCH  24  25
ATOM     25  C   UNL     1      -2.867  14.773  21.973  0.00  0.00    +0.000 A 
ATOM     26  C   UNL     1      -3.711  15.504  21.111  0.00  0.00    +0.000 A 
ATOM     27  C   UNL     1      -3.278  16.658  20.457  0.00  0.00    +0.000 A 
ATOM     28  C   UNL     1      -2.006  17.155  20.707  0.00  0.00    +0.000 A 
ATOM     29  C   UNL     1      -1.180  16.508  21.623  0.00  0.00    +0.000 A 
ATOM     30  C   UNL     1      -1.601  15.323  22.243  0.00  0.00    +0.000 A 
ENDBRANCH  24  25
BRANCH  24  31
ATOM     31  C   UNL     1      -4.735  12.997  22.220  0.00  0.00    +0.000 A 
ATOM     32  C   UNL     1      -5.113  12.501  20.960  0.00  0.00    +0.000 A 
ATOM     33  C   UNL     1      -6.456  12.303  20.635  0.00  0.00    +0.000 A 
ATOM     34  C   UNL     1      -7.445  12.532  21.584  0.00  0.00    +0.000 A 
ATOM     35  C   UNL     1      -7.091  12.920  22.872  0.00  0.00    +0.000 A 
ATOM     36  C   UNL     1      -5.748  13.139  23.189  0.00  0.00    +0.000 A 
ENDBRANCH  24  31
BRANCH  24  37
ATOM     37  O   UNL     1      -3.307  13.543  23.996  0.00  0.00    +0.000 OA
ATOM     38  H   UNL     1      -2.790  14.355  24.175  0.00  0.00    +0.000 HD
ENDBRANCH  24  37
ENDBRANCH   6  24
TORSDOF 7
ENDMDL
MODEL 7
REMARK VINA RESULT:      -7.9      2.296     10.724
REMARK  Name = 
REMARK  9 active torsions:
REMARK  status: ('A' for Active; 'I' for Inactive)
REMARK    1  A    between atoms: C_1  and  C_2
REMARK    2  A    between atoms: C_2  and  C_3
REMARK    3  A    between atoms: C_8  and  C_10
REMARK    4  A    between atoms: C_15  and  C_16
REMARK    5  A    between atoms: C_16  and  O_17
REMARK    6  A    between atoms: C_16  and  C_18
REMARK    7  A    between atoms: C_16  and  C_24
REMARK    8  A    between atoms: N_30  and  C_31
REMARK    9  A    between atoms: C_31  and  C_32
REMARK                            x       y       z     vdW  Elec       q    Type
REMARK                         _______ _______ _______ _____ _____    ______ ____
ROOT
ATOM      1  C   UNL     1       1.296   8.586  20.206  0.00  0.00    +0.000 A 
ATOM      2  C   UNL     1       1.082   8.334  21.567  0.00  0.00    +0.000 A 
ATOM      3  C   UNL     1       0.265   9.188  22.336  0.00  0.00    +0.000 A 
ATOM      4  C   UNL     1      -0.342  10.301  21.725  0.00  0.00    +0.000 A 
ATOM      5  N   UNL     1      -1.167  11.262  22.247  0.00  0.00    +0.000 NA
ATOM      6  C   UNL     1      -1.441  12.110  21.255  0.00  0.00    +0.000 A 
ATOM      7  N   UNL     1      -0.818  11.685  20.087  0.00  0.00    +0.000 N 
ATOM      8  C   UNL     1      -0.105  10.540  20.382  0.00  0.00    +0.000 A 
ATOM      9  C   UNL     1       0.711   9.712  19.605  0.00  0.00    +0.000 A 
ENDROOT
BRANCH   1  15
ATOM     10  C   UNL     1       4.558   4.736  17.565  0.00  0.00    +0.000 A 
ATOM     11  C   UNL     1       4.652   3.923  18.672  0.00  0.00    +0.000 A 
ATOM     12  N   UNL     1       3.925   4.556  19.644  0.00  0.00    +0.000 N 
ATOM     13  C   UNL     1       3.433   5.725  19.115  0.00  0.00    +0.000 A 
ATOM     14  N   UNL     1       2.656   6.581  19.866  0.00  0.00    +0.000 N 
ATOM     15  C   UNL     1       2.163   7.751  19.317  0.00  0.00    +0.000 C 
ATOM     16  O   UNL     1       2.337   8.157  18.174  0.00  0.00    +0.000 OA
ATOM     17  N   UNL     1       3.810   5.845  17.866  0.00  0.00    +0.000 NA
ATOM     18  H   UNL     1       3.785   4.233  20.586  0.00  0.00    +0.000 HD
ATOM     19  H   UNL     1       2.398   6.308  20.798  0.00  0.00    +0.000 HD
BRANCH  10  21
ATOM     20  C   UNL     1       5.352   5.884  15.499  0.00  0.00    +0.000 C 
ATOM     21  C   UNL     1       5.120   4.556  16.201  0.00  0.00    +0.000 C 
ENDBRANCH  10  21
ENDBRANCH   1  15
BRANCH   7  22
ATOM     22  C   UNL     1      -0.807  12.294  18.770  0.00  0.00    +0.000 C 
ATOM     23  C   UNL     1       0.199  13.420  18.553  0.00  0.00    +0.000 C 
ENDBRANCH   7  22
BRANCH   6  24
ATOM     24  C   UNL     1      -2.380  13.329  21.438  0.00  0.00    +0.000 C 
BRANCH  24  25
ATOM     25  C   UNL     1      -3.568  13.008  22.378  0.00  0.00    +0.000 A 
ATOM     26  C   UNL     1      -4.897  12.974  21.909  0.00  0.00    +0.000 A 
ATOM     27  C   UNL     1      -5.982  12.844  22.776  0.00  0.00    +0.000 A 
ATOM     28  C   UNL     1      -5.761  12.670  24.135  0.00  0.00    +0.000 A 
ATOM     29  C   UNL     1      -4.456  12.607  24.619  0.00  0.00    +0.000 A 
ATOM     30  C   UNL     1      -3.370  12.785  23.752  0.00  0.00    +0.000 A 
ENDBRANCH  24  25
BRANCH  24  31
ATOM     31  C   UNL     1      -1.659  14.649  21.770  0.00  0.00    +0.000 A 
ATOM     32  C   UNL     1      -0.303  14.705  22.138  0.00  0.00    +0.000 A 
ATOM     33  C   UNL     1       0.274  15.891  22.593  0.00  0.00    +0.000 A 
ATOM     34  C   UNL     1      -0.473  17.062  22.629  0.00  0.00    +0.000 A 
ATOM     35  C   UNL     1      -1.785  17.059  22.168  0.00  0.00    +0.000 A 
ATOM     36  C   UNL     1      -2.368  15.867  21.733  0.00  0.00    +0.000 A 
ENDBRANCH  24  31
BRANCH  24  37
ATOM     37  O   UNL     1      -2.934  13.574  20.124  0.00  0.00    +0.000 OA
ATOM     38  H   UNL     1      -2.743  12.760  19.616  0.00  0.00    +0.000 HD
ENDBRANCH  24  37
ENDBRANCH   6  24
TORSDOF 7
ENDMDL
MODEL 8
REMARK VINA RESULT:      -7.9      2.273     11.227
REMARK  Name = 
REMARK  9 active torsions:
REMARK  status: ('A' for Active; 'I' for Inactive)
REMARK    1  A    between atoms: C_1  and  C_2
REMARK    2  A    between atoms: C_2  and  C_3
REMARK    3  A    between atoms: C_8  and  C_10
REMARK    4  A    between atoms: C_15  and  C_16
REMARK    5  A    between atoms: C_16  and  O_17
REMARK    6  A    between atoms: C_16  and  C_18
REMARK    7  A    between atoms: C_16  and  C_24
REMARK    8  A    between atoms: N_30  and  C_31
REMARK    9  A    between atoms: C_31  and  C_32
REMARK                            x       y       z     vdW  Elec       q    Type
REMARK                         _______ _______ _______ _____ _____    ______ ____
ROOT
ATOM      1  C   UNL     1       0.839   9.031  20.907  0.00  0.00    +0.000 A 
ATOM      2  C   UNL     1       0.814   8.827  22.291  0.00  0.00    +0.000 A 
ATOM      3  C   UNL     1       0.004   9.631  23.121  0.00  0.00    +0.000 A 
ATOM      4  C   UNL     1      -0.785  10.643  22.547  0.00  0.00    +0.000 A 
ATOM      5  N   UNL     1      -1.642  11.541  23.128  0.00  0.00    +0.000 NA
ATOM      6  C   UNL     1      -2.120  12.305  22.146  0.00  0.00    +0.000 A 
ATOM      7  N   UNL     1      -1.595  11.888  20.927  0.00  0.00    +0.000 N 
ATOM      8  C   UNL     1      -0.734  10.838  21.177  0.00  0.00    +0.000 A 
ATOM      9  C   UNL     1       0.070  10.059  20.339  0.00  0.00    +0.000 A 
ENDROOT
BRANCH   1  15
ATOM     10  C   UNL     1       4.041   5.337  17.984  0.00  0.00    +0.000 A 
ATOM     11  C   UNL     1       4.185   4.479  19.051  0.00  0.00    +0.000 A 
ATOM     12  N   UNL     1       3.488   5.061  20.075  0.00  0.00    +0.000 N 
ATOM     13  C   UNL     1       2.964   6.245  19.615  0.00  0.00    +0.000 A 
ATOM     14  N   UNL     1       2.207   7.059  20.430  0.00  0.00    +0.000 N 
ATOM     15  C   UNL     1       1.681   8.245  19.951  0.00  0.00    +0.000 C 
ATOM     16  O   UNL     1       1.807   8.701  18.820  0.00  0.00    +0.000 OA
ATOM     17  N   UNL     1       3.293   6.422  18.359  0.00  0.00    +0.000 NA
ATOM     18  H   UNL     1       3.387   4.696  21.007  0.00  0.00    +0.000 HD
ATOM     19  H   UNL     1       1.987   6.744  21.359  0.00  0.00    +0.000 HD
BRANCH  10  21
ATOM     20  C   UNL     1       5.538   6.330  16.254  0.00  0.00    +0.000 C 
ATOM     21  C   UNL     1       4.554   5.222  16.594  0.00  0.00    +0.000 C 
ENDBRANCH  10  21
ENDBRANCH   1  15
BRANCH   7  22
ATOM     22  C   UNL     1      -1.803  12.428  19.596  0.00  0.00    +0.000 C 
ATOM     23  C   UNL     1      -0.721  13.363  19.068  0.00  0.00    +0.000 C 
ENDBRANCH   7  22
BRANCH   6  24
ATOM     24  C   UNL     1      -3.156  13.430  22.394  0.00  0.00    +0.000 C 
BRANCH  24  25
ATOM     25  C   UNL     1      -2.702  14.779  21.786  0.00  0.00    +0.000 A 
ATOM     26  C   UNL     1      -1.437  15.334  22.073  0.00  0.00    +0.000 A 
ATOM     27  C   UNL     1      -1.084  16.619  21.660  0.00  0.00    +0.000 A 
ATOM     28  C   UNL     1      -1.964  17.358  20.881  0.00  0.00    +0.000 A 
ATOM     29  C   UNL     1      -3.184  16.803  20.503  0.00  0.00    +0.000 A 
ATOM     30  C   UNL     1      -3.555  15.531  20.959  0.00  0.00    +0.000 A 
ENDBRANCH  24  25
BRANCH  24  31
ATOM     31  C   UNL     1      -4.609  13.048  22.053  0.00  0.00    +0.000 A 
ATOM     32  C   UNL     1      -5.658  13.135  22.984  0.00  0.00    +0.000 A 
ATOM     33  C   UNL     1      -6.925  12.626  22.695  0.00  0.00    +0.000 A 
ATOM     34  C   UNL     1      -7.190  12.079  21.445  0.00  0.00    +0.000 A 
ATOM     35  C   UNL     1      -6.200  12.078  20.468  0.00  0.00    +0.000 A 
ATOM     36  C   UNL     1      -4.926  12.569  20.765  0.00  0.00    +0.000 A 
ENDBRANCH  24  31
BRANCH  24  37
ATOM     37  O   UNL     1      -3.186  13.601  23.830  0.00  0.00    +0.000 OA
ATOM     38  H   UNL     1      -2.959  12.720  24.192  0.00  0.00    +0.000 HD
ENDBRANCH  24  37
ENDBRANCH   6  24
TORSDOF 7
ENDMDL
MODEL 9
REMARK VINA RESULT:      -7.8      2.242     10.970
REMARK  Name = 
REMARK  9 active torsions:
REMARK  status: ('A' for Active; 'I' for Inactive)
REMARK    1  A    between atoms: C_1  and  C_2
REMARK    2  A    between atoms: C_2  and  C_3
REMARK    3  A    between atoms: C_8  and  C_10
REMARK    4  A    between atoms: C_15  and  C_16
REMARK    5  A    between atoms: C_16  and  O_17
REMARK    6  A    between atoms: C_16  and  C_18
REMARK    7  A    between atoms: C_16  and  C_24
REMARK    8  A    between atoms: N_30  and  C_31
REMARK    9  A    between atoms: C_31  and  C_32
REMARK                            x       y       z     vdW  Elec       q    Type
REMARK                         _______ _______ _______ _____ _____    ______ ____
ROOT
ATOM      1  C   UNL     1       1.154   8.807  20.658  0.00  0.00    +0.000 A 
ATOM      2  C   UNL     1       0.931   8.586  22.022  0.00  0.00    +0.000 A 
ATOM      3  C   UNL     1       0.217   9.525  22.795  0.00  0.00    +0.000 A 
ATOM      4  C   UNL     1      -0.276  10.692  22.184  0.00  0.00    +0.000 A 
ATOM      5  N   UNL     1      -0.989  11.737  22.709  0.00  0.00    +0.000 NA
ATOM      6  C   UNL     1      -1.184  12.605  21.716  0.00  0.00    +0.000 A 
ATOM      7  N   UNL     1      -0.623  12.111  20.543  0.00  0.00    +0.000 N 
ATOM      8  C   UNL     1      -0.031  10.898  20.837  0.00  0.00    +0.000 A 
ATOM      9  C   UNL     1       0.684   9.986  20.056  0.00  0.00    +0.000 A 
ENDROOT
BRANCH   1  15
ATOM     10  C   UNL     1       3.973   4.627  18.009  0.00  0.00    +0.000 A 
ATOM     11  C   UNL     1       4.011   3.822  19.125  0.00  0.00    +0.000 A 
ATOM     12  N   UNL     1       3.368   4.534  20.101  0.00  0.00    +0.000 N 
ATOM     13  C   UNL     1       2.981   5.739  19.566  0.00  0.00    +0.000 A 
ATOM     14  N   UNL     1       2.306   6.675  20.319  0.00  0.00    +0.000 N 
ATOM     15  C   UNL     1       1.918   7.881  19.764  0.00  0.00    +0.000 C 
ATOM     16  O   UNL     1       2.107   8.254  18.612  0.00  0.00    +0.000 OA
ATOM     17  N   UNL     1       3.343   5.806  18.308  0.00  0.00    +0.000 NA
ATOM     18  H   UNL     1       3.217   4.237  21.050  0.00  0.00    +0.000 HD
ATOM     19  H   UNL     1       2.042   6.440  21.260  0.00  0.00    +0.000 HD
BRANCH  10  21
ATOM     20  C   UNL     1       5.180   5.598  16.055  0.00  0.00    +0.000 C 
ATOM     21  C   UNL     1       4.488   4.377  16.637  0.00  0.00    +0.000 C 
ENDBRANCH  10  21
ENDBRANCH   1  15
BRANCH   7  22
ATOM     22  C   UNL     1      -0.563  12.709  19.222  0.00  0.00    +0.000 C 
ATOM     23  C   UNL     1      -1.579  12.203  18.203  0.00  0.00    +0.000 C 
ENDBRANCH   7  22
BRANCH   6  24
ATOM     24  C   UNL     1      -1.987  13.917  21.901  0.00  0.00    +0.000 C 
BRANCH  24  25
ATOM     25  C   UNL     1      -3.416  13.808  21.314  0.00  0.00    +0.000 A 
ATOM     26  C   UNL     1      -4.127  14.944  20.876  0.00  0.00    +0.000 A 
ATOM     27  C   UNL     1      -5.467  14.875  20.495  0.00  0.00    +0.000 A 
ATOM     28  C   UNL     1      -6.114  13.647  20.473  0.00  0.00    +0.000 A 
ATOM     29  C   UNL     1      -5.413  12.492  20.812  0.00  0.00    +0.000 A 
ATOM     30  C   UNL     1      -4.081  12.571  21.238  0.00  0.00    +0.000 A 
ENDBRANCH  24  25
BRANCH  24  31
ATOM     31  C   UNL     1      -1.940  14.500  23.326  0.00  0.00    +0.000 A 
ATOM     32  C   UNL     1      -2.967  14.302  24.264  0.00  0.00    +0.000 A 
ATOM     33  C   UNL     1      -2.973  14.980  25.484  0.00  0.00    +0.000 A 
ATOM     34  C   UNL     1      -1.919  15.821  25.821  0.00  0.00    +0.000 A 
ATOM     35  C   UNL     1      -0.837  15.952  24.956  0.00  0.00    +0.000 A 
ATOM     36  C   UNL     1      -0.843  15.290  23.727  0.00  0.00    +0.000 A 
ENDBRANCH  24  31
BRANCH  24  37
ATOM     37  O   UNL     1      -1.280  14.903  21.114  0.00  0.00    +0.000 OA
ATOM     38  H   UNL     1      -0.346  14.824  21.395  0.00  0.00    +0.000 HD
ENDBRANCH  24  37
ENDBRANCH   6  24
TORSDOF 7
ENDMDL
