MODEL 1
REMARK VINA RESULT:      -8.6      0.000      0.000
REMARK  Name = 
REMARK  11 active torsions:
REMARK  status: ('A' for Active; 'I' for Inactive)
REMARK    1  A    between atoms: C_1  and  C_2
REMARK    2  A    between atoms: C_4  and  C_5
REMARK    3  A    between atoms: C_12  and  C_13
REMARK    4  A    between atoms: C_13  and  C_14
REMARK    5  A    between atoms: C_14  and  O_15
REMARK    6  A    between atoms: O_15  and  C_16
REMARK    7  A    between atoms: C_24  and  C_25
REMARK    8  A    between atoms: C_25  and  C_26
REMARK    9  A    between atoms: C_25  and  C_29
REMARK   10  A    between atoms: C_26  and  O_28
REMARK   11  A    between atoms: C_29  and  O_31
REMARK                            x       y       z     vdW  Elec       q    Type
REMARK                         _______ _______ _______ _____ _____    ______ ____
ROOT
ATOM      1  C   UNL     1       2.254   6.897  19.715  0.00  0.00    +0.000 A 
ATOM      2  C   UNL     1       2.599   7.403  18.452  0.00  0.00    +0.000 A 
ATOM      3  C   UNL     1       2.152   8.673  18.025  0.00  0.00    +0.000 A 
ATOM      4  C   UNL     1       1.325   9.400  18.871  0.00  0.00    +0.000 A 
ATOM      5  C   UNL     1       1.056   8.900  20.159  0.00  0.00    +0.000 A 
ATOM      6  C   UNL     1       1.584   7.715  20.626  0.00  0.00    +0.000 A 
ATOM      7  C   UNL     1      -0.146   9.562  20.759  0.00  0.00    +0.000 C 
ATOM      8  C   UNL     1      -0.831   9.899  19.431  0.00  0.00    +0.000 C 
ATOM      9  C   UNL     1       0.312  10.501  18.545  0.00  0.00    +0.000 C 
ENDROOT
BRANCH   1  10
ATOM     10  O   UNL     1       2.472   5.557  19.978  0.00  0.00    +0.000 OA
BRANCH  10  11
ATOM     11  C   UNL     1       2.683   4.793  18.765  0.00  0.00    +0.000 C 
BRANCH  11  12
ATOM     12  C   UNL     1       3.894   3.871  18.862  0.00  0.00    +0.000 C 
BRANCH  12  18
ATOM     13  C   UNL     1       6.872   5.480  19.142  0.00  0.00    +0.000 C 
ATOM     14  C   UNL     1       6.146   4.876  18.012  0.00  0.00    +0.000 A 
ATOM     15  O   UNL     1       6.752   4.951  16.791  0.00  0.00    +0.000 OA
ATOM     16  C   UNL     1       5.881   4.340  15.929  0.00  0.00    +0.000 A 
ATOM     17  N   UNL     1       4.790   3.879  16.518  0.00  0.00    +0.000 NA
ATOM     18  C   UNL     1       4.941   4.223  17.851  0.00  0.00    +0.000 A 
BRANCH  16  19
ATOM     19  C   UNL     1       6.278   4.309  14.521  0.00  0.00    +0.000 A 
ATOM     20  C   UNL     1       5.612   3.509  13.580  0.00  0.00    +0.000 A 
ATOM     21  C   UNL     1       6.022   3.471  12.246  0.00  0.00    +0.000 A 
ATOM     22  C   UNL     1       7.112   4.237  11.830  0.00  0.00    +0.000 A 
ATOM     23  C   UNL     1       7.782   5.044  12.748  0.00  0.00    +0.000 A 
ATOM     24  C   UNL     1       7.366   5.082  14.082  0.00  0.00    +0.000 A 
ENDBRANCH  16  19
ENDBRANCH  12  18
ENDBRANCH  11  12
ENDBRANCH  10  11
ENDBRANCH   1  10
BRANCH   9  25
ATOM     25  C   UNL     1       0.705  11.922  19.036  0.00  0.00    +0.000 C 
BRANCH  25  26
ATOM     26  C   UNL     1       1.963  12.575  18.538  0.00  0.00    +0.000 C 
ATOM     27  O   UNL     1       2.543  13.401  19.241  0.00  0.00    +0.000 OA
BRANCH  26  28
ATOM     28  O   UNL     1       2.386  12.297  17.299  0.00  0.00    +0.000 OA
ATOM     29  H   UNL     1       1.721  12.006  16.657  0.00  0.00    +0.000 HD
ENDBRANCH  26  28
ENDBRANCH  25  26
BRANCH  25  30
ATOM     30  C   UNL     1      -0.423  12.920  18.841  0.00  0.00    +0.000 C 
ATOM     31  O   UNL     1      -1.024  13.471  19.752  0.00  0.00    +0.000 OA
BRANCH  30  32
ATOM     32  O   UNL     1      -0.717  13.165  17.544  0.00  0.00    +0.000 OA
ATOM     33  H   UNL     1      -0.163  13.866  17.134  0.00  0.00    +0.000 HD
ENDBRANCH  30  32
ENDBRANCH  25  30
ENDBRANCH   9  25
TORSDOF 10
ENDMDL
MODEL 2
REMARK VINA RESULT:      -8.3      5.332      9.477
REMARK  Name = 
REMARK  11 active torsions:
REMARK  status: ('A' for Active; 'I' for Inactive)
REMARK    1  A    between atoms: C_1  and  C_2
REMARK    2  A    between atoms: C_4  and  C_5
REMARK    3  A    between atoms: C_12  and  C_13
REMARK    4  A    between atoms: C_13  and  C_14
REMARK    5  A    between atoms: C_14  and  O_15
REMARK    6  A    between atoms: O_15  and  C_16
REMARK    7  A    between atoms: C_24  and  C_25
REMARK    8  A    between atoms: C_25  and  C_26
REMARK    9  A    between atoms: C_25  and  C_29
REMARK   10  A    between atoms: C_26  and  O_28
REMARK   11  A    between atoms: C_29  and  O_31
REMARK                            x       y       z     vdW  Elec       q    Type
REMARK                         _______ _______ _______ _____ _____    ______ ____
ROOT
ATOM      1  C   UNL     1       6.966   6.842  17.503  0.00  0.00    +0.000 A 
ATOM      2  C   UNL     1       7.384   6.060  18.591  0.00  0.00    +0.000 A 
ATOM      3  C   UNL     1       6.469   5.262  19.314  0.00  0.00    +0.000 A 
ATOM      4  C   UNL     1       5.130   5.298  18.949  0.00  0.00    +0.000 A 
ATOM      5  C   UNL     1       4.752   6.034  17.810  0.00  0.00    +0.000 A 
ATOM      6  C   UNL     1       5.658   6.722  17.030  0.00  0.00    +0.000 A 
ATOM      7  C   UNL     1       3.281   6.310  17.804  0.00  0.00    +0.000 C 
ATOM      8  C   UNL     1       3.098   6.266  19.325  0.00  0.00    +0.000 C 
ATOM      9  C   UNL     1       3.880   4.985  19.775  0.00  0.00    +0.000 C 
ENDROOT
BRANCH   1  10
ATOM     10  O   UNL     1       7.821   7.809  17.009  0.00  0.00    +0.000 OA
BRANCH  10  11
ATOM     11  C   UNL     1       7.843   8.993  17.845  0.00  0.00    +0.000 C 
BRANCH  11  12
ATOM     12  C   UNL     1       9.004   8.983  18.836  0.00  0.00    +0.000 C 
BRANCH  12  18
ATOM     13  C   UNL     1      10.732  11.558  17.450  0.00  0.00    +0.000 C 
ATOM     14  C   UNL     1      10.023  11.382  18.729  0.00  0.00    +0.000 A 
ATOM     15  O   UNL     1      10.031  12.449  19.579  0.00  0.00    +0.000 OA
ATOM     16  C   UNL     1       9.330  12.028  20.678  0.00  0.00    +0.000 A 
ATOM     17  N   UNL     1       8.874  10.791  20.572  0.00  0.00    +0.000 NA
ATOM     18  C   UNL     1       9.318  10.360  19.333  0.00  0.00    +0.000 A 
BRANCH  16  19
ATOM     19  C   UNL     1       9.211  12.987  21.777  0.00  0.00    +0.000 A 
ATOM     20  C   UNL     1       8.528  12.674  22.963  0.00  0.00    +0.000 A 
ATOM     21  C   UNL     1       8.402  13.611  23.991  0.00  0.00    +0.000 A 
ATOM     22  C   UNL     1       8.958  14.882  23.847  0.00  0.00    +0.000 A 
ATOM     23  C   UNL     1       9.647  15.210  22.680  0.00  0.00    +0.000 A 
ATOM     24  C   UNL     1       9.775  14.268  21.655  0.00  0.00    +0.000 A 
ENDBRANCH  16  19
ENDBRANCH  12  18
ENDBRANCH  11  12
ENDBRANCH  10  11
ENDBRANCH   1  10
BRANCH   9  25
ATOM     25  C   UNL     1       3.120   3.696  19.356  0.00  0.00    +0.000 C 
BRANCH  25  26
ATOM     26  C   UNL     1       3.881   2.482  18.902  0.00  0.00    +0.000 C 
ATOM     27  O   UNL     1       3.574   1.927  17.848  0.00  0.00    +0.000 OA
BRANCH  26  28
ATOM     28  O   UNL     1       4.833   1.984  19.700  0.00  0.00    +0.000 OA
ATOM     29  H   UNL     1       5.553   2.579  19.958  0.00  0.00    +0.000 HD
ENDBRANCH  26  28
ENDBRANCH  25  26
BRANCH  25  30
ATOM     30  C   UNL     1       2.147   3.239  20.427  0.00  0.00    +0.000 C 
ATOM     31  O   UNL     1       2.458   2.579  21.409  0.00  0.00    +0.000 OA
BRANCH  30  32
ATOM     32  O   UNL     1       0.872   3.635  20.211  0.00  0.00    +0.000 OA
ATOM     33  H   UNL     1       0.762   4.223  19.432  0.00  0.00    +0.000 HD
ENDBRANCH  30  32
ENDBRANCH  25  30
ENDBRANCH   9  25
TORSDOF 10
ENDMDL
MODEL 3
REMARK VINA RESULT:      -8.2      5.407      9.646
REMARK  Name = 
REMARK  11 active torsions:
REMARK  status: ('A' for Active; 'I' for Inactive)
REMARK    1  A    between atoms: C_1  and  C_2
REMARK    2  A    between atoms: C_4  and  C_5
REMARK    3  A    between atoms: C_12  and  C_13
REMARK    4  A    between atoms: C_13  and  C_14
REMARK    5  A    between atoms: C_14  and  O_15
REMARK    6  A    between atoms: O_15  and  C_16
REMARK    7  A    between atoms: C_24  and  C_25
REMARK    8  A    between atoms: C_25  and  C_26
REMARK    9  A    between atoms: C_25  and  C_29
REMARK   10  A    between atoms: C_26  and  O_28
REMARK   11  A    between atoms: C_29  and  O_31
REMARK                            x       y       z     vdW  Elec       q    Type
REMARK                         _______ _______ _______ _____ _____    ______ ____
ROOT
ATOM      1  C   UNL     1       7.180   7.095  17.581  0.00  0.00    +0.000 A 
ATOM      2  C   UNL     1       7.620   6.274  18.631  0.00  0.00    +0.000 A 
ATOM      3  C   UNL     1       6.737   5.392  19.291  0.00  0.00    +0.000 A 
ATOM      4  C   UNL     1       5.403   5.380  18.904  0.00  0.00    +0.000 A 
ATOM      5  C   UNL     1       5.006   6.160  17.801  0.00  0.00    +0.000 A 
ATOM      6  C   UNL     1       5.887   6.936  17.078  0.00  0.00    +0.000 A 
ATOM      7  C   UNL     1       3.523   6.360  17.783  0.00  0.00    +0.000 C 
ATOM      8  C   UNL     1       3.319   6.221  19.295  0.00  0.00    +0.000 C 
ATOM      9  C   UNL     1       4.159   4.958  19.687  0.00  0.00    +0.000 C 
ENDROOT
BRANCH   1  10
ATOM     10  O   UNL     1       7.992   8.131  17.159  0.00  0.00    +0.000 OA
BRANCH  10  11
ATOM     11  C   UNL     1       7.918   9.275  18.044  0.00  0.00    +0.000 C 
BRANCH  11  12
ATOM     12  C   UNL     1       9.249   9.564  18.733  0.00  0.00    +0.000 C 
BRANCH  12  18
ATOM     13  C   UNL     1       9.685  12.782  17.734  0.00  0.00    +0.000 C 
ATOM     14  C   UNL     1       9.392  12.152  19.032  0.00  0.00    +0.000 A 
ATOM     15  O   UNL     1       9.257  12.993  20.099  0.00  0.00    +0.000 OA
ATOM     16  C   UNL     1       9.006  12.171  21.165  0.00  0.00    +0.000 A 
ATOM     17  N   UNL     1       8.959  10.889  20.845  0.00  0.00    +0.000 NA
ATOM     18  C   UNL     1       9.213  10.859  19.484  0.00  0.00    +0.000 A 
BRANCH  16  19
ATOM     19  C   UNL     1       8.848  12.826  22.464  0.00  0.00    +0.000 A 
ATOM     20  C   UNL     1       8.507  12.106  23.620  0.00  0.00    +0.000 A 
ATOM     21  C   UNL     1       8.334  12.752  24.847  0.00  0.00    +0.000 A 
ATOM     22  C   UNL     1       8.500  14.134  24.936  0.00  0.00    +0.000 A 
ATOM     23  C   UNL     1       8.847  14.866  23.801  0.00  0.00    +0.000 A 
ATOM     24  C   UNL     1       9.022  14.215  22.576  0.00  0.00    +0.000 A 
ENDBRANCH  16  19
ENDBRANCH  12  18
ENDBRANCH  11  12
ENDBRANCH  10  11
ENDBRANCH   1  10
BRANCH   9  25
ATOM     25  C   UNL     1       3.473   3.657  19.182  0.00  0.00    +0.000 C 
BRANCH  25  26
ATOM     26  C   UNL     1       4.117   2.321  19.418  0.00  0.00    +0.000 C 
ATOM     27  O   UNL     1       4.624   2.071  20.511  0.00  0.00    +0.000 OA
BRANCH  26  28
ATOM     28  O   UNL     1       4.193   1.454  18.401  0.00  0.00    +0.000 OA
ATOM     29  H   UNL     1       4.664   1.743  17.605  0.00  0.00    +0.000 HD
ENDBRANCH  26  28
ENDBRANCH  25  26
BRANCH  25  30
ATOM     30  C   UNL     1       2.037   3.552  19.660  0.00  0.00    +0.000 C 
ATOM     31  O   UNL     1       1.058   3.590  18.927  0.00  0.00    +0.000 OA
BRANCH  30  32
ATOM     32  O   UNL     1       1.917   3.400  20.999  0.00  0.00    +0.000 OA
ATOM     33  H   UNL     1       1.742   2.476  21.283  0.00  0.00    +0.000 HD
ENDBRANCH  30  32
ENDBRANCH  25  30
ENDBRANCH   9  25
TORSDOF 10
ENDMDL
MODEL 4
REMARK VINA RESULT:      -8.1      5.500      8.941
REMARK  Name = 
REMARK  11 active torsions:
REMARK  status: ('A' for Active; 'I' for Inactive)
REMARK    1  A    between atoms: C_1  and  C_2
REMARK    2  A    between atoms: C_4  and  C_5
REMARK    3  A    between atoms: C_12  and  C_13
REMARK    4  A    between atoms: C_13  and  C_14
REMARK    5  A    between atoms: C_14  and  O_15
REMARK    6  A    between atoms: O_15  and  C_16
REMARK    7  A    between atoms: C_24  and  C_25
REMARK    8  A    between atoms: C_25  and  C_26
REMARK    9  A    between atoms: C_25  and  C_29
REMARK   10  A    between atoms: C_26  and  O_28
REMARK   11  A    between atoms: C_29  and  O_31
REMARK                            x       y       z     vdW  Elec       q    Type
REMARK                         _______ _______ _______ _____ _____    ______ ____
ROOT
ATOM      1  C   UNL     1       6.902   6.953  17.448  0.00  0.00    +0.000 A 
ATOM      2  C   UNL     1       7.250   5.998  18.417  0.00  0.00    +0.000 A 
ATOM      3  C   UNL     1       6.263   5.251  19.096  0.00  0.00    +0.000 A 
ATOM      4  C   UNL     1       4.928   5.510  18.813  0.00  0.00    +0.000 A 
ATOM      5  C   UNL     1       4.611   6.419  17.787  0.00  0.00    +0.000 A 
ATOM      6  C   UNL     1       5.572   7.067  17.039  0.00  0.00    +0.000 A 
ATOM      7  C   UNL     1       3.194   6.889  17.895  0.00  0.00    +0.000 C 
ATOM      8  C   UNL     1       3.068   6.690  19.409  0.00  0.00    +0.000 C 
ATOM      9  C   UNL     1       3.680   5.272  19.667  0.00  0.00    +0.000 C 
ENDROOT
BRANCH   1  10
ATOM     10  O   UNL     1       7.864   7.848  17.018  0.00  0.00    +0.000 OA
BRANCH  10  11
ATOM     11  C   UNL     1       7.806   9.099  17.747  0.00  0.00    +0.000 C 
BRANCH  11  12
ATOM     12  C   UNL     1       8.954   9.247  18.741  0.00  0.00    +0.000 C 
BRANCH  12  18
ATOM     13  C   UNL     1       8.861  11.023  21.635  0.00  0.00    +0.000 C 
ATOM     14  C   UNL     1       9.198  11.365  20.243  0.00  0.00    +0.000 A 
ATOM     15  O   UNL     1       9.556  12.661  20.006  0.00  0.00    +0.000 OA
ATOM     16  C   UNL     1       9.800  12.718  18.660  0.00  0.00    +0.000 A 
ATOM     17  N   UNL     1       9.638  11.558  18.044  0.00  0.00    +0.000 NA
ATOM     18  C   UNL     1       9.243  10.684  19.043  0.00  0.00    +0.000 A 
BRANCH  16  19
ATOM     19  C   UNL     1      10.179  14.026  18.125  0.00  0.00    +0.000 A 
ATOM     20  C   UNL     1      11.029  14.155  17.016  0.00  0.00    +0.000 A 
ATOM     21  C   UNL     1      11.402  15.413  16.535  0.00  0.00    +0.000 A 
ATOM     22  C   UNL     1      10.927  16.566  17.161  0.00  0.00    +0.000 A 
ATOM     23  C   UNL     1      10.075  16.459  18.259  0.00  0.00    +0.000 A 
ATOM     24  C   UNL     1       9.702  15.198  18.735  0.00  0.00    +0.000 A 
ENDBRANCH  16  19
ENDBRANCH  12  18
ENDBRANCH  11  12
ENDBRANCH  10  11
ENDBRANCH   1  10
BRANCH   9  25
ATOM     25  C   UNL     1       2.731   4.155  19.150  0.00  0.00    +0.000 C 
BRANCH  25  26
ATOM     26  C   UNL     1       3.211   3.169  18.123  0.00  0.00    +0.000 C 
ATOM     27  O   UNL     1       2.604   3.049  17.060  0.00  0.00    +0.000 OA
BRANCH  26  28
ATOM     28  O   UNL     1       4.252   2.382  18.423  0.00  0.00    +0.000 OA
ATOM     29  H   UNL     1       4.929   2.747  19.011  0.00  0.00    +0.000 HD
ENDBRANCH  26  28
ENDBRANCH  25  26
BRANCH  25  30
ATOM     30  C   UNL     1       2.125   3.355  20.289  0.00  0.00    +0.000 C 
ATOM     31  O   UNL     1       2.123   3.709  21.459  0.00  0.00    +0.000 OA
BRANCH  30  32
ATOM     32  O   UNL     1       1.562   2.189  19.897  0.00  0.00    +0.000 OA
ATOM     33  H   UNL     1       1.881   1.404  20.395  0.00  0.00    +0.000 HD
ENDBRANCH  30  32
ENDBRANCH  25  30
ENDBRANCH   9  25
TORSDOF 10
ENDMDL
MODEL 5
REMARK VINA RESULT:      -7.9      1.277      1.654
REMARK  Name = 
REMARK  11 active torsions:
REMARK  status: ('A' for Active; 'I' for Inactive)
REMARK    1  A    between atoms: C_1  and  C_2
REMARK    2  A    between atoms: C_4  and  C_5
REMARK    3  A    between atoms: C_12  and  C_13
REMARK    4  A    between atoms: C_13  and  C_14
REMARK    5  A    between atoms: C_14  and  O_15
REMARK    6  A    between atoms: O_15  and  C_16
REMARK    7  A    between atoms: C_24  and  C_25
REMARK    8  A    between atoms: C_25  and  C_26
REMARK    9  A    between atoms: C_25  and  C_29
REMARK   10  A    between atoms: C_26  and  O_28
REMARK   11  A    between atoms: C_29  and  O_31
REMARK                            x       y       z     vdW  Elec       q    Type
REMARK                         _______ _______ _______ _____ _____    ______ ____
ROOT
ATOM      1  C   UNL     1       2.417   7.416  18.660  0.00  0.00    +0.000 A 
ATOM      2  C   UNL     1       2.211   8.494  17.784  0.00  0.00    +0.000 A 
ATOM      3  C   UNL     1       1.560   9.671  18.212  0.00  0.00    +0.000 A 
ATOM      4  C   UNL     1       1.088   9.728  19.517  0.00  0.00    +0.000 A 
ATOM      5  C   UNL     1       1.373   8.663  20.392  0.00  0.00    +0.000 A 
ATOM      6  C   UNL     1       2.109   7.560  20.013  0.00  0.00    +0.000 A 
ATOM      7  C   UNL     1       0.466   8.680  21.583  0.00  0.00    +0.000 C 
ATOM      8  C   UNL     1      -0.702   9.391  20.891  0.00  0.00    +0.000 C 
ATOM      9  C   UNL     1      -0.033  10.578  20.118  0.00  0.00    +0.000 C 
ENDROOT
BRANCH   1  10
ATOM     10  O   UNL     1       2.798   6.195  18.136  0.00  0.00    +0.000 OA
BRANCH  10  11
ATOM     11  C   UNL     1       2.896   5.173  19.158  0.00  0.00    +0.000 C 
BRANCH  11  12
ATOM     12  C   UNL     1       3.596   3.913  18.656  0.00  0.00    +0.000 C 
BRANCH  12  18
ATOM     13  C   UNL     1       6.625   5.362  19.172  0.00  0.00    +0.000 C 
ATOM     14  C   UNL     1       5.943   4.828  17.981  0.00  0.00    +0.000 A 
ATOM     15  O   UNL     1       6.629   4.906  16.803  0.00  0.00    +0.000 OA
ATOM     16  C   UNL     1       5.787   4.365  15.869  0.00  0.00    +0.000 A 
ATOM     17  N   UNL     1       4.639   3.942  16.374  0.00  0.00    +0.000 NA
ATOM     18  C   UNL     1       4.721   4.240  17.724  0.00  0.00    +0.000 A 
BRANCH  16  19
ATOM     19  C   UNL     1       6.272   4.353  14.489  0.00  0.00    +0.000 A 
ATOM     20  C   UNL     1       5.708   3.517  13.512  0.00  0.00    +0.000 A 
ATOM     21  C   UNL     1       6.202   3.500  12.206  0.00  0.00    +0.000 A 
ATOM     22  C   UNL     1       7.273   4.322  11.854  0.00  0.00    +0.000 A 
ATOM     23  C   UNL     1       7.841   5.166  12.808  0.00  0.00    +0.000 A 
ATOM     24  C   UNL     1       7.341   5.183  14.113  0.00  0.00    +0.000 A 
ENDBRANCH  16  19
ENDBRANCH  12  18
ENDBRANCH  11  12
ENDBRANCH  10  11
ENDBRANCH   1  10
BRANCH   9  25
ATOM     25  C   UNL     1       0.437  11.686  21.102  0.00  0.00    +0.000 C 
BRANCH  25  26
ATOM     26  C   UNL     1       1.354  12.778  20.630  0.00  0.00    +0.000 C 
ATOM     27  O   UNL     1       2.470  12.898  21.132  0.00  0.00    +0.000 OA
BRANCH  26  28
ATOM     28  O   UNL     1       0.902  13.650  19.720  0.00  0.00    +0.000 OA
ATOM     29  H   UNL     1       0.646  13.297  18.855  0.00  0.00    +0.000 HD
ENDBRANCH  26  28
ENDBRANCH  25  26
BRANCH  25  30
ATOM     30  C   UNL     1      -0.733  12.355  21.801  0.00  0.00    +0.000 C 
ATOM     31  O   UNL     1      -1.629  12.959  21.228  0.00  0.00    +0.000 OA
BRANCH  30  32
ATOM     32  O   UNL     1      -0.712  12.223  23.147  0.00  0.00    +0.000 OA
ATOM     33  H   UNL     1      -1.223  12.914  23.625  0.00  0.00    +0.000 HD
ENDBRANCH  30  32
ENDBRANCH  25  30
ENDBRANCH   9  25
TORSDOF 10
ENDMDL
MODEL 6
REMARK VINA RESULT:      -7.9      1.300      2.199
REMARK  Name = 
REMARK  11 active torsions:
REMARK  status: ('A' for Active; 'I' for Inactive)
REMARK    1  A    between atoms: C_1  and  C_2
REMARK    2  A    between atoms: C_4  and  C_5
REMARK    3  A    between atoms: C_12  and  C_13
REMARK    4  A    between atoms: C_13  and  C_14
REMARK    5  A    between atoms: C_14  and  O_15
REMARK    6  A    between atoms: O_15  and  C_16
REMARK    7  A    between atoms: C_24  and  C_25
REMARK    8  A    between atoms: C_25  and  C_26
REMARK    9  A    between atoms: C_25  and  C_29
REMARK   10  A    between atoms: C_26  and  O_28
REMARK   11  A    between atoms: C_29  and  O_31
REMARK                            x       y       z     vdW  Elec       q    Type
REMARK                         _______ _______ _______ _____ _____    ______ ____
ROOT
ATOM      1  C   UNL     1       2.020   7.022  20.126  0.00  0.00    +0.000 A 
ATOM      2  C   UNL     1       2.430   7.399  18.837  0.00  0.00    +0.000 A 
ATOM      3  C   UNL     1       2.049   8.639  18.281  0.00  0.00    +0.000 A 
ATOM      4  C   UNL     1       1.221   9.470  19.024  0.00  0.00    +0.000 A 
ATOM      5  C   UNL     1       0.885   9.099  20.340  0.00  0.00    +0.000 A 
ATOM      6  C   UNL     1       1.349   7.943  20.932  0.00  0.00    +0.000 A 
ATOM      7  C   UNL     1      -0.310   9.856  20.830  0.00  0.00    +0.000 C 
ATOM      8  C   UNL     1      -0.932  10.094  19.450  0.00  0.00    +0.000 C 
ATOM      9  C   UNL     1       0.265  10.571  18.560  0.00  0.00    +0.000 C 
ENDROOT
BRANCH   1  10
ATOM     10  O   UNL     1       2.175   5.705  20.517  0.00  0.00    +0.000 OA
BRANCH  10  11
ATOM     11  C   UNL     1       0.958   4.939  20.338  0.00  0.00    +0.000 C 
BRANCH  11  12
ATOM     12  C   UNL     1       1.192   3.650  19.555  0.00  0.00    +0.000 C 
BRANCH  12  18
ATOM     13  C   UNL     1       3.955   2.236  20.933  0.00  0.00    +0.000 C 
ATOM     14  C   UNL     1       3.702   2.950  19.671  0.00  0.00    +0.000 A 
ATOM     15  O   UNL     1       4.771   3.108  18.837  0.00  0.00    +0.000 OA
ATOM     16  C   UNL     1       4.280   3.802  17.763  0.00  0.00    +0.000 A 
ATOM     17  N   UNL     1       2.989   4.074  17.855  0.00  0.00    +0.000 NA
ATOM     18  C   UNL     1       2.606   3.543  19.076  0.00  0.00    +0.000 A 
BRANCH  16  19
ATOM     19  C   UNL     1       5.243   4.137  16.714  0.00  0.00    +0.000 A 
ATOM     20  C   UNL     1       6.560   4.522  17.012  0.00  0.00    +0.000 A 
ATOM     21  C   UNL     1       7.458   4.865  15.999  0.00  0.00    +0.000 A 
ATOM     22  C   UNL     1       7.050   4.830  14.665  0.00  0.00    +0.000 A 
ATOM     23  C   UNL     1       5.748   4.443  14.348  0.00  0.00    +0.000 A 
ATOM     24  C   UNL     1       4.854   4.096  15.365  0.00  0.00    +0.000 A 
ENDBRANCH  16  19
ENDBRANCH  12  18
ENDBRANCH  11  12
ENDBRANCH  10  11
ENDBRANCH   1  10
BRANCH   9  25
ATOM     25  C   UNL     1       0.695  12.017  18.936  0.00  0.00    +0.000 C 
BRANCH  25  26
ATOM     26  C   UNL     1       1.892  12.646  18.281  0.00  0.00    +0.000 C 
ATOM     27  O   UNL     1       2.811  11.936  17.878  0.00  0.00    +0.000 OA
BRANCH  26  28
ATOM     28  O   UNL     1       1.964  13.982  18.220  0.00  0.00    +0.000 OA
ATOM     29  H   UNL     1       2.799  14.394  18.488  0.00  0.00    +0.000 HD
ENDBRANCH  26  28
ENDBRANCH  25  26
BRANCH  25  30
ATOM     30  C   UNL     1      -0.454  13.001  18.808  0.00  0.00    +0.000 C 
ATOM     31  O   UNL     1      -0.901  13.667  19.731  0.00  0.00    +0.000 OA
BRANCH  30  32
ATOM     32  O   UNL     1      -0.956  13.093  17.555  0.00  0.00    +0.000 OA
ATOM     33  H   UNL     1      -0.387  12.685  16.865  0.00  0.00    +0.000 HD
ENDBRANCH  30  32
ENDBRANCH  25  30
ENDBRANCH   9  25
TORSDOF 10
ENDMDL
MODEL 7
REMARK VINA RESULT:      -7.9      0.955      1.555
REMARK  Name = 
REMARK  11 active torsions:
REMARK  status: ('A' for Active; 'I' for Inactive)
REMARK    1  A    between atoms: C_1  and  C_2
REMARK    2  A    between atoms: C_4  and  C_5
REMARK    3  A    between atoms: C_12  and  C_13
REMARK    4  A    between atoms: C_13  and  C_14
REMARK    5  A    between atoms: C_14  and  O_15
REMARK    6  A    between atoms: O_15  and  C_16
REMARK    7  A    between atoms: C_24  and  C_25
REMARK    8  A    between atoms: C_25  and  C_26
REMARK    9  A    between atoms: C_25  and  C_29
REMARK   10  A    between atoms: C_26  and  O_28
REMARK   11  A    between atoms: C_29  and  O_31
REMARK                            x       y       z     vdW  Elec       q    Type
REMARK                         _______ _______ _______ _____ _____    ______ ____
ROOT
ATOM      1  C   UNL     1       2.561   6.863  18.910  0.00  0.00    +0.000 A 
ATOM      2  C   UNL     1       2.545   7.704  17.786  0.00  0.00    +0.000 A 
ATOM      3  C   UNL     1       2.008   9.009  17.856  0.00  0.00    +0.000 A 
ATOM      4  C   UNL     1       1.455   9.432  19.058  0.00  0.00    +0.000 A 
ATOM      5  C   UNL     1       1.551   8.595  20.185  0.00  0.00    +0.000 A 
ATOM      6  C   UNL     1       2.177   7.367  20.154  0.00  0.00    +0.000 A 
ATOM      7  C   UNL     1       0.570   8.994  21.244  0.00  0.00    +0.000 C 
ATOM      8  C   UNL     1      -0.455   9.621  20.292  0.00  0.00    +0.000 C 
ATOM      9  C   UNL     1       0.402  10.509  19.327  0.00  0.00    +0.000 C 
ENDROOT
BRANCH   1  10
ATOM     10  O   UNL     1       2.831   5.519  18.732  0.00  0.00    +0.000 OA
BRANCH  10  11
ATOM     11  C   UNL     1       3.871   5.051  19.627  0.00  0.00    +0.000 C 
BRANCH  11  12
ATOM     12  C   UNL     1       4.639   3.864  19.055  0.00  0.00    +0.000 C 
BRANCH  12  18
ATOM     13  C   UNL     1       7.488   5.713  19.113  0.00  0.00    +0.000 C 
ATOM     14  C   UNL     1       6.737   5.036  18.042  0.00  0.00    +0.000 A 
ATOM     15  O   UNL     1       7.250   5.142  16.781  0.00  0.00    +0.000 OA
ATOM     16  C   UNL     1       6.374   4.451  15.987  0.00  0.00    +0.000 A 
ATOM     17  N   UNL     1       5.368   3.911  16.654  0.00  0.00    +0.000 NA
ATOM     18  C   UNL     1       5.581   4.285  17.971  0.00  0.00    +0.000 A 
BRANCH  16  19
ATOM     19  C   UNL     1       6.675   4.432  14.555  0.00  0.00    +0.000 A 
ATOM     20  C   UNL     1       7.615   5.304  13.984  0.00  0.00    +0.000 A 
ATOM     21  C   UNL     1       7.871   5.290  12.611  0.00  0.00    +0.000 A 
ATOM     22  C   UNL     1       7.185   4.400  11.784  0.00  0.00    +0.000 A 
ATOM     23  C   UNL     1       6.254   3.520  12.333  0.00  0.00    +0.000 A 
ATOM     24  C   UNL     1       6.004   3.535  13.708  0.00  0.00    +0.000 A 
ENDBRANCH  16  19
ENDBRANCH  12  18
ENDBRANCH  11  12
ENDBRANCH  10  11
ENDBRANCH   1  10
BRANCH   9  25
ATOM     25  C   UNL     1       0.928  11.775  20.059  0.00  0.00    +0.000 C 
BRANCH  25  26
ATOM     26  C   UNL     1       1.715  12.812  19.308  0.00  0.00    +0.000 C 
ATOM     27  O   UNL     1       2.456  12.469  18.388  0.00  0.00    +0.000 OA
BRANCH  26  28
ATOM     28  O   UNL     1       1.648  14.087  19.710  0.00  0.00    +0.000 OA
ATOM     29  H   UNL     1       1.251  14.725  19.099  0.00  0.00    +0.000 HD
ENDBRANCH  26  28
ENDBRANCH  25  26
BRANCH  25  30
ATOM     30  C   UNL     1      -0.180  12.504  20.797  0.00  0.00    +0.000 C 
ATOM     31  O   UNL     1      -1.198  12.933  20.271  0.00  0.00    +0.000 OA
BRANCH  30  32
ATOM     32  O   UNL     1       0.045  12.639  22.124  0.00  0.00    +0.000 OA
ATOM     33  H   UNL     1       0.997  12.673  22.366  0.00  0.00    +0.000 HD
ENDBRANCH  30  32
ENDBRANCH  25  30
ENDBRANCH   9  25
TORSDOF 10
ENDMDL
MODEL 8
REMARK VINA RESULT:      -7.9      5.212      9.194
REMARK  Name = 
REMARK  11 active torsions:
REMARK  status: ('A' for Active; 'I' for Inactive)
REMARK    1  A    between atoms: C_1  and  C_2
REMARK    2  A    between atoms: C_4  and  C_5
REMARK    3  A    between atoms: C_12  and  C_13
REMARK    4  A    between atoms: C_13  and  C_14
REMARK    5  A    between atoms: C_14  and  O_15
REMARK    6  A    between atoms: O_15  and  C_16
REMARK    7  A    between atoms: C_24  and  C_25
REMARK    8  A    between atoms: C_25  and  C_26
REMARK    9  A    between atoms: C_25  and  C_29
REMARK   10  A    between atoms: C_26  and  O_28
REMARK   11  A    between atoms: C_29  and  O_31
REMARK                            x       y       z     vdW  Elec       q    Type
REMARK                         _______ _______ _______ _____ _____    ______ ____
ROOT
ATOM      1  C   UNL     1       6.606   6.844  17.486  0.00  0.00    +0.000 A 
ATOM      2  C   UNL     1       6.932   5.903  18.476  0.00  0.00    +0.000 A 
ATOM      3  C   UNL     1       5.929   5.200  19.178  0.00  0.00    +0.000 A 
ATOM      4  C   UNL     1       4.600   5.489  18.895  0.00  0.00    +0.000 A 
ATOM      5  C   UNL     1       4.303   6.382  17.848  0.00  0.00    +0.000 A 
ATOM      6  C   UNL     1       5.277   6.984  17.080  0.00  0.00    +0.000 A 
ATOM      7  C   UNL     1       2.900   6.893  17.951  0.00  0.00    +0.000 C 
ATOM      8  C   UNL     1       2.777   6.735  19.471  0.00  0.00    +0.000 C 
ATOM      9  C   UNL     1       3.351   5.307  19.761  0.00  0.00    +0.000 C 
ENDROOT
BRANCH   1  10
ATOM     10  O   UNL     1       7.590   7.700  17.029  0.00  0.00    +0.000 OA
BRANCH  10  11
ATOM     11  C   UNL     1       7.711   8.880  17.862  0.00  0.00    +0.000 C 
BRANCH  11  12
ATOM     12  C   UNL     1       9.009   8.894  18.664  0.00  0.00    +0.000 C 
BRANCH  12  18
ATOM     13  C   UNL     1      10.710  11.620  17.561  0.00  0.00    +0.000 C 
ATOM     14  C   UNL     1       9.959  11.320  18.792  0.00  0.00    +0.000 A 
ATOM     15  O   UNL     1       9.901  12.315  19.725  0.00  0.00    +0.000 OA
ATOM     16  C   UNL     1       9.172  11.786  20.757  0.00  0.00    +0.000 A 
ATOM     17  N   UNL     1       8.759  10.550  20.533  0.00  0.00    +0.000 NA
ATOM     18  C   UNL     1       9.262  10.234  19.283  0.00  0.00    +0.000 A 
BRANCH  16  19
ATOM     19  C   UNL     1       8.983  12.649  21.924  0.00  0.00    +0.000 A 
ATOM     20  C   UNL     1       9.411  13.985  21.935  0.00  0.00    +0.000 A 
ATOM     21  C   UNL     1       9.246  14.786  23.068  0.00  0.00    +0.000 A 
ATOM     22  C   UNL     1       8.648  14.258  24.213  0.00  0.00    +0.000 A 
ATOM     23  C   UNL     1       8.208  12.935  24.219  0.00  0.00    +0.000 A 
ATOM     24  C   UNL     1       8.372  12.139  23.082  0.00  0.00    +0.000 A 
ENDBRANCH  16  19
ENDBRANCH  12  18
ENDBRANCH  11  12
ENDBRANCH  10  11
ENDBRANCH   1  10
BRANCH   9  25
ATOM     25  C   UNL     1       2.369   4.204  19.276  0.00  0.00    +0.000 C 
BRANCH  25  26
ATOM     26  C   UNL     1       2.821   3.170  18.285  0.00  0.00    +0.000 C 
ATOM     27  O   UNL     1       3.685   2.355  18.603  0.00  0.00    +0.000 OA
BRANCH  26  28
ATOM     28  O   UNL     1       2.323   3.207  17.043  0.00  0.00    +0.000 OA
ATOM     29  H   UNL     1       2.143   4.080  16.662  0.00  0.00    +0.000 HD
ENDBRANCH  26  28
ENDBRANCH  25  26
BRANCH  25  30
ATOM     30  C   UNL     1       1.732   3.463  20.437  0.00  0.00    +0.000 C 
ATOM     31  O   UNL     1       2.334   3.088  21.433  0.00  0.00    +0.000 OA
BRANCH  30  32
ATOM     32  O   UNL     1       0.405   3.249  20.286  0.00  0.00    +0.000 OA
ATOM     33  H   UNL     1       0.184   2.395  19.852  0.00  0.00    +0.000 HD
ENDBRANCH  30  32
ENDBRANCH  25  30
ENDBRANCH   9  25
TORSDOF 10
ENDMDL
MODEL 9
REMARK VINA RESULT:      -7.9      5.134      9.242
REMARK  Name = 
REMARK  11 active torsions:
REMARK  status: ('A' for Active; 'I' for Inactive)
REMARK    1  A    between atoms: C_1  and  C_2
REMARK    2  A    between atoms: C_4  and  C_5
REMARK    3  A    between atoms: C_12  and  C_13
REMARK    4  A    between atoms: C_13  and  C_14
REMARK    5  A    between atoms: C_14  and  O_15
REMARK    6  A    between atoms: O_15  and  C_16
REMARK    7  A    between atoms: C_24  and  C_25
REMARK    8  A    between atoms: C_25  and  C_26
REMARK    9  A    between atoms: C_25  and  C_29
REMARK   10  A    between atoms: C_26  and  O_28
REMARK   11  A    between atoms: C_29  and  O_31
REMARK                            x       y       z     vdW  Elec       q    Type
REMARK                         _______ _______ _______ _____ _____    ______ ____
ROOT
ATOM      1  C   UNL     1       7.178   6.965  17.540  0.00  0.00    +0.000 A 
ATOM      2  C   UNL     1       7.529   6.171  18.643  0.00  0.00    +0.000 A 
ATOM      3  C   UNL     1       6.568   5.379  19.311  0.00  0.00    +0.000 A 
ATOM      4  C   UNL     1       5.251   5.433  18.875  0.00  0.00    +0.000 A 
ATOM      5  C   UNL     1       4.943   6.180  17.723  0.00  0.00    +0.000 A 
ATOM      6  C   UNL     1       5.896   6.862  16.997  0.00  0.00    +0.000 A 
ATOM      7  C   UNL     1       3.477   6.472  17.640  0.00  0.00    +0.000 C 
ATOM      8  C   UNL     1       3.213   6.421  19.149  0.00  0.00    +0.000 C 
ATOM      9  C   UNL     1       3.955   5.129  19.631  0.00  0.00    +0.000 C 
ENDROOT
BRANCH   1  10
ATOM     10  O   UNL     1       8.070   7.925  17.099  0.00  0.00    +0.000 OA
BRANCH  10  11
ATOM     11  C   UNL     1       7.861   9.200  17.754  0.00  0.00    +0.000 C 
BRANCH  11  12
ATOM     12  C   UNL     1       9.058   9.621  18.601  0.00  0.00    +0.000 C 
BRANCH  12  18
ATOM     13  C   UNL     1      11.917  11.439  18.355  0.00  0.00    +0.000 C 
ATOM     14  C   UNL     1      10.489  11.794  18.414  0.00  0.00    +0.000 A 
ATOM     15  O   UNL     1      10.192  13.125  18.364  0.00  0.00    +0.000 OA
ATOM     16  C   UNL     1       8.827  13.184  18.449  0.00  0.00    +0.000 A 
ATOM     17  N   UNL     1       8.250  11.996  18.531  0.00  0.00    +0.000 NA
ATOM     18  C   UNL     1       9.303  11.096  18.520  0.00  0.00    +0.000 A 
BRANCH  16  19
ATOM     19  C   UNL     1       8.235  14.522  18.449  0.00  0.00    +0.000 A 
ATOM     20  C   UNL     1       9.025  15.682  18.487  0.00  0.00    +0.000 A 
ATOM     21  C   UNL     1       8.442  16.951  18.515  0.00  0.00    +0.000 A 
ATOM     22  C   UNL     1       7.053  17.080  18.506  0.00  0.00    +0.000 A 
ATOM     23  C   UNL     1       6.251  15.940  18.460  0.00  0.00    +0.000 A 
ATOM     24  C   UNL     1       6.838  14.672  18.429  0.00  0.00    +0.000 A 
ENDBRANCH  16  19
ENDBRANCH  12  18
ENDBRANCH  11  12
ENDBRANCH  10  11
ENDBRANCH   1  10
BRANCH   9  25
ATOM     25  C   UNL     1       3.205   3.850  19.163  0.00  0.00    +0.000 C 
BRANCH  25  26
ATOM     26  C   UNL     1       3.971   2.601  18.830  0.00  0.00    +0.000 C 
ATOM     27  O   UNL     1       3.731   1.998  17.785  0.00  0.00    +0.000 OA
BRANCH  26  28
ATOM     28  O   UNL     1       4.850   2.129  19.722  0.00  0.00    +0.000 OA
ATOM     29  H   UNL     1       5.689   1.786  19.379  0.00  0.00    +0.000 HD
ENDBRANCH  26  28
ENDBRANCH  25  26
BRANCH  25  30
ATOM     30  C   UNL     1       2.103   3.455  20.130  0.00  0.00    +0.000 C 
ATOM     31  O   UNL     1       0.927   3.324  19.823  0.00  0.00    +0.000 OA
BRANCH  30  32
ATOM     32  O   UNL     1       2.536   3.244  21.394  0.00  0.00    +0.000 OA
ATOM     33  H   UNL     1       1.815   3.084  22.042  0.00  0.00    +0.000 HD
ENDBRANCH  30  32
ENDBRANCH  25  30
ENDBRANCH   9  25
TORSDOF 10
ENDMDL
