MODEL 1
REMARK VINA RESULT:      -8.1      0.000      0.000
REMARK  Name = 
REMARK  4 active torsions:
REMARK  status: ('A' for Active; 'I' for Inactive)
REMARK    1  A    between atoms: C_1  and  C_2
REMARK    2  A    between atoms: C_6  and  C_7
REMARK    3  A    between atoms: C_7  and  O_9
REMARK    4  A    between atoms: O_9  and  C_10
REMARK                            x       y       z     vdW  Elec       q    Type
REMARK                         _______ _______ _______ _____ _____    ______ ____
ROOT
ATOM      1  C   UNL     1       5.358   4.378  16.771  0.00  0.00    +0.000 C 
ATOM      2  O   UNL     1       5.314   3.953  15.627  0.00  0.00    +0.000 OA
ENDROOT
BRANCH   1   8
ATOM      3  C   UNL     1       8.366   9.192  18.093  0.00  0.00    +0.000 C 
ATOM      4  C   UNL     1       7.662   7.896  17.822  0.00  0.00    +0.000 A 
ATOM      5  C   UNL     1       8.066   6.755  18.402  0.00  0.00    +0.000 A 
ATOM      6  C   UNL     1       7.345   5.488  18.107  0.00  0.00    +0.000 A 
ATOM      7  O   UNL     1       7.784   4.454  18.601  0.00  0.00    +0.000 OA
ATOM      8  C   UNL     1       6.155   5.548  17.202  0.00  0.00    +0.000 A 
ATOM      9  C   UNL     1       5.867   6.758  16.688  0.00  0.00    +0.000 A 
ATOM     10  N   UNL     1       6.581   7.899  16.967  0.00  0.00    +0.000 N 
ATOM     11  H   UNL     1       6.304   8.773  16.526  0.00  0.00    +0.000 HD
ENDBRANCH   1   8
BRANCH   1  12
ATOM     12  O   UNL     1       4.742   3.809  17.830  0.00  0.00    +0.000 OA
BRANCH  12  13
ATOM     13  C   UNL     1       3.302   3.688  17.765  0.00  0.00    +0.000 C 
ATOM     14  C   UNL     1       2.981   2.504  18.685  0.00  0.00    +0.000 C 
ATOM     15  C   UNL     1       1.520   2.161  18.922  0.00  0.00    +0.000 C 
ATOM     16  C   UNL     1       0.676   3.128  19.754  0.00  0.00    +0.000 C 
ATOM     17  C   UNL     1       1.391   3.843  20.901  0.00  0.00    +0.000 C 
ATOM     18  C   UNL     1       1.816   5.280  20.584  0.00  0.00    +0.000 C 
ATOM     19  C   UNL     1       2.968   5.464  19.595  0.00  0.00    +0.000 C 
ATOM     20  C   UNL     1       2.671   5.023  18.158  0.00  0.00    +0.000 C 
ENDBRANCH  12  13
ENDBRANCH   1  12
TORSDOF 3
ENDMDL
MODEL 2
REMARK VINA RESULT:      -8.0      2.269      3.643
REMARK  Name = 
REMARK  4 active torsions:
REMARK  status: ('A' for Active; 'I' for Inactive)
REMARK    1  A    between atoms: C_1  and  C_2
REMARK    2  A    between atoms: C_6  and  C_7
REMARK    3  A    between atoms: C_7  and  O_9
REMARK    4  A    between atoms: O_9  and  C_10
REMARK                            x       y       z     vdW  Elec       q    Type
REMARK                         _______ _______ _______ _____ _____    ______ ____
ROOT
ATOM      1  C   UNL     1       5.976   4.602  18.067  0.00  0.00    +0.000 C 
ATOM      2  O   UNL     1       6.889   4.620  18.876  0.00  0.00    +0.000 OA
ENDROOT
BRANCH   1   8
ATOM      3  C   UNL     1       6.595   3.726  12.338  0.00  0.00    +0.000 C 
ATOM      4  C   UNL     1       6.498   4.046  13.800  0.00  0.00    +0.000 A 
ATOM      5  C   UNL     1       7.087   5.139  14.308  0.00  0.00    +0.000 A 
ATOM      6  C   UNL     1       6.971   5.423  15.764  0.00  0.00    +0.000 A 
ATOM      7  O   UNL     1       7.579   6.393  16.206  0.00  0.00    +0.000 OA
ATOM      8  C   UNL     1       6.152   4.491  16.601  0.00  0.00    +0.000 A 
ATOM      9  C   UNL     1       5.624   3.434  15.959  0.00  0.00    +0.000 A 
ATOM     10  N   UNL     1       5.781   3.196  14.614  0.00  0.00    +0.000 N 
ATOM     11  H   UNL     1       5.358   2.364  14.208  0.00  0.00    +0.000 HD
ENDBRANCH   1   8
BRANCH   1  12
ATOM     12  O   UNL     1       4.669   4.746  18.376  0.00  0.00    +0.000 OA
BRANCH  12  13
ATOM     13  C   UNL     1       4.183   4.026  19.533  0.00  0.00    +0.000 C 
ATOM     14  C   UNL     1       3.040   4.897  20.066  0.00  0.00    +0.000 C 
ATOM     15  C   UNL     1       2.236   4.373  21.245  0.00  0.00    +0.000 C 
ATOM     16  C   UNL     1       1.312   3.177  21.015  0.00  0.00    +0.000 C 
ATOM     17  C   UNL     1       0.629   3.094  19.649  0.00  0.00    +0.000 C 
ATOM     18  C   UNL     1       1.296   2.128  18.665  0.00  0.00    +0.000 C 
ATOM     19  C   UNL     1       2.653   2.540  18.094  0.00  0.00    +0.000 C 
ATOM     20  C   UNL     1       3.797   2.609  19.111  0.00  0.00    +0.000 C 
ENDBRANCH  12  13
ENDBRANCH   1  12
TORSDOF 3
ENDMDL
MODEL 3
REMARK VINA RESULT:      -8.0      0.554      1.769
REMARK  Name = 
REMARK  4 active torsions:
REMARK  status: ('A' for Active; 'I' for Inactive)
REMARK    1  A    between atoms: C_1  and  C_2
REMARK    2  A    between atoms: C_6  and  C_7
REMARK    3  A    between atoms: C_7  and  O_9
REMARK    4  A    between atoms: O_9  and  C_10
REMARK                            x       y       z     vdW  Elec       q    Type
REMARK                         _______ _______ _______ _____ _____    ______ ____
ROOT
ATOM      1  C   UNL     1       5.350   4.433  16.579  0.00  0.00    +0.000 C 
ATOM      2  O   UNL     1       5.793   3.515  15.908  0.00  0.00    +0.000 OA
ENDROOT
BRANCH   1   8
ATOM      3  C   UNL     1       8.408   9.134  18.167  0.00  0.00    +0.000 C 
ATOM      4  C   UNL     1       7.685   7.864  17.831  0.00  0.00    +0.000 A 
ATOM      5  C   UNL     1       8.018   6.703  18.416  0.00  0.00    +0.000 A 
ATOM      6  C   UNL     1       7.280   5.463  18.055  0.00  0.00    +0.000 A 
ATOM      7  O   UNL     1       7.658   4.409  18.557  0.00  0.00    +0.000 OA
ATOM      8  C   UNL     1       6.152   5.573  17.080  0.00  0.00    +0.000 A 
ATOM      9  C   UNL     1       5.932   6.798  16.569  0.00  0.00    +0.000 A 
ATOM     10  N   UNL     1       6.660   7.913  16.911  0.00  0.00    +0.000 N 
ATOM     11  H   UNL     1       6.437   8.801  16.468  0.00  0.00    +0.000 HD
ENDBRANCH   1   8
BRANCH   1  12
ATOM     12  O   UNL     1       4.077   4.519  17.025  0.00  0.00    +0.000 OA
BRANCH  12  13
ATOM     13  C   UNL     1       3.875   4.450  18.455  0.00  0.00    +0.000 C 
ATOM     14  C   UNL     1       2.588   5.246  18.694  0.00  0.00    +0.000 C 
ATOM     15  C   UNL     1       2.030   5.293  20.107  0.00  0.00    +0.000 C 
ATOM     16  C   UNL     1       1.431   4.013  20.690  0.00  0.00    +0.000 C 
ATOM     17  C   UNL     1       0.698   3.095  19.711  0.00  0.00    +0.000 C 
ATOM     18  C   UNL     1       1.519   1.894  19.233  0.00  0.00    +0.000 C 
ATOM     19  C   UNL     1       2.681   2.178  18.280  0.00  0.00    +0.000 C 
ATOM     20  C   UNL     1       3.837   2.983  18.883  0.00  0.00    +0.000 C 
ENDBRANCH  12  13
ENDBRANCH   1  12
TORSDOF 3
ENDMDL
MODEL 4
REMARK VINA RESULT:      -7.9      1.011      1.382
REMARK  Name = 
REMARK  4 active torsions:
REMARK  status: ('A' for Active; 'I' for Inactive)
REMARK    1  A    between atoms: C_1  and  C_2
REMARK    2  A    between atoms: C_6  and  C_7
REMARK    3  A    between atoms: C_7  and  O_9
REMARK    4  A    between atoms: O_9  and  C_10
REMARK                            x       y       z     vdW  Elec       q    Type
REMARK                         _______ _______ _______ _____ _____    ______ ____
ROOT
ATOM      1  C   UNL     1       5.366   4.225  16.543  0.00  0.00    +0.000 C 
ATOM      2  O   UNL     1       5.818   3.358  15.813  0.00  0.00    +0.000 OA
ENDROOT
BRANCH   1   8
ATOM      3  C   UNL     1       8.214   9.104  17.977  0.00  0.00    +0.000 C 
ATOM      4  C   UNL     1       7.550   7.793  17.680  0.00  0.00    +0.000 A 
ATOM      5  C   UNL     1       7.957   6.661  18.276  0.00  0.00    +0.000 A 
ATOM      6  C   UNL     1       7.275   5.378  17.954  0.00  0.00    +0.000 A 
ATOM      7  O   UNL     1       7.718   4.354  18.464  0.00  0.00    +0.000 OA
ATOM      8  C   UNL     1       6.119   5.413  17.004  0.00  0.00    +0.000 A 
ATOM      9  C   UNL     1       5.824   6.616  16.479  0.00  0.00    +0.000 A 
ATOM     10  N   UNL     1       6.502   7.773  16.785  0.00  0.00    +0.000 N 
ATOM     11  H   UNL     1       6.223   8.641  16.333  0.00  0.00    +0.000 HD
ENDBRANCH   1   8
BRANCH   1  12
ATOM     12  O   UNL     1       4.133   4.203  17.096  0.00  0.00    +0.000 OA
BRANCH  12  13
ATOM     13  C   UNL     1       3.810   3.071  17.936  0.00  0.00    +0.000 C 
ATOM     14  C   UNL     1       4.430   3.419  19.294  0.00  0.00    +0.000 C 
ATOM     15  C   UNL     1       4.189   2.466  20.453  0.00  0.00    +0.000 C 
ATOM     16  C   UNL     1       2.779   2.381  21.039  0.00  0.00    +0.000 C 
ATOM     17  C   UNL     1       1.971   3.679  21.060  0.00  0.00    +0.000 C 
ATOM     18  C   UNL     1       0.949   3.808  19.927  0.00  0.00    +0.000 C 
ATOM     19  C   UNL     1       1.496   4.033  18.516  0.00  0.00    +0.000 C 
ATOM     20  C   UNL     1       2.295   2.865  17.932  0.00  0.00    +0.000 C 
ENDBRANCH  12  13
ENDBRANCH   1  12
TORSDOF 3
ENDMDL
MODEL 5
REMARK VINA RESULT:      -7.6      2.092      3.383
REMARK  Name = 
REMARK  4 active torsions:
REMARK  status: ('A' for Active; 'I' for Inactive)
REMARK    1  A    between atoms: C_1  and  C_2
REMARK    2  A    between atoms: C_6  and  C_7
REMARK    3  A    between atoms: C_7  and  O_9
REMARK    4  A    between atoms: O_9  and  C_10
REMARK                            x       y       z     vdW  Elec       q    Type
REMARK                         _______ _______ _______ _____ _____    ______ ____
ROOT
ATOM      1  C   UNL     1       5.966   5.230  19.078  0.00  0.00    +0.000 C 
ATOM      2  O   UNL     1       6.849   5.384  19.906  0.00  0.00    +0.000 OA
ENDROOT
BRANCH   1   8
ATOM      3  C   UNL     1       7.287   4.806  13.417  0.00  0.00    +0.000 C 
ATOM      4  C   UNL     1       6.848   4.962  14.843  0.00  0.00    +0.000 A 
ATOM      5  C   UNL     1       5.656   5.501  15.144  0.00  0.00    +0.000 A 
ATOM      6  C   UNL     1       5.256   5.642  16.570  0.00  0.00    +0.000 A 
ATOM      7  O   UNL     1       4.191   6.202  16.810  0.00  0.00    +0.000 OA
ATOM      8  C   UNL     1       6.189   5.125  17.619  0.00  0.00    +0.000 A 
ATOM      9  C   UNL     1       7.351   4.614  17.173  0.00  0.00    +0.000 A 
ATOM     10  N   UNL     1       7.692   4.530  15.843  0.00  0.00    +0.000 N 
ATOM     11  H   UNL     1       8.597   4.140  15.591  0.00  0.00    +0.000 HD
ENDBRANCH   1   8
BRANCH   1  12
ATOM     12  O   UNL     1       4.644   5.197  19.357  0.00  0.00    +0.000 OA
BRANCH  12  13
ATOM     13  C   UNL     1       4.158   4.058  20.104  0.00  0.00    +0.000 C 
ATOM     14  C   UNL     1       2.891   4.573  20.795  0.00  0.00    +0.000 C 
ATOM     15  C   UNL     1       2.065   3.583  21.600  0.00  0.00    +0.000 C 
ATOM     16  C   UNL     1       1.297   2.498  20.844  0.00  0.00    +0.000 C 
ATOM     17  C   UNL     1       0.729   2.891  19.479  0.00  0.00    +0.000 C 
ATOM     18  C   UNL     1       1.567   2.424  18.286  0.00  0.00    +0.000 C 
ATOM     19  C   UNL     1       2.909   3.122  18.060  0.00  0.00    +0.000 C 
ATOM     20  C   UNL     1       3.961   2.883  19.147  0.00  0.00    +0.000 C 
ENDBRANCH  12  13
ENDBRANCH   1  12
TORSDOF 3
ENDMDL
MODEL 6
REMARK VINA RESULT:      -7.5      1.012      1.534
REMARK  Name = 
REMARK  4 active torsions:
REMARK  status: ('A' for Active; 'I' for Inactive)
REMARK    1  A    between atoms: C_1  and  C_2
REMARK    2  A    between atoms: C_6  and  C_7
REMARK    3  A    between atoms: C_7  and  O_9
REMARK    4  A    between atoms: O_9  and  C_10
REMARK                            x       y       z     vdW  Elec       q    Type
REMARK                         _______ _______ _______ _____ _____    ______ ____
ROOT
ATOM      1  C   UNL     1       5.619   4.058  16.911  0.00  0.00    +0.000 C 
ATOM      2  O   UNL     1       5.690   3.468  15.845  0.00  0.00    +0.000 OA
ENDROOT
BRANCH   1   8
ATOM      3  C   UNL     1       8.645   8.735  18.623  0.00  0.00    +0.000 C 
ATOM      4  C   UNL     1       7.816   7.598  18.105  0.00  0.00    +0.000 A 
ATOM      5  C   UNL     1       6.950   7.778  17.096  0.00  0.00    +0.000 A 
ATOM      6  C   UNL     1       6.142   6.627  16.610  0.00  0.00    +0.000 A 
ATOM      7  O   UNL     1       5.311   6.843  15.734  0.00  0.00    +0.000 OA
ATOM      8  C   UNL     1       6.369   5.290  17.242  0.00  0.00    +0.000 A 
ATOM      9  C   UNL     1       7.265   5.257  18.245  0.00  0.00    +0.000 A 
ATOM     10  N   UNL     1       7.968   6.355  18.681  0.00  0.00    +0.000 N 
ATOM     11  H   UNL     1       8.619   6.248  19.456  0.00  0.00    +0.000 HD
ENDBRANCH   1   8
BRANCH   1  12
ATOM     12  O   UNL     1       4.897   3.643  17.975  0.00  0.00    +0.000 OA
BRANCH  12  13
ATOM     13  C   UNL     1       3.458   3.629  17.828  0.00  0.00    +0.000 C 
ATOM     14  C   UNL     1       3.005   2.428  18.665  0.00  0.00    +0.000 C 
ATOM     15  C   UNL     1       1.512   2.179  18.806  0.00  0.00    +0.000 C 
ATOM     16  C   UNL     1       0.692   3.161  19.643  0.00  0.00    +0.000 C 
ATOM     17  C   UNL     1       1.388   3.766  20.863  0.00  0.00    +0.000 C 
ATOM     18  C   UNL     1       1.929   5.182  20.646  0.00  0.00    +0.000 C 
ATOM     19  C   UNL     1       3.145   5.332  19.730  0.00  0.00    +0.000 C 
ATOM     20  C   UNL     1       2.900   4.985  18.258  0.00  0.00    +0.000 C 
ENDBRANCH  12  13
ENDBRANCH   1  12
TORSDOF 3
ENDMDL
MODEL 7
REMARK VINA RESULT:      -7.5      0.988      1.300
REMARK  Name = 
REMARK  4 active torsions:
REMARK  status: ('A' for Active; 'I' for Inactive)
REMARK    1  A    between atoms: C_1  and  C_2
REMARK    2  A    between atoms: C_6  and  C_7
REMARK    3  A    between atoms: C_7  and  O_9
REMARK    4  A    between atoms: O_9  and  C_10
REMARK                            x       y       z     vdW  Elec       q    Type
REMARK                         _______ _______ _______ _____ _____    ______ ____
ROOT
ATOM      1  C   UNL     1       5.515   4.271  16.223  0.00  0.00    +0.000 C 
ATOM      2  O   UNL     1       5.558   3.938  15.050  0.00  0.00    +0.000 OA
ENDROOT
BRANCH   1   8
ATOM      3  C   UNL     1       8.263   9.054  18.106  0.00  0.00    +0.000 C 
ATOM      4  C   UNL     1       7.623   7.763  17.691  0.00  0.00    +0.000 A 
ATOM      5  C   UNL     1       8.023   6.594  18.215  0.00  0.00    +0.000 A 
ATOM      6  C   UNL     1       7.366   5.333  17.777  0.00  0.00    +0.000 A 
ATOM      7  O   UNL     1       7.804   4.277  18.224  0.00  0.00    +0.000 OA
ATOM      8  C   UNL     1       6.241   5.428  16.795  0.00  0.00    +0.000 A 
ATOM      9  C   UNL     1       5.950   6.664  16.351  0.00  0.00    +0.000 A 
ATOM     10  N   UNL     1       6.605   7.801  16.763  0.00  0.00    +0.000 N 
ATOM     11  H   UNL     1       6.331   8.698  16.368  0.00  0.00    +0.000 HD
ENDBRANCH   1   8
BRANCH   1  12
ATOM     12  O   UNL     1       4.855   3.601  17.192  0.00  0.00    +0.000 OA
BRANCH  12  13
ATOM     13  C   UNL     1       3.778   4.301  17.858  0.00  0.00    +0.000 C 
ATOM     14  C   UNL     1       2.521   3.512  17.473  0.00  0.00    +0.000 C 
ATOM     15  C   UNL     1       1.199   3.932  18.093  0.00  0.00    +0.000 C 
ATOM     16  C   UNL     1       0.987   3.678  19.586  0.00  0.00    +0.000 C 
ATOM     17  C   UNL     1       1.623   2.411  20.160  0.00  0.00    +0.000 C 
ATOM     18  C   UNL     1       2.944   2.644  20.899  0.00  0.00    +0.000 C 
ATOM     19  C   UNL     1       4.162   3.015  20.053  0.00  0.00    +0.000 C 
ATOM     20  C   UNL     1       4.082   4.376  19.354  0.00  0.00    +0.000 C 
ENDBRANCH  12  13
ENDBRANCH   1  12
TORSDOF 3
ENDMDL
MODEL 8
REMARK VINA RESULT:      -7.4      2.038      3.015
REMARK  Name = 
REMARK  4 active torsions:
REMARK  status: ('A' for Active; 'I' for Inactive)
REMARK    1  A    between atoms: C_1  and  C_2
REMARK    2  A    between atoms: C_6  and  C_7
REMARK    3  A    between atoms: C_7  and  O_9
REMARK    4  A    between atoms: O_9  and  C_10
REMARK                            x       y       z     vdW  Elec       q    Type
REMARK                         _______ _______ _______ _____ _____    ______ ____
ROOT
ATOM      1  C   UNL     1       6.331   5.374  19.308  0.00  0.00    +0.000 C 
ATOM      2  O   UNL     1       7.275   5.554  20.060  0.00  0.00    +0.000 OA
ENDROOT
BRANCH   1   8
ATOM      3  C   UNL     1       7.142   4.877  13.557  0.00  0.00    +0.000 C 
ATOM      4  C   UNL     1       6.860   5.089  15.015  0.00  0.00    +0.000 A 
ATOM      5  C   UNL     1       5.992   6.029  15.421  0.00  0.00    +0.000 A 
ATOM      6  C   UNL     1       5.740   6.212  16.876  0.00  0.00    +0.000 A 
ATOM      7  O   UNL     1       4.994   7.125  17.214  0.00  0.00    +0.000 OA
ATOM      8  C   UNL     1       6.435   5.296  17.833  0.00  0.00    +0.000 A 
ATOM      9  C   UNL     1       7.280   4.404  17.286  0.00  0.00    +0.000 A 
ATOM     10  N   UNL     1       7.505   4.290  15.934  0.00  0.00    +0.000 N 
ATOM     11  H   UNL     1       8.171   3.596  15.602  0.00  0.00    +0.000 HD
ENDBRANCH   1   8
BRANCH   1  12
ATOM     12  O   UNL     1       5.040   5.284  19.696  0.00  0.00    +0.000 OA
BRANCH  12  13
ATOM     13  C   UNL     1       4.181   4.412  18.925  0.00  0.00    +0.000 C 
ATOM     14  C   UNL     1       4.265   3.064  19.649  0.00  0.00    +0.000 C 
ATOM     15  C   UNL     1       3.390   1.928  19.144  0.00  0.00    +0.000 C 
ATOM     16  C   UNL     1       1.879   2.030  19.358  0.00  0.00    +0.000 C 
ATOM     17  C   UNL     1       1.417   2.709  20.649  0.00  0.00    +0.000 C 
ATOM     18  C   UNL     1       0.984   4.168  20.476  0.00  0.00    +0.000 C 
ATOM     19  C   UNL     1       2.082   5.193  20.190  0.00  0.00    +0.000 C 
ATOM     20  C   UNL     1       2.788   5.034  18.840  0.00  0.00    +0.000 C 
ENDBRANCH  12  13
ENDBRANCH   1  12
TORSDOF 3
ENDMDL
MODEL 9
REMARK VINA RESULT:      -7.3      2.222      3.247
REMARK  Name = 
REMARK  4 active torsions:
REMARK  status: ('A' for Active; 'I' for Inactive)
REMARK    1  A    between atoms: C_1  and  C_2
REMARK    2  A    between atoms: C_6  and  C_7
REMARK    3  A    between atoms: C_7  and  O_9
REMARK    4  A    between atoms: O_9  and  C_10
REMARK                            x       y       z     vdW  Elec       q    Type
REMARK                         _______ _______ _______ _____ _____    ______ ____
ROOT
ATOM      1  C   UNL     1       6.044   4.681  18.063  0.00  0.00    +0.000 C 
ATOM      2  O   UNL     1       6.924   4.443  18.875  0.00  0.00    +0.000 OA
ENDROOT
BRANCH   1   8
ATOM      3  C   UNL     1       6.561   3.696  12.342  0.00  0.00    +0.000 C 
ATOM      4  C   UNL     1       6.488   4.045  13.799  0.00  0.00    +0.000 A 
ATOM      5  C   UNL     1       7.066   5.159  14.272  0.00  0.00    +0.000 A 
ATOM      6  C   UNL     1       6.976   5.471  15.724  0.00  0.00    +0.000 A 
ATOM      7  O   UNL     1       7.574   6.461  16.133  0.00  0.00    +0.000 OA
ATOM      8  C   UNL     1       6.192   4.543  16.597  0.00  0.00    +0.000 A 
ATOM      9  C   UNL     1       5.671   3.462  15.988  0.00  0.00    +0.000 A 
ATOM     10  N   UNL     1       5.805   3.199  14.646  0.00  0.00    +0.000 N 
ATOM     11  H   UNL     1       5.390   2.351  14.266  0.00  0.00    +0.000 HD
ENDBRANCH   1   8
BRANCH   1  12
ATOM     12  O   UNL     1       4.822   5.169  18.371  0.00  0.00    +0.000 OA
BRANCH  12  13
ATOM     13  C   UNL     1       3.685   4.320  18.089  0.00  0.00    +0.000 C 
ATOM     14  C   UNL     1       3.871   3.119  19.022  0.00  0.00    +0.000 C 
ATOM     15  C   UNL     1       2.779   2.061  19.048  0.00  0.00    +0.000 C 
ATOM     16  C   UNL     1       1.433   2.428  19.673  0.00  0.00    +0.000 C 
ATOM     17  C   UNL     1       1.472   3.380  20.869  0.00  0.00    +0.000 C 
ATOM     18  C   UNL     1       1.143   4.837  20.531  0.00  0.00    +0.000 C 
ATOM     19  C   UNL     1       2.182   5.618  19.725  0.00  0.00    +0.000 C 
ATOM     20  C   UNL     1       2.401   5.125  18.291  0.00  0.00    +0.000 C 
ENDBRANCH  12  13
ENDBRANCH   1  12
TORSDOF 3
ENDMDL
