MODEL 1
REMARK VINA RESULT:      -9.6      0.000      0.000
REMARK  Name = 
REMARK  4 active torsions:
REMARK  status: ('A' for Active; 'I' for Inactive)
REMARK    1  A    between atoms: C_2  and  C_3
REMARK    2  A    between atoms: C_6  and  C_7
REMARK    3  A    between atoms: C_7  and  C_9
REMARK    4  A    between atoms: C_22  and  C_23
REMARK                            x       y       z     vdW  Elec       q    Type
REMARK                         _______ _______ _______ _____ _____    ______ ____
ROOT
ATOM      1  O   UNL     1       2.548   4.728  19.229  0.00  0.00    +0.000 OA
ATOM      2  C   UNL     1       2.767   5.822  18.678  0.00  0.00    +0.000 C 
ATOM      3  N   UNL     1       2.165   6.984  19.238  0.00  0.00    +0.000 N 
ATOM      4  C   UNL     1       1.580   6.552  20.573  0.00  0.00    +0.000 C 
ATOM      5  C   UNL     1       1.252   7.856  21.076  0.00  0.00    +0.000 C 
ATOM      6  O   UNL     1       0.710   8.719  21.954  0.00  0.00    +0.000 OA
ATOM      7  C   UNL     1       0.796   9.871  21.114  0.00  0.00    +0.000 A 
ATOM      8  C   UNL     1       0.243  10.952  21.786  0.00  0.00    +0.000 A 
ATOM      9  C   UNL     1       0.136  12.170  21.143  0.00  0.00    +0.000 A 
ATOM     10  C   UNL     1       0.607  12.373  19.830  0.00  0.00    +0.000 A 
ATOM     11  C   UNL     1       1.174  11.241  19.119  0.00  0.00    +0.000 A 
ATOM     12  C   UNL     1       1.311   9.933  19.720  0.00  0.00    +0.000 A 
ATOM     13  C   UNL     1       2.087   8.640  18.813  0.00  0.00    +0.000 C 
ENDROOT
BRANCH  10  14
ATOM     14  C   UNL     1       0.498  13.792  19.341  0.00  0.00    +0.000 A 
ATOM     15  C   UNL     1      -0.642  14.592  19.522  0.00  0.00    +0.000 A 
ATOM     16  C   UNL     1      -0.676  15.963  19.140  0.00  0.00    +0.000 A 
ATOM     17  C   UNL     1       0.465  16.558  18.574  0.00  0.00    +0.000 A 
ATOM     18  C   UNL     1       0.832  17.833  18.080  0.00  0.00    +0.000 A 
ATOM     19  N   UNL     1       2.100  17.879  17.661  0.00  0.00    +0.000 NA
ATOM     20  N   UNL     1       2.549  16.630  17.890  0.00  0.00    +0.000 N 
ATOM     21  C   UNL     1       1.607  15.784  18.424  0.00  0.00    +0.000 A 
ATOM     22  C   UNL     1       1.651  14.429  18.790  0.00  0.00    +0.000 A 
ATOM     23  H   UNL     1       3.514  16.420  17.658  0.00  0.00    +0.000 HD
ENDBRANCH  10  14
BRANCH   2  24
ATOM     24  C   UNL     1       3.716   5.697  17.541  0.00  0.00    +0.000 A 
ATOM     25  C   UNL     1       4.018   4.371  17.113  0.00  0.00    +0.000 A 
ATOM     26  C   UNL     1       4.944   4.105  16.099  0.00  0.00    +0.000 A 
ATOM     27  C   UNL     1       5.601   5.165  15.481  0.00  0.00    +0.000 A 
ATOM     28  C   UNL     1       5.253   6.472  15.836  0.00  0.00    +0.000 A 
ATOM     29  C   UNL     1       4.324   6.742  16.866  0.00  0.00    +0.000 A 
BRANCH  27  30
ATOM     30  C   UNL     1       6.647   4.836  14.468  0.00  0.00    +0.000 C 
ATOM     31  O   UNL     1       7.780   5.303  14.636  0.00  0.00    +0.000 OA
BRANCH  30  32
ATOM     32  C   UNL     1       6.258   4.011  13.249  0.00  0.00    +0.000 C 
ATOM     33  F   UNL     1       6.965   4.298  12.119  0.00  0.00    +0.000 F 
ATOM     34  F   UNL     1       6.433   2.675  13.454  0.00  0.00    +0.000 F 
ATOM     35  F   UNL     1       4.948   4.179  12.916  0.00  0.00    +0.000 F 
ENDBRANCH  30  32
ENDBRANCH  27  30
ENDBRANCH   2  24
TORSDOF 4
ENDMDL
MODEL 2
REMARK VINA RESULT:      -9.6      0.710      1.115
REMARK  Name = 
REMARK  4 active torsions:
REMARK  status: ('A' for Active; 'I' for Inactive)
REMARK    1  A    between atoms: C_2  and  C_3
REMARK    2  A    between atoms: C_6  and  C_7
REMARK    3  A    between atoms: C_7  and  C_9
REMARK    4  A    between atoms: C_22  and  C_23
REMARK                            x       y       z     vdW  Elec       q    Type
REMARK                         _______ _______ _______ _____ _____    ______ ____
ROOT
ATOM      1  O   UNL     1       2.482   4.034  19.158  0.00  0.00    +0.000 OA
ATOM      2  C   UNL     1       2.826   5.103  18.622  0.00  0.00    +0.000 C 
ATOM      3  N   UNL     1       2.267   6.312  19.125  0.00  0.00    +0.000 N 
ATOM      4  C   UNL     1       1.541   5.937  20.407  0.00  0.00    +0.000 C 
ATOM      5  C   UNL     1       1.268   7.267  20.875  0.00  0.00    +0.000 C 
ATOM      6  O   UNL     1       0.719   8.176  21.700  0.00  0.00    +0.000 OA
ATOM      7  C   UNL     1       0.960   9.310  20.866  0.00  0.00    +0.000 A 
ATOM      8  C   UNL     1       0.432  10.436  21.484  0.00  0.00    +0.000 A 
ATOM      9  C   UNL     1       0.470  11.651  20.828  0.00  0.00    +0.000 A 
ATOM     10  C   UNL     1       1.064  11.805  19.560  0.00  0.00    +0.000 A 
ATOM     11  C   UNL     1       1.604  10.628  18.904  0.00  0.00    +0.000 A 
ATOM     12  C   UNL     1       1.594   9.320  19.520  0.00  0.00    +0.000 A 
ATOM     13  C   UNL     1       2.346   7.964  18.688  0.00  0.00    +0.000 C 
ENDROOT
BRANCH  10  14
ATOM     14  C   UNL     1       1.101  13.224  19.057  0.00  0.00    +0.000 A 
ATOM     15  C   UNL     1       0.010  14.105  19.133  0.00  0.00    +0.000 A 
ATOM     16  C   UNL     1       0.109  15.471  18.743  0.00  0.00    +0.000 A 
ATOM     17  C   UNL     1       1.335  15.977  18.279  0.00  0.00    +0.000 A 
ATOM     18  C   UNL     1       1.836  17.217  17.814  0.00  0.00    +0.000 A 
ATOM     19  N   UNL     1       3.136  17.167  17.509  0.00  0.00    +0.000 NA
ATOM     20  N   UNL     1       3.472  15.892  17.782  0.00  0.00    +0.000 N 
ATOM     21  C   UNL     1       2.427  15.121  18.234  0.00  0.00    +0.000 A 
ATOM     22  C   UNL     1       2.341  13.771  18.608  0.00  0.00    +0.000 A 
ATOM     23  H   UNL     1       4.436  15.611  17.637  0.00  0.00    +0.000 HD
ENDBRANCH  10  14
BRANCH   2  24
ATOM     24  C   UNL     1       3.857   4.898  17.571  0.00  0.00    +0.000 A 
ATOM     25  C   UNL     1       4.408   6.077  16.989  0.00  0.00    +0.000 A 
ATOM     26  C   UNL     1       5.338   6.031  15.945  0.00  0.00    +0.000 A 
ATOM     27  C   UNL     1       5.743   4.796  15.447  0.00  0.00    +0.000 A 
ATOM     28  C   UNL     1       5.272   3.634  16.065  0.00  0.00    +0.000 A 
ATOM     29  C   UNL     1       4.325   3.678  17.114  0.00  0.00    +0.000 A 
BRANCH  27  30
ATOM     30  C   UNL     1       6.666   4.791  14.274  0.00  0.00    +0.000 C 
ATOM     31  O   UNL     1       7.695   5.473  14.347  0.00  0.00    +0.000 OA
BRANCH  30  32
ATOM     32  C   UNL     1       6.266   4.016  13.026  0.00  0.00    +0.000 C 
ATOM     33  F   UNL     1       6.896   4.415  11.884  0.00  0.00    +0.000 F 
ATOM     34  F   UNL     1       6.535   2.684  13.139  0.00  0.00    +0.000 F 
ATOM     35  F   UNL     1       4.933   4.118  12.767  0.00  0.00    +0.000 F 
ENDBRANCH  30  32
ENDBRANCH  27  30
ENDBRANCH   2  24
TORSDOF 4
ENDMDL
MODEL 3
REMARK VINA RESULT:      -9.5      1.025      1.656
REMARK  Name = 
REMARK  4 active torsions:
REMARK  status: ('A' for Active; 'I' for Inactive)
REMARK    1  A    between atoms: C_2  and  C_3
REMARK    2  A    between atoms: C_6  and  C_7
REMARK    3  A    between atoms: C_7  and  C_9
REMARK    4  A    between atoms: C_22  and  C_23
REMARK                            x       y       z     vdW  Elec       q    Type
REMARK                         _______ _______ _______ _____ _____    ______ ____
ROOT
ATOM      1  O   UNL     1       3.026   3.649  18.473  0.00  0.00    +0.000 OA
ATOM      2  C   UNL     1       3.316   4.769  18.016  0.00  0.00    +0.000 C 
ATOM      3  N   UNL     1       2.694   5.909  18.598  0.00  0.00    +0.000 N 
ATOM      4  C   UNL     1       1.985   5.409  19.846  0.00  0.00    +0.000 C 
ATOM      5  C   UNL     1       1.643   6.687  20.404  0.00  0.00    +0.000 C 
ATOM      6  O   UNL     1       1.045   7.507  21.287  0.00  0.00    +0.000 OA
ATOM      7  C   UNL     1       1.230   8.707  20.536  0.00  0.00    +0.000 A 
ATOM      8  C   UNL     1       0.644   9.759  21.227  0.00  0.00    +0.000 A 
ATOM      9  C   UNL     1       0.621  11.017  20.659  0.00  0.00    +0.000 A 
ATOM     10  C   UNL     1       1.210  11.290  19.408  0.00  0.00    +0.000 A 
ATOM     11  C   UNL     1       1.812  10.191  18.676  0.00  0.00    +0.000 A 
ATOM     12  C   UNL     1       1.867   8.844  19.198  0.00  0.00    +0.000 A 
ATOM     13  C   UNL     1       2.690   7.590  18.278  0.00  0.00    +0.000 C 
ENDROOT
BRANCH  10  14
ATOM     14  C   UNL     1       1.176  12.741  19.006  0.00  0.00    +0.000 A 
ATOM     15  C   UNL     1       0.010  13.523  19.014  0.00  0.00    +0.000 A 
ATOM     16  C   UNL     1       0.030  14.918  18.728  0.00  0.00    +0.000 A 
ATOM     17  C   UNL     1       1.250  15.554  18.440  0.00  0.00    +0.000 A 
ATOM     18  C   UNL     1       1.687  16.861  18.117  0.00  0.00    +0.000 A 
ATOM     19  N   UNL     1       3.011  16.939  17.961  0.00  0.00    +0.000 NA
ATOM     20  N   UNL     1       3.427  15.679  18.186  0.00  0.00    +0.000 N 
ATOM     21  C   UNL     1       2.412  14.795  18.465  0.00  0.00    +0.000 A 
ATOM     22  C   UNL     1       2.405  13.418  18.738  0.00  0.00    +0.000 A 
ATOM     23  H   UNL     1       4.422  15.487  18.134  0.00  0.00    +0.000 HD
ENDBRANCH  10  14
BRANCH   2  24
ATOM     24  C   UNL     1       4.359   4.690  16.960  0.00  0.00    +0.000 A 
ATOM     25  C   UNL     1       4.695   5.916  16.312  0.00  0.00    +0.000 A 
ATOM     26  C   UNL     1       5.611   5.977  15.257  0.00  0.00    +0.000 A 
ATOM     27  C   UNL     1       6.220   4.807  14.814  0.00  0.00    +0.000 A 
ATOM     28  C   UNL     1       5.960   3.614  15.495  0.00  0.00    +0.000 A 
ATOM     29  C   UNL     1       5.028   3.548  16.556  0.00  0.00    +0.000 A 
BRANCH  27  30
ATOM     30  C   UNL     1       7.121   4.901  13.628  0.00  0.00    +0.000 C 
ATOM     31  O   UNL     1       8.095   5.659  13.703  0.00  0.00    +0.000 OA
BRANCH  30  32
ATOM     32  C   UNL     1       6.763   4.125  12.367  0.00  0.00    +0.000 C 
ATOM     33  F   UNL     1       5.430   3.895  12.201  0.00  0.00    +0.000 F 
ATOM     34  F   UNL     1       7.161   4.771  11.235  0.00  0.00    +0.000 F 
ATOM     35  F   UNL     1       7.356   2.899  12.337  0.00  0.00    +0.000 F 
ENDBRANCH  30  32
ENDBRANCH  27  30
ENDBRANCH   2  24
TORSDOF 4
ENDMDL
MODEL 4
REMARK VINA RESULT:      -9.2      0.956      1.433
REMARK  Name = 
REMARK  4 active torsions:
REMARK  status: ('A' for Active; 'I' for Inactive)
REMARK    1  A    between atoms: C_2  and  C_3
REMARK    2  A    between atoms: C_6  and  C_7
REMARK    3  A    between atoms: C_7  and  C_9
REMARK    4  A    between atoms: C_22  and  C_23
REMARK                            x       y       z     vdW  Elec       q    Type
REMARK                         _______ _______ _______ _____ _____    ______ ____
ROOT
ATOM      1  O   UNL     1       2.354   4.883  19.231  0.00  0.00    +0.000 OA
ATOM      2  C   UNL     1       2.640   5.976  18.710  0.00  0.00    +0.000 C 
ATOM      3  N   UNL     1       2.076   7.154  19.277  0.00  0.00    +0.000 N 
ATOM      4  C   UNL     1       1.432   6.723  20.584  0.00  0.00    +0.000 C 
ATOM      5  C   UNL     1       1.150   8.031  21.106  0.00  0.00    +0.000 C 
ATOM      6  O   UNL     1       0.622   8.900  21.985  0.00  0.00    +0.000 OA
ATOM      7  C   UNL     1       0.786  10.064  21.173  0.00  0.00    +0.000 A 
ATOM      8  C   UNL     1       0.263  11.156  21.851  0.00  0.00    +0.000 A 
ATOM      9  C   UNL     1       0.232  12.390  21.230  0.00  0.00    +0.000 A 
ATOM     10  C   UNL     1       0.751  12.596  19.936  0.00  0.00    +0.000 A 
ATOM     11  C   UNL     1       1.286  11.453  19.219  0.00  0.00    +0.000 A 
ATOM     12  C   UNL     1       1.345  10.129  19.796  0.00  0.00    +0.000 A 
ATOM     13  C   UNL     1       2.087   8.819  18.885  0.00  0.00    +0.000 C 
ENDROOT
BRANCH  10  14
ATOM     14  C   UNL     1       0.722  14.029  19.474  0.00  0.00    +0.000 A 
ATOM     15  C   UNL     1       1.821  14.679  18.890  0.00  0.00    +0.000 A 
ATOM     16  C   UNL     1       1.731  16.002  18.369  0.00  0.00    +0.000 A 
ATOM     17  C   UNL     1       0.506  16.689  18.418  0.00  0.00    +0.000 A 
ATOM     18  C   UNL     1       0.012  17.957  18.029  0.00  0.00    +0.000 A 
ATOM     19  N   UNL     1      -1.290  18.107  18.287  0.00  0.00    +0.000 NA
ATOM     20  N   UNL     1      -1.634  16.929  18.842  0.00  0.00    +0.000 N 
ATOM     21  C   UNL     1      -0.594  16.040  18.962  0.00  0.00    +0.000 A 
ATOM     22  C   UNL     1      -0.516  14.739  19.486  0.00  0.00    +0.000 A 
ATOM     23  H   UNL     1      -2.602  16.796  19.118  0.00  0.00    +0.000 HD
ENDBRANCH  10  14
BRANCH   2  24
ATOM     24  C   UNL     1       3.616   5.829  17.599  0.00  0.00    +0.000 A 
ATOM     25  C   UNL     1       3.919   4.495  17.196  0.00  0.00    +0.000 A 
ATOM     26  C   UNL     1       4.868   4.209  16.209  0.00  0.00    +0.000 A 
ATOM     27  C   UNL     1       5.548   5.256  15.594  0.00  0.00    +0.000 A 
ATOM     28  C   UNL     1       5.200   6.570  15.922  0.00  0.00    +0.000 A 
ATOM     29  C   UNL     1       4.248   6.861  16.926  0.00  0.00    +0.000 A 
BRANCH  27  30
ATOM     30  C   UNL     1       6.616   4.906  14.612  0.00  0.00    +0.000 C 
ATOM     31  O   UNL     1       7.744   5.378  14.794  0.00  0.00    +0.000 OA
BRANCH  30  32
ATOM     32  C   UNL     1       6.254   4.054  13.402  0.00  0.00    +0.000 C 
ATOM     33  F   UNL     1       6.416   2.713  13.583  0.00  0.00    +0.000 F 
ATOM     34  F   UNL     1       4.952   4.214  13.032  0.00  0.00    +0.000 F 
ATOM     35  F   UNL     1       7.005   4.373  12.311  0.00  0.00    +0.000 F 
ENDBRANCH  30  32
ENDBRANCH  27  30
ENDBRANCH   2  24
TORSDOF 4
ENDMDL
MODEL 5
REMARK VINA RESULT:      -9.1      1.265      1.880
REMARK  Name = 
REMARK  4 active torsions:
REMARK  status: ('A' for Active; 'I' for Inactive)
REMARK    1  A    between atoms: C_2  and  C_3
REMARK    2  A    between atoms: C_6  and  C_7
REMARK    3  A    between atoms: C_7  and  C_9
REMARK    4  A    between atoms: C_22  and  C_23
REMARK                            x       y       z     vdW  Elec       q    Type
REMARK                         _______ _______ _______ _____ _____    ______ ____
ROOT
ATOM      1  O   UNL     1       2.820   3.510  18.622  0.00  0.00    +0.000 OA
ATOM      2  C   UNL     1       3.132   4.640  18.206  0.00  0.00    +0.000 C 
ATOM      3  N   UNL     1       2.525   5.770  18.823  0.00  0.00    +0.000 N 
ATOM      4  C   UNL     1       1.800   5.239  20.049  0.00  0.00    +0.000 C 
ATOM      5  C   UNL     1       1.475   6.503  20.649  0.00  0.00    +0.000 C 
ATOM      6  O   UNL     1       0.885   7.301  21.556  0.00  0.00    +0.000 OA
ATOM      7  C   UNL     1       1.095   8.524  20.848  0.00  0.00    +0.000 A 
ATOM      8  C   UNL     1       0.522   9.561  21.572  0.00  0.00    +0.000 A 
ATOM      9  C   UNL     1       0.524  10.838  21.047  0.00  0.00    +0.000 A 
ATOM     10  C   UNL     1       1.125  11.144  19.810  0.00  0.00    +0.000 A 
ATOM     11  C   UNL     1       1.713  10.061  19.043  0.00  0.00    +0.000 A 
ATOM     12  C   UNL     1       1.743   8.696  19.520  0.00  0.00    +0.000 A 
ATOM     13  C   UNL     1       2.551   7.461  18.562  0.00  0.00    +0.000 C 
ENDROOT
BRANCH  10  14
ATOM     14  C   UNL     1       1.117  12.608  19.458  0.00  0.00    +0.000 A 
ATOM     15  C   UNL     1       2.182  13.258  18.813  0.00  0.00    +0.000 A 
ATOM     16  C   UNL     1       2.102  14.619  18.401  0.00  0.00    +0.000 A 
ATOM     17  C   UNL     1       0.921  15.348  18.625  0.00  0.00    +0.000 A 
ATOM     18  C   UNL     1       0.451  16.661  18.381  0.00  0.00    +0.000 A 
ATOM     19  N   UNL     1      -0.810  16.841  18.782  0.00  0.00    +0.000 NA
ATOM     20  N   UNL     1      -1.153  15.638  19.282  0.00  0.00    +0.000 N 
ATOM     21  C   UNL     1      -0.148  14.702  19.230  0.00  0.00    +0.000 A 
ATOM     22  C   UNL     1      -0.080  13.364  19.648  0.00  0.00    +0.000 A 
ATOM     23  H   UNL     1      -2.093  15.523  19.646  0.00  0.00    +0.000 HD
ENDBRANCH  10  14
BRANCH   2  24
ATOM     24  C   UNL     1       4.180   4.581  17.154  0.00  0.00    +0.000 A 
ATOM     25  C   UNL     1       4.565   5.827  16.574  0.00  0.00    +0.000 A 
ATOM     26  C   UNL     1       5.491   5.911  15.530  0.00  0.00    +0.000 A 
ATOM     27  C   UNL     1       6.061   4.745  15.029  0.00  0.00    +0.000 A 
ATOM     28  C   UNL     1       5.754   3.527  15.644  0.00  0.00    +0.000 A 
ATOM     29  C   UNL     1       4.812   3.438  16.693  0.00  0.00    +0.000 A 
BRANCH  27  30
ATOM     30  C   UNL     1       6.975   4.869  13.855  0.00  0.00    +0.000 C 
ATOM     31  O   UNL     1       7.949   5.624  13.960  0.00  0.00    +0.000 OA
BRANCH  30  32
ATOM     32  C   UNL     1       6.630   4.128  12.570  0.00  0.00    +0.000 C 
ATOM     33  F   UNL     1       7.148   4.682  11.438  0.00  0.00    +0.000 F 
ATOM     34  F   UNL     1       7.081   2.842  12.581  0.00  0.00    +0.000 F 
ATOM     35  F   UNL     1       5.285   4.061  12.366  0.00  0.00    +0.000 F 
ENDBRANCH  30  32
ENDBRANCH  27  30
ENDBRANCH   2  24
TORSDOF 4
ENDMDL
MODEL 6
REMARK VINA RESULT:      -9.1      1.381      1.776
REMARK  Name = 
REMARK  4 active torsions:
REMARK  status: ('A' for Active; 'I' for Inactive)
REMARK    1  A    between atoms: C_2  and  C_3
REMARK    2  A    between atoms: C_6  and  C_7
REMARK    3  A    between atoms: C_7  and  C_9
REMARK    4  A    between atoms: C_22  and  C_23
REMARK                            x       y       z     vdW  Elec       q    Type
REMARK                         _______ _______ _______ _____ _____    ______ ____
ROOT
ATOM      1  O   UNL     1       2.995   4.071  18.741  0.00  0.00    +0.000 OA
ATOM      2  C   UNL     1       3.138   5.217  18.278  0.00  0.00    +0.000 C 
ATOM      3  N   UNL     1       2.491   6.293  18.949  0.00  0.00    +0.000 N 
ATOM      4  C   UNL     1       1.969   5.720  20.256  0.00  0.00    +0.000 C 
ATOM      5  C   UNL     1       1.586   6.958  20.875  0.00  0.00    +0.000 C 
ATOM      6  O   UNL     1       1.023   7.713  21.835  0.00  0.00    +0.000 OA
ATOM      7  C   UNL     1       1.022   8.934  21.094  0.00  0.00    +0.000 A 
ATOM      8  C   UNL     1       0.431   9.923  21.867  0.00  0.00    +0.000 A 
ATOM      9  C   UNL     1       0.240  11.181  21.331  0.00  0.00    +0.000 A 
ATOM     10  C   UNL     1       0.661  11.518  20.029  0.00  0.00    +0.000 A 
ATOM     11  C   UNL     1       1.268  10.483  19.212  0.00  0.00    +0.000 A 
ATOM     12  C   UNL     1       1.493   9.140  19.697  0.00  0.00    +0.000 A 
ATOM     13  C   UNL     1       2.311   7.972  18.667  0.00  0.00    +0.000 C 
ENDROOT
BRANCH  10  14
ATOM     14  C   UNL     1       0.461  12.965  19.663  0.00  0.00    +0.000 A 
ATOM     15  C   UNL     1       1.268  13.652  18.742  0.00  0.00    +0.000 A 
ATOM     16  C   UNL     1       0.990  14.990  18.340  0.00  0.00    +0.000 A 
ATOM     17  C   UNL     1      -0.134  15.656  18.861  0.00  0.00    +0.000 A 
ATOM     18  C   UNL     1      -0.738  16.929  18.728  0.00  0.00    +0.000 A 
ATOM     19  N   UNL     1      -1.855  17.049  19.451  0.00  0.00    +0.000 NA
ATOM     20  N   UNL     1      -1.969  15.848  20.049  0.00  0.00    +0.000 N 
ATOM     21  C   UNL     1      -0.955  14.971  19.745  0.00  0.00    +0.000 A 
ATOM     22  C   UNL     1      -0.688  13.655  20.155  0.00  0.00    +0.000 A 
ATOM     23  H   UNL     1      -2.767  15.690  20.655  0.00  0.00    +0.000 HD
ENDBRANCH  10  14
BRANCH   2  24
ATOM     24  C   UNL     1       4.060   5.240  17.113  0.00  0.00    +0.000 A 
ATOM     25  C   UNL     1       4.473   3.971  16.608  0.00  0.00    +0.000 A 
ATOM     26  C   UNL     1       5.388   3.846  15.558  0.00  0.00    +0.000 A 
ATOM     27  C   UNL     1       5.923   4.993  14.980  0.00  0.00    +0.000 A 
ATOM     28  C   UNL     1       5.463   6.242  15.411  0.00  0.00    +0.000 A 
ATOM     29  C   UNL     1       4.545   6.371  16.478  0.00  0.00    +0.000 A 
BRANCH  27  30
ATOM     30  C   UNL     1       6.963   4.816  13.925  0.00  0.00    +0.000 C 
ATOM     31  O   UNL     1       8.067   5.343  14.109  0.00  0.00    +0.000 OA
BRANCH  30  32
ATOM     32  C   UNL     1       6.600   4.067  12.650  0.00  0.00    +0.000 C 
ATOM     33  F   UNL     1       6.839   2.725  12.692  0.00  0.00    +0.000 F 
ATOM     34  F   UNL     1       5.278   4.187  12.341  0.00  0.00    +0.000 F 
ATOM     35  F   UNL     1       7.290   4.531  11.571  0.00  0.00    +0.000 F 
ENDBRANCH  30  32
ENDBRANCH  27  30
ENDBRANCH   2  24
TORSDOF 4
ENDMDL
MODEL 7
REMARK VINA RESULT:      -9.0      1.449      2.033
REMARK  Name = 
REMARK  4 active torsions:
REMARK  status: ('A' for Active; 'I' for Inactive)
REMARK    1  A    between atoms: C_2  and  C_3
REMARK    2  A    between atoms: C_6  and  C_7
REMARK    3  A    between atoms: C_7  and  C_9
REMARK    4  A    between atoms: C_22  and  C_23
REMARK                            x       y       z     vdW  Elec       q    Type
REMARK                         _______ _______ _______ _____ _____    ______ ____
ROOT
ATOM      1  O   UNL     1       1.876   5.458  20.428  0.00  0.00    +0.000 OA
ATOM      2  C   UNL     1       2.307   6.483  19.871  0.00  0.00    +0.000 C 
ATOM      3  N   UNL     1       1.695   7.727  20.196  0.00  0.00    +0.000 N 
ATOM      4  C   UNL     1       0.787   7.450  21.383  0.00  0.00    +0.000 C 
ATOM      5  C   UNL     1       0.465   8.812  21.707  0.00  0.00    +0.000 C 
ATOM      6  O   UNL     1      -0.188   9.780  22.373  0.00  0.00    +0.000 OA
ATOM      7  C   UNL     1       0.185  10.848  21.502  0.00  0.00    +0.000 A 
ATOM      8  C   UNL     1      -0.413  12.018  21.951  0.00  0.00    +0.000 A 
ATOM      9  C   UNL     1      -0.266  13.180  21.220  0.00  0.00    +0.000 A 
ATOM     10  C   UNL     1       0.507  13.239  20.044  0.00  0.00    +0.000 A 
ATOM     11  C   UNL     1       1.123  12.015  19.563  0.00  0.00    +0.000 A 
ATOM     12  C   UNL     1       1.008  10.757  20.265  0.00  0.00    +0.000 A 
ATOM     13  C   UNL     1       1.857   9.342  19.654  0.00  0.00    +0.000 C 
ENDROOT
BRANCH  10  14
ATOM     14  C   UNL     1       0.634  14.616  19.448  0.00  0.00    +0.000 A 
ATOM     15  C   UNL     1       1.846  15.156  18.990  0.00  0.00    +0.000 A 
ATOM     16  C   UNL     1       1.915  16.420  18.337  0.00  0.00    +0.000 A 
ATOM     17  C   UNL     1       0.739  17.159  18.122  0.00  0.00    +0.000 A 
ATOM     18  C   UNL     1       0.386  18.400  17.539  0.00  0.00    +0.000 A 
ATOM     19  N   UNL     1      -0.930  18.629  17.568  0.00  0.00    +0.000 NA
ATOM     20  N   UNL     1      -1.424  17.531  18.170  0.00  0.00    +0.000 N 
ATOM     21  C   UNL     1      -0.468  16.616  18.541  0.00  0.00    +0.000 A 
ATOM     22  C   UNL     1      -0.548  15.375  19.192  0.00  0.00    +0.000 A 
ATOM     23  H   UNL     1      -2.429  17.468  18.297  0.00  0.00    +0.000 HD
ENDBRANCH  10  14
BRANCH   2  24
ATOM     24  C   UNL     1       3.476   6.199  18.998  0.00  0.00    +0.000 A 
ATOM     25  C   UNL     1       3.532   6.913  17.765  0.00  0.00    +0.000 A 
ATOM     26  C   UNL     1       4.541   6.696  16.821  0.00  0.00    +0.000 A 
ATOM     27  C   UNL     1       5.527   5.750  17.083  0.00  0.00    +0.000 A 
ATOM     28  C   UNL     1       5.528   5.104  18.323  0.00  0.00    +0.000 A 
ATOM     29  C   UNL     1       4.505   5.315  19.275  0.00  0.00    +0.000 A 
BRANCH  27  30
ATOM     30  C   UNL     1       6.533   5.483  16.012  0.00  0.00    +0.000 C 
ATOM     31  O   UNL     1       7.570   6.156  16.015  0.00  0.00    +0.000 OA
BRANCH  30  32
ATOM     32  C   UNL     1       6.206   4.458  14.934  0.00  0.00    +0.000 C 
ATOM     33  F   UNL     1       4.988   4.622  14.344  0.00  0.00    +0.000 F 
ATOM     34  F   UNL     1       7.108   4.482  13.911  0.00  0.00    +0.000 F 
ATOM     35  F   UNL     1       6.212   3.186  15.420  0.00  0.00    +0.000 F 
ENDBRANCH  30  32
ENDBRANCH  27  30
ENDBRANCH   2  24
TORSDOF 4
ENDMDL
MODEL 8
REMARK VINA RESULT:      -9.0      1.095      1.425
REMARK  Name = 
REMARK  4 active torsions:
REMARK  status: ('A' for Active; 'I' for Inactive)
REMARK    1  A    between atoms: C_2  and  C_3
REMARK    2  A    between atoms: C_6  and  C_7
REMARK    3  A    between atoms: C_7  and  C_9
REMARK    4  A    between atoms: C_22  and  C_23
REMARK                            x       y       z     vdW  Elec       q    Type
REMARK                         _______ _______ _______ _____ _____    ______ ____
ROOT
ATOM      1  O   UNL     1       3.475   3.724  18.361  0.00  0.00    +0.000 OA
ATOM      2  C   UNL     1       3.533   4.890  17.930  0.00  0.00    +0.000 C 
ATOM      3  N   UNL     1       2.817   5.898  18.636  0.00  0.00    +0.000 N 
ATOM      4  C   UNL     1       2.349   5.253  19.930  0.00  0.00    +0.000 C 
ATOM      5  C   UNL     1       1.884   6.442  20.587  0.00  0.00    +0.000 C 
ATOM      6  O   UNL     1       1.278   7.127  21.572  0.00  0.00    +0.000 OA
ATOM      7  C   UNL     1       1.184   8.365  20.866  0.00  0.00    +0.000 A 
ATOM      8  C   UNL     1       0.530   9.288  21.672  0.00  0.00    +0.000 A 
ATOM      9  C   UNL     1       0.245  10.544  21.173  0.00  0.00    +0.000 A 
ATOM     10  C   UNL     1       0.629  10.947  19.879  0.00  0.00    +0.000 A 
ATOM     11  C   UNL     1       1.301   9.980  19.028  0.00  0.00    +0.000 A 
ATOM     12  C   UNL     1       1.626   8.644  19.473  0.00  0.00    +0.000 A 
ATOM     13  C   UNL     1       2.515   7.567  18.403  0.00  0.00    +0.000 C 
ENDROOT
BRANCH  10  14
ATOM     14  C   UNL     1       0.324  12.385  19.556  0.00  0.00    +0.000 A 
ATOM     15  C   UNL     1      -0.902  13.004  19.849  0.00  0.00    +0.000 A 
ATOM     16  C   UNL     1      -1.124  14.393  19.626  0.00  0.00    +0.000 A 
ATOM     17  C   UNL     1      -0.088  15.190  19.109  0.00  0.00    +0.000 A 
ATOM     18  C   UNL     1       0.097  16.549  18.757  0.00  0.00    +0.000 A 
ATOM     19  N   UNL     1       1.334  16.806  18.322  0.00  0.00    +0.000 NA
ATOM     20  N   UNL     1       1.946  15.609  18.398  0.00  0.00    +0.000 N 
ATOM     21  C   UNL     1       1.138  14.593  18.851  0.00  0.00    +0.000 A 
ATOM     22  C   UNL     1       1.367  13.224  19.059  0.00  0.00    +0.000 A 
ATOM     23  H   UNL     1       2.922  15.553  18.125  0.00  0.00    +0.000 HD
ENDBRANCH  10  14
BRANCH   2  24
ATOM     24  C   UNL     1       4.439   5.012  16.759  0.00  0.00    +0.000 A 
ATOM     25  C   UNL     1       4.935   3.790  16.214  0.00  0.00    +0.000 A 
ATOM     26  C   UNL     1       5.847   3.760  15.154  0.00  0.00    +0.000 A 
ATOM     27  C   UNL     1       6.295   4.959  14.606  0.00  0.00    +0.000 A 
ATOM     28  C   UNL     1       5.753   6.159  15.077  0.00  0.00    +0.000 A 
ATOM     29  C   UNL     1       4.839   6.192  16.155  0.00  0.00    +0.000 A 
BRANCH  27  30
ATOM     30  C   UNL     1       7.335   4.886  13.538  0.00  0.00    +0.000 C 
ATOM     31  O   UNL     1       8.419   5.443  13.750  0.00  0.00    +0.000 OA
BRANCH  30  32
ATOM     32  C   UNL     1       6.993   4.201  12.222  0.00  0.00    +0.000 C 
ATOM     33  F   UNL     1       7.304   4.924  11.108  0.00  0.00    +0.000 F 
ATOM     34  F   UNL     1       7.646   3.014  12.075  0.00  0.00    +0.000 F 
ATOM     35  F   UNL     1       5.664   3.923  12.122  0.00  0.00    +0.000 F 
ENDBRANCH  30  32
ENDBRANCH  27  30
ENDBRANCH   2  24
TORSDOF 4
ENDMDL
MODEL 9
REMARK VINA RESULT:      -9.0      0.619      1.218
REMARK  Name = 
REMARK  4 active torsions:
REMARK  status: ('A' for Active; 'I' for Inactive)
REMARK    1  A    between atoms: C_2  and  C_3
REMARK    2  A    between atoms: C_6  and  C_7
REMARK    3  A    between atoms: C_7  and  C_9
REMARK    4  A    between atoms: C_22  and  C_23
REMARK                            x       y       z     vdW  Elec       q    Type
REMARK                         _______ _______ _______ _____ _____    ______ ____
ROOT
ATOM      1  O   UNL     1       2.124   4.627  19.842  0.00  0.00    +0.000 OA
ATOM      2  C   UNL     1       2.484   5.659  19.247  0.00  0.00    +0.000 C 
ATOM      3  N   UNL     1       1.911   6.898  19.653  0.00  0.00    +0.000 N 
ATOM      4  C   UNL     1       1.150   6.607  20.936  0.00  0.00    +0.000 C 
ATOM      5  C   UNL     1       0.865   7.965  21.308  0.00  0.00    +0.000 C 
ATOM      6  O   UNL     1       0.292   8.925  22.055  0.00  0.00    +0.000 OA
ATOM      7  C   UNL     1       0.558  10.002  21.155  0.00  0.00    +0.000 A 
ATOM      8  C   UNL     1       0.014  11.166  21.682  0.00  0.00    +0.000 A 
ATOM      9  C   UNL     1       0.071  12.335  20.949  0.00  0.00    +0.000 A 
ATOM     10  C   UNL     1       0.700  12.406  19.691  0.00  0.00    +0.000 A 
ATOM     11  C   UNL     1       1.258  11.189  19.130  0.00  0.00    +0.000 A 
ATOM     12  C   UNL     1       1.230   9.925  19.830  0.00  0.00    +0.000 A 
ATOM     13  C   UNL     1       2.004   8.518  19.111  0.00  0.00    +0.000 C 
ENDROOT
BRANCH  10  14
ATOM     14  C   UNL     1       0.753  13.789  19.097  0.00  0.00    +0.000 A 
ATOM     15  C   UNL     1      -0.324  14.689  19.127  0.00  0.00    +0.000 A 
ATOM     16  C   UNL     1      -0.210  16.026  18.648  0.00  0.00    +0.000 A 
ATOM     17  C   UNL     1       1.019  16.482  18.140  0.00  0.00    +0.000 A 
ATOM     18  C   UNL     1       1.532  17.681  17.591  0.00  0.00    +0.000 A 
ATOM     19  N   UNL     1       2.828  17.593  17.278  0.00  0.00    +0.000 NA
ATOM     20  N   UNL     1       3.148  16.333  17.629  0.00  0.00    +0.000 N 
ATOM     21  C   UNL     1       2.098  15.609  18.140  0.00  0.00    +0.000 A 
ATOM     22  C   UNL     1       1.996  14.287  18.602  0.00  0.00    +0.000 A 
ATOM     23  H   UNL     1       4.106  16.029  17.493  0.00  0.00    +0.000 HD
ENDBRANCH  10  14
BRANCH   2  24
ATOM     24  C   UNL     1       3.543   5.386  18.241  0.00  0.00    +0.000 A 
ATOM     25  C   UNL     1       4.266   6.519  17.762  0.00  0.00    +0.000 A 
ATOM     26  C   UNL     1       5.245   6.416  16.768  0.00  0.00    +0.000 A 
ATOM     27  C   UNL     1       5.528   5.169  16.218  0.00  0.00    +0.000 A 
ATOM     28  C   UNL     1       4.884   4.042  16.737  0.00  0.00    +0.000 A 
ATOM     29  C   UNL     1       3.889   4.145  17.736  0.00  0.00    +0.000 A 
BRANCH  27  30
ATOM     30  C   UNL     1       6.512   5.114  15.097  0.00  0.00    +0.000 C 
ATOM     31  O   UNL     1       7.537   5.799  15.196  0.00  0.00    +0.000 OA
BRANCH  30  32
ATOM     32  C   UNL     1       6.178   4.287  13.863  0.00  0.00    +0.000 C 
ATOM     33  F   UNL     1       4.875   4.357  13.467  0.00  0.00    +0.000 F 
ATOM     34  F   UNL     1       6.906   4.669  12.775  0.00  0.00    +0.000 F 
ATOM     35  F   UNL     1       6.436   2.963  14.051  0.00  0.00    +0.000 F 
ENDBRANCH  30  32
ENDBRANCH  27  30
ENDBRANCH   2  24
TORSDOF 4
ENDMDL
