MODEL 1
REMARK VINA RESULT:      -5.9      0.000      0.000
REMARK  Name = 
REMARK  7 active torsions:
REMARK  status: ('A' for Active; 'I' for Inactive)
REMARK    1  A    between atoms: C_1  and  C_2
REMARK    2  A    between atoms: C_2  and  O_3
REMARK    3  A    between atoms: O_3  and  C_4
REMARK    4  A    between atoms: C_6  and  O_7
REMARK    5  A    between atoms: O_7  and  C_8
REMARK    6  A    between atoms: C_12  and  C_13
REMARK    7  A    between atoms: C_13  and  C_14
REMARK                            x       y       z     vdW  Elec       q    Type
REMARK                         _______ _______ _______ _____ _____    ______ ____
ROOT
ATOM      1  C   UNL     1       4.164   4.984  18.423  0.00  0.00    +0.000 A 
ATOM      2  C   UNL     1       5.023   6.019  18.024  0.00  0.00    +0.000 A 
ATOM      3  C   UNL     1       5.728   6.005  16.805  0.00  0.00    +0.000 A 
ATOM      4  C   UNL     1       5.559   4.911  15.954  0.00  0.00    +0.000 A 
ATOM      5 BR   UNL     1       6.418   4.636  14.284  0.00  0.00    +0.000 Br
ATOM      6  C   UNL     1       4.682   3.879  16.331  0.00  0.00    +0.000 A 
ATOM      7  C   UNL     1       3.972   3.914  17.542  0.00  0.00    +0.000 A 
ENDROOT
BRANCH   7   8
ATOM      8  C   UNL     1       3.070   2.756  17.816  0.00  0.00    +0.000 C 
ATOM      9  C   UNL     1       3.590   1.513  18.491  0.00  0.00    +0.000 C 
ATOM     10  O   UNL     1       1.873   2.858  17.536  0.00  0.00    +0.000 OA
ENDBRANCH   7   8
BRANCH   3  11
ATOM     11  O   UNL     1       6.485   7.135  16.692  0.00  0.00    +0.000 OA
ATOM     12  C   UNL     1       7.582   7.393  17.546  0.00  0.00    +0.000 C 
ENDBRANCH   3  11
BRANCH   1  13
ATOM     13  O   UNL     1       3.534   4.950  19.638  0.00  0.00    +0.000 OA
BRANCH  13  15
ATOM     14  C   UNL     1       1.312   4.786  20.508  0.00  0.00    +0.000 C 
ATOM     15  C   UNL     1       2.301   5.660  19.759  0.00  0.00    +0.000 C 
ENDBRANCH  13  15
ENDBRANCH   1  13
TORSDOF 4
ENDMDL
MODEL 2
REMARK VINA RESULT:      -5.9      2.638      5.497
REMARK  Name = 
REMARK  7 active torsions:
REMARK  status: ('A' for Active; 'I' for Inactive)
REMARK    1  A    between atoms: C_1  and  C_2
REMARK    2  A    between atoms: C_2  and  O_3
REMARK    3  A    between atoms: O_3  and  C_4
REMARK    4  A    between atoms: C_6  and  O_7
REMARK    5  A    between atoms: O_7  and  C_8
REMARK    6  A    between atoms: C_12  and  C_13
REMARK    7  A    between atoms: C_13  and  C_14
REMARK                            x       y       z     vdW  Elec       q    Type
REMARK                         _______ _______ _______ _____ _____    ______ ____
ROOT
ATOM      1  C   UNL     1       4.933   4.064  17.007  0.00  0.00    +0.000 A 
ATOM      2  C   UNL     1       3.600   3.630  17.022  0.00  0.00    +0.000 A 
ATOM      3  C   UNL     1       2.687   3.984  18.035  0.00  0.00    +0.000 A 
ATOM      4  C   UNL     1       3.134   4.808  19.070  0.00  0.00    +0.000 A 
ATOM      5 BR   UNL     1       2.120   5.394  20.564  0.00  0.00    +0.000 Br
ATOM      6  C   UNL     1       4.462   5.270  19.054  0.00  0.00    +0.000 A 
ATOM      7  C   UNL     1       5.355   4.923  18.028  0.00  0.00    +0.000 A 
ENDROOT
BRANCH   7   8
ATOM      8  C   UNL     1       6.734   5.487  18.129  0.00  0.00    +0.000 C 
ATOM      9  C   UNL     1       7.060   6.841  17.554  0.00  0.00    +0.000 C 
ATOM     10  O   UNL     1       7.590   4.852  18.749  0.00  0.00    +0.000 OA
ENDBRANCH   7   8
BRANCH   3  11
ATOM     11  O   UNL     1       1.472   3.412  17.789  0.00  0.00    +0.000 OA
ATOM     12  C   UNL     1       0.913   2.438  18.647  0.00  0.00    +0.000 C 
ENDBRANCH   3  11
BRANCH   1  13
ATOM     13  O   UNL     1       5.848   3.665  16.070  0.00  0.00    +0.000 OA
BRANCH  13  15
ATOM     14  C   UNL     1       6.958   4.871  14.329  0.00  0.00    +0.000 C 
ATOM     15  C   UNL     1       5.684   4.157  14.740  0.00  0.00    +0.000 C 
ENDBRANCH  13  15
ENDBRANCH   1  13
TORSDOF 4
ENDMDL
MODEL 3
REMARK VINA RESULT:      -5.9      2.096      4.606
REMARK  Name = 
REMARK  7 active torsions:
REMARK  status: ('A' for Active; 'I' for Inactive)
REMARK    1  A    between atoms: C_1  and  C_2
REMARK    2  A    between atoms: C_2  and  O_3
REMARK    3  A    between atoms: O_3  and  C_4
REMARK    4  A    between atoms: C_6  and  O_7
REMARK    5  A    between atoms: O_7  and  C_8
REMARK    6  A    between atoms: C_12  and  C_13
REMARK    7  A    between atoms: C_13  and  C_14
REMARK                            x       y       z     vdW  Elec       q    Type
REMARK                         _______ _______ _______ _____ _____    ______ ____
ROOT
ATOM      1  C   UNL     1       5.384   6.147  16.880  0.00  0.00    +0.000 A 
ATOM      2  C   UNL     1       4.325   6.454  17.747  0.00  0.00    +0.000 A 
ATOM      3  C   UNL     1       3.319   5.530  18.089  0.00  0.00    +0.000 A 
ATOM      4  C   UNL     1       3.383   4.248  17.540  0.00  0.00    +0.000 A 
ATOM      5 BR   UNL     1       2.138   2.840  17.812  0.00  0.00    +0.000 Br
ATOM      6  C   UNL     1       4.453   3.919  16.689  0.00  0.00    +0.000 A 
ATOM      7  C   UNL     1       5.459   4.846  16.371  0.00  0.00    +0.000 A 
ENDROOT
BRANCH   7   8
ATOM      8  C   UNL     1       6.540   4.364  15.461  0.00  0.00    +0.000 C 
ATOM      9  C   UNL     1       6.228   3.926  14.053  0.00  0.00    +0.000 C 
ATOM     10  O   UNL     1       7.706   4.389  15.861  0.00  0.00    +0.000 OA
ENDBRANCH   7   8
BRANCH   3  11
ATOM     11  O   UNL     1       2.423   6.110  18.941  0.00  0.00    +0.000 OA
ATOM     12  C   UNL     1       2.221   5.635  20.256  0.00  0.00    +0.000 C 
ENDBRANCH   3  11
BRANCH   1  13
ATOM     13  O   UNL     1       6.324   7.059  16.480  0.00  0.00    +0.000 OA
BRANCH  13  15
ATOM     14  C   UNL     1       7.796   6.695  18.330  0.00  0.00    +0.000 C 
ATOM     15  C   UNL     1       7.061   7.733  17.501  0.00  0.00    +0.000 C 
ENDBRANCH  13  15
ENDBRANCH   1  13
TORSDOF 4
ENDMDL
MODEL 4
REMARK VINA RESULT:      -5.8      2.086      2.767
REMARK  Name = 
REMARK  7 active torsions:
REMARK  status: ('A' for Active; 'I' for Inactive)
REMARK    1  A    between atoms: C_1  and  C_2
REMARK    2  A    between atoms: C_2  and  O_3
REMARK    3  A    between atoms: O_3  and  C_4
REMARK    4  A    between atoms: C_6  and  O_7
REMARK    5  A    between atoms: O_7  and  C_8
REMARK    6  A    between atoms: C_12  and  C_13
REMARK    7  A    between atoms: C_13  and  C_14
REMARK                            x       y       z     vdW  Elec       q    Type
REMARK                         _______ _______ _______ _____ _____    ______ ____
ROOT
ATOM      1  C   UNL     1       2.666   4.594  18.785  0.00  0.00    +0.000 A 
ATOM      2  C   UNL     1       2.584   5.919  18.332  0.00  0.00    +0.000 A 
ATOM      3  C   UNL     1       3.700   6.643  17.871  0.00  0.00    +0.000 A 
ATOM      4  C   UNL     1       4.945   6.009  17.863  0.00  0.00    +0.000 A 
ATOM      5 BR   UNL     1       6.598   6.775  17.330  0.00  0.00    +0.000 Br
ATOM      6  C   UNL     1       5.036   4.674  18.292  0.00  0.00    +0.000 A 
ATOM      7  C   UNL     1       3.911   3.958  18.732  0.00  0.00    +0.000 A 
ENDROOT
BRANCH   7   8
ATOM      8  C   UNL     1       4.147   2.545  19.153  0.00  0.00    +0.000 C 
ATOM      9  C   UNL     1       3.599   1.396  18.347  0.00  0.00    +0.000 C 
ATOM     10  O   UNL     1       4.853   2.331  20.141  0.00  0.00    +0.000 OA
ENDBRANCH   7   8
BRANCH   3  11
ATOM     11  O   UNL     1       3.320   7.902  17.503  0.00  0.00    +0.000 OA
ATOM     12  C   UNL     1       2.086   8.462  17.908  0.00  0.00    +0.000 C 
ENDBRANCH   3  11
BRANCH   1  13
ATOM     13  O   UNL     1       1.603   3.906  19.306  0.00  0.00    +0.000 OA
BRANCH  13  15
ATOM     14  C   UNL     1       1.344   2.834  21.429  0.00  0.00    +0.000 C 
ATOM     15  C   UNL     1       1.270   4.149  20.673  0.00  0.00    +0.000 C 
ENDBRANCH  13  15
ENDBRANCH   1  13
TORSDOF 4
ENDMDL
MODEL 5
REMARK VINA RESULT:      -5.7      1.848      2.000
REMARK  Name = 
REMARK  7 active torsions:
REMARK  status: ('A' for Active; 'I' for Inactive)
REMARK    1  A    between atoms: C_1  and  C_2
REMARK    2  A    between atoms: C_2  and  O_3
REMARK    3  A    between atoms: O_3  and  C_4
REMARK    4  A    between atoms: C_6  and  O_7
REMARK    5  A    between atoms: O_7  and  C_8
REMARK    6  A    between atoms: C_12  and  C_13
REMARK    7  A    between atoms: C_13  and  C_14
REMARK                            x       y       z     vdW  Elec       q    Type
REMARK                         _______ _______ _______ _____ _____    ______ ____
ROOT
ATOM      1  C   UNL     1       3.818   4.132  19.229  0.00  0.00    +0.000 A 
ATOM      2  C   UNL     1       5.193   4.406  19.229  0.00  0.00    +0.000 A 
ATOM      3  C   UNL     1       5.977   4.403  18.058  0.00  0.00    +0.000 A 
ATOM      4  C   UNL     1       5.351   4.117  16.843  0.00  0.00    +0.000 A 
ATOM      5 BR   UNL     1       6.185   4.014  15.141  0.00  0.00    +0.000 Br
ATOM      6  C   UNL     1       3.969   3.864  16.827  0.00  0.00    +0.000 A 
ATOM      7  C   UNL     1       3.197   3.888  18.000  0.00  0.00    +0.000 A 
ENDROOT
BRANCH   7   8
ATOM      8  C   UNL     1       1.739   3.609  17.840  0.00  0.00    +0.000 C 
ATOM      9  C   UNL     1       1.131   2.338  18.375  0.00  0.00    +0.000 C 
ATOM     10  O   UNL     1       1.025   4.466  17.315  0.00  0.00    +0.000 OA
ENDBRANCH   7   8
BRANCH   3  11
ATOM     11  O   UNL     1       7.274   4.697  18.365  0.00  0.00    +0.000 OA
ATOM     12  C   UNL     1       7.619   5.755  19.236  0.00  0.00    +0.000 C 
ENDBRANCH   3  11
BRANCH   1  13
ATOM     13  O   UNL     1       3.062   4.056  20.369  0.00  0.00    +0.000 OA
BRANCH  13  15
ATOM     14  C   UNL     1       1.790   2.665  21.842  0.00  0.00    +0.000 C 
ATOM     15  C   UNL     1       3.108   2.834  21.107  0.00  0.00    +0.000 C 
ENDBRANCH  13  15
ENDBRANCH   1  13
TORSDOF 4
ENDMDL
MODEL 6
REMARK VINA RESULT:      -5.7      2.337      5.488
REMARK  Name = 
REMARK  7 active torsions:
REMARK  status: ('A' for Active; 'I' for Inactive)
REMARK    1  A    between atoms: C_1  and  C_2
REMARK    2  A    between atoms: C_2  and  O_3
REMARK    3  A    between atoms: O_3  and  C_4
REMARK    4  A    between atoms: C_6  and  O_7
REMARK    5  A    between atoms: O_7  and  C_8
REMARK    6  A    between atoms: C_12  and  C_13
REMARK    7  A    between atoms: C_13  and  C_14
REMARK                            x       y       z     vdW  Elec       q    Type
REMARK                         _______ _______ _______ _____ _____    ______ ____
ROOT
ATOM      1  C   UNL     1       5.519   4.622  16.609  0.00  0.00    +0.000 A 
ATOM      2  C   UNL     1       4.306   3.918  16.601  0.00  0.00    +0.000 A 
ATOM      3  C   UNL     1       3.260   4.180  17.508  0.00  0.00    +0.000 A 
ATOM      4  C   UNL     1       3.442   5.190  18.456  0.00  0.00    +0.000 A 
ATOM      5 BR   UNL     1       2.210   5.708  19.804  0.00  0.00    +0.000 Br
ATOM      6  C   UNL     1       4.644   5.919  18.458  0.00  0.00    +0.000 A 
ATOM      7  C   UNL     1       5.671   5.658  17.536  0.00  0.00    +0.000 A 
ENDROOT
BRANCH   7   8
ATOM      8  C   UNL     1       6.892   6.511  17.645  0.00  0.00    +0.000 C 
ATOM      9  C   UNL     1       7.885   6.301  18.759  0.00  0.00    +0.000 C 
ATOM     10  O   UNL     1       7.107   7.352  16.769  0.00  0.00    +0.000 OA
ENDBRANCH   7   8
BRANCH   3  11
ATOM     11  O   UNL     1       2.212   3.339  17.267  0.00  0.00    +0.000 OA
ATOM     12  C   UNL     1       1.864   2.298  18.157  0.00  0.00    +0.000 C 
ENDBRANCH   3  11
BRANCH   1  13
ATOM     13  O   UNL     1       6.570   4.325  15.783  0.00  0.00    +0.000 OA
BRANCH  13  15
ATOM     14  C   UNL     1       6.124   3.787  13.496  0.00  0.00    +0.000 C 
ATOM     15  C   UNL     1       6.547   4.875  14.466  0.00  0.00    +0.000 C 
ENDBRANCH  13  15
ENDBRANCH   1  13
TORSDOF 4
ENDMDL
MODEL 7
REMARK VINA RESULT:      -5.7      1.586      1.837
REMARK  Name = 
REMARK  7 active torsions:
REMARK  status: ('A' for Active; 'I' for Inactive)
REMARK    1  A    between atoms: C_1  and  C_2
REMARK    2  A    between atoms: C_2  and  O_3
REMARK    3  A    between atoms: O_3  and  C_4
REMARK    4  A    between atoms: C_6  and  O_7
REMARK    5  A    between atoms: O_7  and  C_8
REMARK    6  A    between atoms: C_12  and  C_13
REMARK    7  A    between atoms: C_13  and  C_14
REMARK                            x       y       z     vdW  Elec       q    Type
REMARK                         _______ _______ _______ _____ _____    ______ ____
ROOT
ATOM      1  C   UNL     1       4.272   4.309  19.067  0.00  0.00    +0.000 A 
ATOM      2  C   UNL     1       5.578   4.816  19.138  0.00  0.00    +0.000 A 
ATOM      3  C   UNL     1       6.415   4.942  18.012  0.00  0.00    +0.000 A 
ATOM      4  C   UNL     1       5.918   4.547  16.769  0.00  0.00    +0.000 A 
ATOM      5 BR   UNL     1       6.853   4.581  15.117  0.00  0.00    +0.000 Br
ATOM      6  C   UNL     1       4.602   4.060  16.680  0.00  0.00    +0.000 A 
ATOM      7  C   UNL     1       3.772   3.956  17.808  0.00  0.00    +0.000 A 
ENDROOT
BRANCH   7   8
ATOM      8  C   UNL     1       2.395   3.429  17.572  0.00  0.00    +0.000 C 
ATOM      9  C   UNL     1       1.204   4.352  17.574  0.00  0.00    +0.000 C 
ATOM     10  O   UNL     1       2.255   2.232  17.314  0.00  0.00    +0.000 OA
ENDBRANCH   7   8
BRANCH   3  11
ATOM     11  O   UNL     1       7.623   5.456  18.386  0.00  0.00    +0.000 OA
ATOM     12  C   UNL     1       7.893   6.843  18.351  0.00  0.00    +0.000 C 
ENDBRANCH   3  11
BRANCH   1  13
ATOM     13  O   UNL     1       3.477   4.110  20.164  0.00  0.00    +0.000 OA
BRANCH  13  15
ATOM     14  C   UNL     1       2.097   2.651  21.464  0.00  0.00    +0.000 C 
ATOM     15  C   UNL     1       3.390   2.781  20.679  0.00  0.00    +0.000 C 
ENDBRANCH  13  15
ENDBRANCH   1  13
TORSDOF 4
ENDMDL
MODEL 8
REMARK VINA RESULT:      -5.7      1.951      4.807
REMARK  Name = 
REMARK  7 active torsions:
REMARK  status: ('A' for Active; 'I' for Inactive)
REMARK    1  A    between atoms: C_1  and  C_2
REMARK    2  A    between atoms: C_2  and  O_3
REMARK    3  A    between atoms: O_3  and  C_4
REMARK    4  A    between atoms: C_6  and  O_7
REMARK    5  A    between atoms: O_7  and  C_8
REMARK    6  A    between atoms: C_12  and  C_13
REMARK    7  A    between atoms: C_13  and  C_14
REMARK                            x       y       z     vdW  Elec       q    Type
REMARK                         _______ _______ _______ _____ _____    ______ ____
ROOT
ATOM      1  C   UNL     1       6.011   5.991  17.122  0.00  0.00    +0.000 A 
ATOM      2  C   UNL     1       5.247   5.984  18.298  0.00  0.00    +0.000 A 
ATOM      3  C   UNL     1       4.217   5.054  18.541  0.00  0.00    +0.000 A 
ATOM      4  C   UNL     1       3.949   4.093  17.564  0.00  0.00    +0.000 A 
ATOM      5 BR   UNL     1       2.599   2.760  17.632  0.00  0.00    +0.000 Br
ATOM      6  C   UNL     1       4.724   4.073  16.391  0.00  0.00    +0.000 A 
ATOM      7  C   UNL     1       5.760   4.996  16.171  0.00  0.00    +0.000 A 
ENDROOT
BRANCH   7   8
ATOM      8  C   UNL     1       6.508   4.859  14.886  0.00  0.00    +0.000 C 
ATOM      9  C   UNL     1       5.920   4.099  13.726  0.00  0.00    +0.000 C 
ATOM     10  O   UNL     1       7.593   5.432  14.769  0.00  0.00    +0.000 OA
ENDBRANCH   7   8
BRANCH   3  11
ATOM     11  O   UNL     1       3.648   5.295  19.758  0.00  0.00    +0.000 OA
ATOM     12  C   UNL     1       2.317   5.752  19.888  0.00  0.00    +0.000 C 
ENDBRANCH   3  11
BRANCH   1  13
ATOM     13  O   UNL     1       6.961   6.936  16.843  0.00  0.00    +0.000 OA
BRANCH  13  15
ATOM     14  C   UNL     1       8.035   8.868  17.757  0.00  0.00    +0.000 C 
ATOM     15  C   UNL     1       7.783   7.380  17.923  0.00  0.00    +0.000 C 
ENDBRANCH  13  15
ENDBRANCH   1  13
TORSDOF 4
ENDMDL
MODEL 9
REMARK VINA RESULT:      -5.6      2.463      4.897
REMARK  Name = 
REMARK  7 active torsions:
REMARK  status: ('A' for Active; 'I' for Inactive)
REMARK    1  A    between atoms: C_1  and  C_2
REMARK    2  A    between atoms: C_2  and  O_3
REMARK    3  A    between atoms: O_3  and  C_4
REMARK    4  A    between atoms: C_6  and  O_7
REMARK    5  A    between atoms: O_7  and  C_8
REMARK    6  A    between atoms: C_12  and  C_13
REMARK    7  A    between atoms: C_13  and  C_14
REMARK                            x       y       z     vdW  Elec       q    Type
REMARK                         _______ _______ _______ _____ _____    ______ ____
ROOT
ATOM      1  C   UNL     1       5.693   4.305  18.312  0.00  0.00    +0.000 A 
ATOM      2  C   UNL     1       5.088   3.670  19.406  0.00  0.00    +0.000 A 
ATOM      3  C   UNL     1       3.711   3.379  19.460  0.00  0.00    +0.000 A 
ATOM      4  C   UNL     1       2.914   3.738  18.371  0.00  0.00    +0.000 A 
ATOM      5 BR   UNL     1       1.038   3.492  18.215  0.00  0.00    +0.000 Br
ATOM      6  C   UNL     1       3.513   4.353  17.258  0.00  0.00    +0.000 A 
ATOM      7  C   UNL     1       4.890   4.622  17.210  0.00  0.00    +0.000 A 
ENDROOT
BRANCH   7   8
ATOM      8  C   UNL     1       5.396   5.273  15.965  0.00  0.00    +0.000 C 
ATOM      9  C   UNL     1       5.780   4.450  14.763  0.00  0.00    +0.000 C 
ATOM     10  O   UNL     1       5.437   6.504  15.916  0.00  0.00    +0.000 OA
ENDBRANCH   7   8
BRANCH   3  11
ATOM     11  O   UNL     1       3.410   2.768  20.643  0.00  0.00    +0.000 OA
ATOM     12  C   UNL     1       2.429   3.277  21.524  0.00  0.00    +0.000 C 
ENDBRANCH   3  11
BRANCH   1  13
ATOM     13  O   UNL     1       7.015   4.662  18.280  0.00  0.00    +0.000 OA
BRANCH  13  15
ATOM     14  C   UNL     1       7.873   6.894  18.320  0.00  0.00    +0.000 C 
ATOM     15  C   UNL     1       7.434   5.707  19.158  0.00  0.00    +0.000 C 
ENDBRANCH  13  15
ENDBRANCH   1  13
TORSDOF 4
ENDMDL
