MODEL 1
REMARK VINA RESULT:      -7.7      0.000      0.000
REMARK  Name = 
REMARK  10 active torsions:
REMARK  status: ('A' for Active; 'I' for Inactive)
REMARK    1  A    between atoms: C_1  and  C_2
REMARK    2  A    between atoms: C_2  and  C_3
REMARK    3  A    between atoms: C_2  and  N_4
REMARK    4  A    between atoms: N_4  and  C_20
REMARK    5  A    between atoms: C_5  and  C_7
REMARK    6  A    between atoms: C_12  and  C_13
REMARK    7  A    between atoms: C_16  and  C_17
REMARK    8  A    between atoms: C_17  and  O_19
REMARK    9  A    between atoms: C_20  and  C_21
REMARK   10  A    between atoms: C_20  and  C_22
REMARK                            x       y       z     vdW  Elec       q    Type
REMARK                         _______ _______ _______ _____ _____    ______ ____
ROOT
ATOM      1  C   UNL     1       5.173   4.767  17.776  0.00  0.00    +0.000 C 
ATOM      2  C   UNL     1       5.683   3.672  16.826  0.00  0.00    +0.000 C 
ATOM      3  C   UNL     1       5.239   4.500  15.603  0.00  0.00    +0.000 C 
ATOM      4  C   UNL     1       4.743   5.608  16.543  0.00  0.00    +0.000 C 
ATOM      5  C   UNL     1       6.106   6.306  16.477  0.00  0.00    +0.000 C 
ATOM      6  C   UNL     1       6.604   5.160  15.515  0.00  0.00    +0.000 C 
ATOM      7  C   UNL     1       7.077   4.304  16.747  0.00  0.00    +0.000 C 
ATOM      8  C   UNL     1       6.565   5.449  17.739  0.00  0.00    +0.000 C 
ENDROOT
BRANCH   1  10
ATOM      9  N   UNL     1       3.267   3.887  19.309  0.00  0.00    +0.000 N 
ATOM     10  C   UNL     1       4.314   4.788  19.029  0.00  0.00    +0.000 C 
ATOM     11  O   UNL     1       4.597   5.696  19.835  0.00  0.00    +0.000 OA
BRANCH   9  13
ATOM     12  C   UNL     1       1.060   4.460  20.529  0.00  0.00    +0.000 C 
ATOM     13  C   UNL     1       2.519   3.986  20.610  0.00  0.00    +0.000 C 
ATOM     14  C   UNL     1       2.580   2.683  21.421  0.00  0.00    +0.000 C 
ENDBRANCH   9  13
BRANCH   9  15
ATOM     15  C   UNL     1       2.847   2.828  18.359  0.00  0.00    +0.000 C 
ATOM     16  C   UNL     1       3.593   1.522  18.646  0.00  0.00    +0.000 C 
ATOM     17  C   UNL     1       1.336   2.548  18.315  0.00  0.00    +0.000 C 
ENDBRANCH   9  15
ENDBRANCH   1  10
BRANCH   6  18
ATOM     18  C   UNL     1       7.352   5.367  14.321  0.00  0.00    +0.000 C 
ATOM     19  N   UNL     1       7.977   5.529  13.362  0.00  0.00    +0.000 NA
ENDBRANCH   6  18
BRANCH   8  20
ATOM     20  C   UNL     1       7.469   5.981  18.827  0.00  0.00    +0.000 C 
ATOM     21  O   UNL     1       8.183   6.972  18.674  0.00  0.00    +0.000 OA
BRANCH  20  22
ATOM     22  O   UNL     1       7.472   5.320  20.009  0.00  0.00    +0.000 OA
ATOM     23  H   UNL     1       7.486   5.896  20.812  0.00  0.00    +0.000 HD
ENDBRANCH  20  22
ENDBRANCH   8  20
TORSDOF 6
ENDMDL
MODEL 2
REMARK VINA RESULT:      -7.7      1.162      1.441
REMARK  Name = 
REMARK  10 active torsions:
REMARK  status: ('A' for Active; 'I' for Inactive)
REMARK    1  A    between atoms: C_1  and  C_2
REMARK    2  A    between atoms: C_2  and  C_3
REMARK    3  A    between atoms: C_2  and  N_4
REMARK    4  A    between atoms: N_4  and  C_20
REMARK    5  A    between atoms: C_5  and  C_7
REMARK    6  A    between atoms: C_12  and  C_13
REMARK    7  A    between atoms: C_16  and  C_17
REMARK    8  A    between atoms: C_17  and  O_19
REMARK    9  A    between atoms: C_20  and  C_21
REMARK   10  A    between atoms: C_20  and  C_22
REMARK                            x       y       z     vdW  Elec       q    Type
REMARK                         _______ _______ _______ _____ _____    ______ ____
ROOT
ATOM      1  C   UNL     1       4.672   4.915  17.012  0.00  0.00    +0.000 C 
ATOM      2  C   UNL     1       4.997   3.952  15.859  0.00  0.00    +0.000 C 
ATOM      3  C   UNL     1       5.103   5.135  14.876  0.00  0.00    +0.000 C 
ATOM      4  C   UNL     1       4.798   6.107  16.026  0.00  0.00    +0.000 C 
ATOM      5  C   UNL     1       6.294   6.263  16.321  0.00  0.00    +0.000 C 
ATOM      6  C   UNL     1       6.594   5.262  15.141  0.00  0.00    +0.000 C 
ATOM      7  C   UNL     1       6.503   4.040  16.128  0.00  0.00    +0.000 C 
ATOM      8  C   UNL     1       6.183   5.040  17.336  0.00  0.00    +0.000 C 
ENDROOT
BRANCH   1  10
ATOM      9  N   UNL     1       3.391   3.944  19.055  0.00  0.00    +0.000 N 
ATOM     10  C   UNL     1       3.622   4.962  18.109  0.00  0.00    +0.000 C 
ATOM     11  O   UNL     1       2.934   6.003  18.122  0.00  0.00    +0.000 OA
BRANCH   9  13
ATOM     12  C   UNL     1       2.178   5.556  20.673  0.00  0.00    +0.000 C 
ATOM     13  C   UNL     1       2.348   4.132  20.122  0.00  0.00    +0.000 C 
ATOM     14  C   UNL     1       0.974   3.589  19.701  0.00  0.00    +0.000 C 
ENDBRANCH   9  13
BRANCH   9  15
ATOM     15  C   UNL     1       4.134   2.661  19.047  0.00  0.00    +0.000 C 
ATOM     16  C   UNL     1       4.392   2.181  20.479  0.00  0.00    +0.000 C 
ATOM     17  C   UNL     1       3.478   1.527  18.244  0.00  0.00    +0.000 C 
ENDBRANCH   9  15
ENDBRANCH   1  10
BRANCH   6  18
ATOM     18  C   UNL     1       7.602   5.447  14.152  0.00  0.00    +0.000 C 
ATOM     19  N   UNL     1       8.433   5.604  13.364  0.00  0.00    +0.000 NA
ENDBRANCH   6  18
BRANCH   8  20
ATOM     20  C   UNL     1       6.960   4.952  18.628  0.00  0.00    +0.000 C 
ATOM     21  O   UNL     1       6.486   5.283  19.715  0.00  0.00    +0.000 OA
BRANCH  20  22
ATOM     22  O   UNL     1       8.229   4.483  18.559  0.00  0.00    +0.000 OA
ATOM     23  H   UNL     1       8.884   4.958  19.126  0.00  0.00    +0.000 HD
ENDBRANCH  20  22
ENDBRANCH   8  20
TORSDOF 6
ENDMDL
MODEL 3
REMARK VINA RESULT:      -7.6      0.687      1.033
REMARK  Name = 
REMARK  10 active torsions:
REMARK  status: ('A' for Active; 'I' for Inactive)
REMARK    1  A    between atoms: C_1  and  C_2
REMARK    2  A    between atoms: C_2  and  C_3
REMARK    3  A    between atoms: C_2  and  N_4
REMARK    4  A    between atoms: N_4  and  C_20
REMARK    5  A    between atoms: C_5  and  C_7
REMARK    6  A    between atoms: C_12  and  C_13
REMARK    7  A    between atoms: C_16  and  C_17
REMARK    8  A    between atoms: C_17  and  O_19
REMARK    9  A    between atoms: C_20  and  C_21
REMARK   10  A    between atoms: C_20  and  C_22
REMARK                            x       y       z     vdW  Elec       q    Type
REMARK                         _______ _______ _______ _____ _____    ______ ____
ROOT
ATOM      1  C   UNL     1       5.202   4.860  17.611  0.00  0.00    +0.000 C 
ATOM      2  C   UNL     1       5.729   3.767  16.668  0.00  0.00    +0.000 C 
ATOM      3  C   UNL     1       5.379   4.632  15.440  0.00  0.00    +0.000 C 
ATOM      4  C   UNL     1       4.867   5.738  16.375  0.00  0.00    +0.000 C 
ATOM      5  C   UNL     1       6.253   6.392  16.397  0.00  0.00    +0.000 C 
ATOM      6  C   UNL     1       6.767   5.249  15.440  0.00  0.00    +0.000 C 
ATOM      7  C   UNL     1       7.144   4.355  16.677  0.00  0.00    +0.000 C 
ATOM      8  C   UNL     1       6.615   5.497  17.664  0.00  0.00    +0.000 C 
ENDROOT
BRANCH   1  10
ATOM      9  N   UNL     1       2.992   4.311  18.862  0.00  0.00    +0.000 N 
ATOM     10  C   UNL     1       4.277   4.885  18.816  0.00  0.00    +0.000 C 
ATOM     11  O   UNL     1       4.739   5.477  19.812  0.00  0.00    +0.000 OA
BRANCH   9  13
ATOM     12  C   UNL     1       2.715   3.528  21.312  0.00  0.00    +0.000 C 
ATOM     13  C   UNL     1       2.190   4.363  20.134  0.00  0.00    +0.000 C 
ATOM     14  C   UNL     1       1.940   5.802  20.610  0.00  0.00    +0.000 C 
ENDBRANCH   9  13
BRANCH   9  15
ATOM     15  C   UNL     1       2.367   3.650  17.691  0.00  0.00    +0.000 C 
ATOM     16  C   UNL     1       2.456   2.126  17.822  0.00  0.00    +0.000 C 
ATOM     17  C   UNL     1       0.909   4.049  17.412  0.00  0.00    +0.000 C 
ENDBRANCH   9  15
ENDBRANCH   1  10
BRANCH   6  18
ATOM     18  C   UNL     1       7.585   5.455  14.293  0.00  0.00    +0.000 C 
ATOM     19  N   UNL     1       8.267   5.616  13.373  0.00  0.00    +0.000 NA
ENDBRANCH   6  18
BRANCH   8  20
ATOM     20  C   UNL     1       7.474   5.978  18.810  0.00  0.00    +0.000 C 
ATOM     21  O   UNL     1       8.191   6.976  18.732  0.00  0.00    +0.000 OA
BRANCH  20  22
ATOM     22  O   UNL     1       7.433   5.263  19.959  0.00  0.00    +0.000 OA
ATOM     23  H   UNL     1       7.625   5.776  20.781  0.00  0.00    +0.000 HD
ENDBRANCH  20  22
ENDBRANCH   8  20
TORSDOF 6
ENDMDL
MODEL 4
REMARK VINA RESULT:      -7.2      0.402      1.074
REMARK  Name = 
REMARK  10 active torsions:
REMARK  status: ('A' for Active; 'I' for Inactive)
REMARK    1  A    between atoms: C_1  and  C_2
REMARK    2  A    between atoms: C_2  and  C_3
REMARK    3  A    between atoms: C_2  and  N_4
REMARK    4  A    between atoms: N_4  and  C_20
REMARK    5  A    between atoms: C_5  and  C_7
REMARK    6  A    between atoms: C_12  and  C_13
REMARK    7  A    between atoms: C_16  and  C_17
REMARK    8  A    between atoms: C_17  and  O_19
REMARK    9  A    between atoms: C_20  and  C_21
REMARK   10  A    between atoms: C_20  and  C_22
REMARK                            x       y       z     vdW  Elec       q    Type
REMARK                         _______ _______ _______ _____ _____    ______ ____
ROOT
ATOM      1  C   UNL     1       5.010   4.825  17.826  0.00  0.00    +0.000 C 
ATOM      2  C   UNL     1       5.451   3.731  16.840  0.00  0.00    +0.000 C 
ATOM      3  C   UNL     1       5.128   4.651  15.645  0.00  0.00    +0.000 C 
ATOM      4  C   UNL     1       4.703   5.757  16.623  0.00  0.00    +0.000 C 
ATOM      5  C   UNL     1       6.126   6.327  16.633  0.00  0.00    +0.000 C 
ATOM      6  C   UNL     1       6.551   5.185  15.632  0.00  0.00    +0.000 C 
ATOM      7  C   UNL     1       6.898   4.233  16.835  0.00  0.00    +0.000 C 
ATOM      8  C   UNL     1       6.459   5.375  17.866  0.00  0.00    +0.000 C 
ENDROOT
BRANCH   1  10
ATOM      9  N   UNL     1       3.141   3.902  19.378  0.00  0.00    +0.000 N 
ATOM     10  C   UNL     1       4.113   4.868  19.051  0.00  0.00    +0.000 C 
ATOM     11  O   UNL     1       4.287   5.860  19.786  0.00  0.00    +0.000 OA
BRANCH   9  13
ATOM     12  C   UNL     1       0.868   4.429  20.493  0.00  0.00    +0.000 C 
ATOM     13  C   UNL     1       2.345   4.036  20.647  0.00  0.00    +0.000 C 
ATOM     14  C   UNL     1       2.444   2.788  21.536  0.00  0.00    +0.000 C 
ENDBRANCH   9  13
BRANCH   9  15
ATOM     15  C   UNL     1       2.846   2.736  18.510  0.00  0.00    +0.000 C 
ATOM     16  C   UNL     1       2.303   3.199  17.155  0.00  0.00    +0.000 C 
ATOM     17  C   UNL     1       4.022   1.774  18.282  0.00  0.00    +0.000 C 
ENDBRANCH   9  15
ENDBRANCH   1  10
BRANCH   6  18
ATOM     18  C   UNL     1       7.357   5.375  14.474  0.00  0.00    +0.000 C 
ATOM     19  N   UNL     1       7.995   5.541  13.524  0.00  0.00    +0.000 NA
ENDBRANCH   6  18
BRANCH   8  20
ATOM     20  C   UNL     1       7.369   5.769  19.006  0.00  0.00    +0.000 C 
ATOM     21  O   UNL     1       7.398   5.161  20.076  0.00  0.00    +0.000 OA
BRANCH  20  22
ATOM     22  O   UNL     1       8.177   6.838  18.813  0.00  0.00    +0.000 OA
ATOM     23  H   UNL     1       7.754   7.608  18.360  0.00  0.00    +0.000 HD
ENDBRANCH  20  22
ENDBRANCH   8  20
TORSDOF 6
ENDMDL
MODEL 5
REMARK VINA RESULT:      -6.8      1.163      1.541
REMARK  Name = 
REMARK  10 active torsions:
REMARK  status: ('A' for Active; 'I' for Inactive)
REMARK    1  A    between atoms: C_1  and  C_2
REMARK    2  A    between atoms: C_2  and  C_3
REMARK    3  A    between atoms: C_2  and  N_4
REMARK    4  A    between atoms: N_4  and  C_20
REMARK    5  A    between atoms: C_5  and  C_7
REMARK    6  A    between atoms: C_12  and  C_13
REMARK    7  A    between atoms: C_16  and  C_17
REMARK    8  A    between atoms: C_17  and  O_19
REMARK    9  A    between atoms: C_20  and  C_21
REMARK   10  A    between atoms: C_20  and  C_22
REMARK                            x       y       z     vdW  Elec       q    Type
REMARK                         _______ _______ _______ _____ _____    ______ ____
ROOT
ATOM      1  C   UNL     1       5.537   4.692  17.686  0.00  0.00    +0.000 C 
ATOM      2  C   UNL     1       6.105   3.624  16.737  0.00  0.00    +0.000 C 
ATOM      3  C   UNL     1       5.506   4.360  15.521  0.00  0.00    +0.000 C 
ATOM      4  C   UNL     1       4.950   5.441  16.460  0.00  0.00    +0.000 C 
ATOM      5  C   UNL     1       6.225   6.274  16.292  0.00  0.00    +0.000 C 
ATOM      6  C   UNL     1       6.786   5.156  15.332  0.00  0.00    +0.000 C 
ATOM      7  C   UNL     1       7.417   4.396  16.556  0.00  0.00    +0.000 C 
ATOM      8  C   UNL     1       6.844   5.514  17.547  0.00  0.00    +0.000 C 
ENDROOT
BRANCH   1  10
ATOM      9  N   UNL     1       3.392   4.997  19.122  0.00  0.00    +0.000 N 
ATOM     10  C   UNL     1       4.755   4.664  18.988  0.00  0.00    +0.000 C 
ATOM     11  O   UNL     1       5.420   4.319  19.985  0.00  0.00    +0.000 OA
BRANCH   9  13
ATOM     12  C   UNL     1       1.647   5.938  20.782  0.00  0.00    +0.000 C 
ATOM     13  C   UNL     1       2.719   4.885  20.462  0.00  0.00    +0.000 C 
ATOM     14  C   UNL     1       2.140   3.485  20.713  0.00  0.00    +0.000 C 
ENDBRANCH   9  13
BRANCH   9  15
ATOM     15  C   UNL     1       2.568   5.474  17.984  0.00  0.00    +0.000 C 
ATOM     16  C   UNL     1       1.399   4.518  17.729  0.00  0.00    +0.000 C 
ATOM     17  C   UNL     1       2.030   6.907  18.118  0.00  0.00    +0.000 C 
ENDBRANCH   9  15
ENDBRANCH   1  10
BRANCH   6  18
ATOM     18  C   UNL     1       7.438   5.400  14.090  0.00  0.00    +0.000 C 
ATOM     19  N   UNL     1       7.982   5.584  13.087  0.00  0.00    +0.000 NA
ENDBRANCH   6  18
BRANCH   8  20
ATOM     20  C   UNL     1       7.748   6.173  18.562  0.00  0.00    +0.000 C 
ATOM     21  O   UNL     1       8.156   7.328  18.440  0.00  0.00    +0.000 OA
BRANCH  20  22
ATOM     22  O   UNL     1       8.106   5.439  19.642  0.00  0.00    +0.000 OA
ATOM     23  H   UNL     1       8.962   5.698  20.062  0.00  0.00    +0.000 HD
ENDBRANCH  20  22
ENDBRANCH   8  20
TORSDOF 6
ENDMDL
MODEL 6
REMARK VINA RESULT:      -6.7      1.952      5.617
REMARK  Name = 
REMARK  10 active torsions:
REMARK  status: ('A' for Active; 'I' for Inactive)
REMARK    1  A    between atoms: C_1  and  C_2
REMARK    2  A    between atoms: C_2  and  C_3
REMARK    3  A    between atoms: C_2  and  N_4
REMARK    4  A    between atoms: N_4  and  C_20
REMARK    5  A    between atoms: C_5  and  C_7
REMARK    6  A    between atoms: C_12  and  C_13
REMARK    7  A    between atoms: C_16  and  C_17
REMARK    8  A    between atoms: C_17  and  O_19
REMARK    9  A    between atoms: C_20  and  C_21
REMARK   10  A    between atoms: C_20  and  C_22
REMARK                            x       y       z     vdW  Elec       q    Type
REMARK                         _______ _______ _______ _____ _____    ______ ____
ROOT
ATOM      1  C   UNL     1       4.428   4.576  18.443  0.00  0.00    +0.000 C 
ATOM      2  C   UNL     1       3.723   3.788  17.328  0.00  0.00    +0.000 C 
ATOM      3  C   UNL     1       3.509   2.594  18.282  0.00  0.00    +0.000 C 
ATOM      4  C   UNL     1       4.195   3.382  19.407  0.00  0.00    +0.000 C 
ATOM      5  C   UNL     1       2.847   3.946  19.866  0.00  0.00    +0.000 C 
ATOM      6  C   UNL     1       2.153   3.136  18.705  0.00  0.00    +0.000 C 
ATOM      7  C   UNL     1       2.350   4.345  17.718  0.00  0.00    +0.000 C 
ATOM      8  C   UNL     1       3.068   5.177  18.880  0.00  0.00    +0.000 C 
ENDROOT
BRANCH   1  10
ATOM      9  N   UNL     1       6.478   5.826  17.447  0.00  0.00    +0.000 N 
ATOM     10  C   UNL     1       5.716   5.376  18.543  0.00  0.00    +0.000 C 
ATOM     11  O   UNL     1       6.084   5.620  19.710  0.00  0.00    +0.000 OA
BRANCH   9  13
ATOM     12  C   UNL     1       7.565   8.171  17.521  0.00  0.00    +0.000 C 
ATOM     13  C   UNL     1       7.714   6.650  17.679  0.00  0.00    +0.000 C 
ATOM     14  C   UNL     1       8.376   6.348  19.032  0.00  0.00    +0.000 C 
ENDBRANCH   9  13
BRANCH   9  15
ATOM     15  C   UNL     1       6.123   5.512  16.042  0.00  0.00    +0.000 C 
ATOM     16  C   UNL     1       5.229   6.609  15.456  0.00  0.00    +0.000 C 
ATOM     17  C   UNL     1       7.314   5.273  15.101  0.00  0.00    +0.000 C 
ENDBRANCH   9  15
ENDBRANCH   1  10
BRANCH   6  18
ATOM     18  C   UNL     1       0.960   2.373  18.844  0.00  0.00    +0.000 C 
ATOM     19  N   UNL     1      -0.013   1.755  18.936  0.00  0.00    +0.000 NA
ENDBRANCH   6  18
BRANCH   8  20
ATOM     20  C   UNL     1       2.630   6.589  19.193  0.00  0.00    +0.000 C 
ATOM     21  O   UNL     1       2.633   7.489  18.353  0.00  0.00    +0.000 OA
BRANCH  20  22
ATOM     22  O   UNL     1       2.220   6.846  20.458  0.00  0.00    +0.000 OA
ATOM     23  H   UNL     1       2.138   6.053  21.042  0.00  0.00    +0.000 HD
ENDBRANCH  20  22
ENDBRANCH   8  20
TORSDOF 6
ENDMDL
MODEL 7
REMARK VINA RESULT:      -6.4      3.609      5.466
REMARK  Name = 
REMARK  10 active torsions:
REMARK  status: ('A' for Active; 'I' for Inactive)
REMARK    1  A    between atoms: C_1  and  C_2
REMARK    2  A    between atoms: C_2  and  C_3
REMARK    3  A    between atoms: C_2  and  N_4
REMARK    4  A    between atoms: N_4  and  C_20
REMARK    5  A    between atoms: C_5  and  C_7
REMARK    6  A    between atoms: C_12  and  C_13
REMARK    7  A    between atoms: C_16  and  C_17
REMARK    8  A    between atoms: C_17  and  O_19
REMARK    9  A    between atoms: C_20  and  C_21
REMARK   10  A    between atoms: C_20  and  C_22
REMARK                            x       y       z     vdW  Elec       q    Type
REMARK                         _______ _______ _______ _____ _____    ______ ____
ROOT
ATOM      1  C   UNL     1       2.588   6.517  18.752  0.00  0.00    +0.000 C 
ATOM      2  C   UNL     1       2.889   5.680  20.006  0.00  0.00    +0.000 C 
ATOM      3  C   UNL     1       2.049   4.512  19.451  0.00  0.00    +0.000 C 
ATOM      4  C   UNL     1       1.757   5.333  18.187  0.00  0.00    +0.000 C 
ATOM      5  C   UNL     1       2.984   4.736  17.489  0.00  0.00    +0.000 C 
ATOM      6  C   UNL     1       3.275   3.901  18.794  0.00  0.00    +0.000 C 
ATOM      7  C   UNL     1       4.147   5.074  19.374  0.00  0.00    +0.000 C 
ATOM      8  C   UNL     1       3.852   5.942  18.063  0.00  0.00    +0.000 C 
ENDROOT
BRANCH   1  10
ATOM      9  N   UNL     1       1.532   8.785  19.457  0.00  0.00    +0.000 N 
ATOM     10  C   UNL     1       2.126   7.941  18.497  0.00  0.00    +0.000 C 
ATOM     11  O   UNL     1       2.304   8.342  17.330  0.00  0.00    +0.000 OA
BRANCH   9  13
ATOM     12  C   UNL     1       2.192  10.990  18.278  0.00  0.00    +0.000 C 
ATOM     13  C   UNL     1       1.159  10.194  19.090  0.00  0.00    +0.000 C 
ATOM     14  C   UNL     1      -0.204  10.276  18.386  0.00  0.00    +0.000 C 
ENDBRANCH   9  13
BRANCH   9  15
ATOM     15  C   UNL     1       1.238   8.341  20.841  0.00  0.00    +0.000 C 
ATOM     16  C   UNL     1       1.578   9.447  21.844  0.00  0.00    +0.000 C 
ATOM     17  C   UNL     1      -0.201   7.862  21.085  0.00  0.00    +0.000 C 
ENDBRANCH   9  15
ENDBRANCH   1  10
BRANCH   6  18
ATOM     18  C   UNL     1       3.630   2.522  18.816  0.00  0.00    +0.000 C 
ATOM     19  N   UNL     1       3.904   1.400  18.850  0.00  0.00    +0.000 NA
ENDBRANCH   6  18
BRANCH   8  20
ATOM     20  C   UNL     1       4.985   6.593  17.305  0.00  0.00    +0.000 C 
ATOM     21  O   UNL     1       6.113   6.728  17.779  0.00  0.00    +0.000 OA
BRANCH  20  22
ATOM     22  O   UNL     1       4.720   7.035  16.052  0.00  0.00    +0.000 OA
ATOM     23  H   UNL     1       4.377   6.350  15.428  0.00  0.00    +0.000 HD
ENDBRANCH  20  22
ENDBRANCH   8  20
TORSDOF 6
ENDMDL
MODEL 8
REMARK VINA RESULT:      -6.2      2.364      5.985
REMARK  Name = 
REMARK  10 active torsions:
REMARK  status: ('A' for Active; 'I' for Inactive)
REMARK    1  A    between atoms: C_1  and  C_2
REMARK    2  A    between atoms: C_2  and  C_3
REMARK    3  A    between atoms: C_2  and  N_4
REMARK    4  A    between atoms: N_4  and  C_20
REMARK    5  A    between atoms: C_5  and  C_7
REMARK    6  A    between atoms: C_12  and  C_13
REMARK    7  A    between atoms: C_16  and  C_17
REMARK    8  A    between atoms: C_17  and  O_19
REMARK    9  A    between atoms: C_20  and  C_21
REMARK   10  A    between atoms: C_20  and  C_22
REMARK                            x       y       z     vdW  Elec       q    Type
REMARK                         _______ _______ _______ _____ _____    ______ ____
ROOT
ATOM      1  C   UNL     1       3.372   3.631  17.944  0.00  0.00    +0.000 C 
ATOM      2  C   UNL     1       2.136   2.732  18.108  0.00  0.00    +0.000 C 
ATOM      3  C   UNL     1       2.817   1.976  19.268  0.00  0.00    +0.000 C 
ATOM      4  C   UNL     1       4.049   2.882  19.123  0.00  0.00    +0.000 C 
ATOM      5  C   UNL     1       3.474   3.866  20.148  0.00  0.00    +0.000 C 
ATOM      6  C   UNL     1       2.213   2.930  20.285  0.00  0.00    +0.000 C 
ATOM      7  C   UNL     1       1.494   3.694  19.113  0.00  0.00    +0.000 C 
ATOM      8  C   UNL     1       2.770   4.645  18.950  0.00  0.00    +0.000 C 
ENDROOT
BRANCH   1  10
ATOM      9  N   UNL     1       5.546   4.551  16.857  0.00  0.00    +0.000 N 
ATOM     10  C   UNL     1       4.218   4.090  16.769  0.00  0.00    +0.000 C 
ATOM     11  O   UNL     1       3.640   4.039  15.664  0.00  0.00    +0.000 OA
BRANCH   9  13
ATOM     12  C   UNL     1       6.353   3.880  14.493  0.00  0.00    +0.000 C 
ATOM     13  C   UNL     1       6.293   4.935  15.609  0.00  0.00    +0.000 C 
ATOM     14  C   UNL     1       5.803   6.265  15.018  0.00  0.00    +0.000 C 
ENDBRANCH   9  13
BRANCH   9  15
ATOM     15  C   UNL     1       6.261   4.692  18.149  0.00  0.00    +0.000 C 
ATOM     16  C   UNL     1       7.762   4.450  17.962  0.00  0.00    +0.000 C 
ATOM     17  C   UNL     1       6.051   6.030  18.873  0.00  0.00    +0.000 C 
ENDBRANCH   9  15
ENDBRANCH   1  10
BRANCH   6  18
ATOM     18  C   UNL     1       1.606   2.555  21.517  0.00  0.00    +0.000 C 
ATOM     19  N   UNL     1       1.094   2.256  22.510  0.00  0.00    +0.000 NA
ENDBRANCH   6  18
BRANCH   8  20
ATOM     20  C   UNL     1       2.606   6.146  18.911  0.00  0.00    +0.000 C 
ATOM     21  O   UNL     1       2.533   6.781  17.858  0.00  0.00    +0.000 OA
BRANCH  20  22
ATOM     22  O   UNL     1       2.538   6.794  20.098  0.00  0.00    +0.000 OA
ATOM     23  H   UNL     1       3.376   6.802  20.622  0.00  0.00    +0.000 HD
ENDBRANCH  20  22
ENDBRANCH   8  20
TORSDOF 6
ENDMDL
MODEL 9
REMARK VINA RESULT:      -6.2      1.352      2.234
REMARK  Name = 
REMARK  10 active torsions:
REMARK  status: ('A' for Active; 'I' for Inactive)
REMARK    1  A    between atoms: C_1  and  C_2
REMARK    2  A    between atoms: C_2  and  C_3
REMARK    3  A    between atoms: C_2  and  N_4
REMARK    4  A    between atoms: N_4  and  C_20
REMARK    5  A    between atoms: C_5  and  C_7
REMARK    6  A    between atoms: C_12  and  C_13
REMARK    7  A    between atoms: C_16  and  C_17
REMARK    8  A    between atoms: C_17  and  O_19
REMARK    9  A    between atoms: C_20  and  C_21
REMARK   10  A    between atoms: C_20  and  C_22
REMARK                            x       y       z     vdW  Elec       q    Type
REMARK                         _______ _______ _______ _____ _____    ______ ____
ROOT
ATOM      1  C   UNL     1       5.644   4.629  17.776  0.00  0.00    +0.000 C 
ATOM      2  C   UNL     1       7.129   4.937  17.522  0.00  0.00    +0.000 C 
ATOM      3  C   UNL     1       7.140   3.980  16.312  0.00  0.00    +0.000 C 
ATOM      4  C   UNL     1       5.652   3.681  16.546  0.00  0.00    +0.000 C 
ATOM      5  C   UNL     1       5.251   4.817  15.600  0.00  0.00    +0.000 C 
ATOM      6  C   UNL     1       6.781   5.118  15.370  0.00  0.00    +0.000 C 
ATOM      7  C   UNL     1       6.790   6.107  16.593  0.00  0.00    +0.000 C 
ATOM      8  C   UNL     1       5.241   5.805  16.850  0.00  0.00    +0.000 C 
ENDROOT
BRANCH   1  10
ATOM      9  N   UNL     1       3.505   3.751  18.961  0.00  0.00    +0.000 N 
ATOM     10  C   UNL     1       4.817   4.262  18.995  0.00  0.00    +0.000 C 
ATOM     11  O   UNL     1       5.390   4.453  20.087  0.00  0.00    +0.000 OA
BRANCH   9  13
ATOM     12  C   UNL     1       3.515   2.355  21.138  0.00  0.00    +0.000 C 
ATOM     13  C   UNL     1       2.807   3.382  20.241  0.00  0.00    +0.000 C 
ATOM     14  C   UNL     1       2.437   4.613  21.083  0.00  0.00    +0.000 C 
ENDBRANCH   9  13
BRANCH   9  15
ATOM     15  C   UNL     1       2.752   3.562  17.697  0.00  0.00    +0.000 C 
ATOM     16  C   UNL     1       2.411   2.083  17.490  0.00  0.00    +0.000 C 
ATOM     17  C   UNL     1       1.471   4.400  17.564  0.00  0.00    +0.000 C 
ENDBRANCH   9  15
ENDBRANCH   1  10
BRANCH   6  18
ATOM     18  C   UNL     1       7.381   5.369  14.104  0.00  0.00    +0.000 C 
ATOM     19  N   UNL     1       7.883   5.557  13.079  0.00  0.00    +0.000 NA
ENDBRANCH   6  18
BRANCH   8  20
ATOM     20  C   UNL     1       4.256   6.939  17.012  0.00  0.00    +0.000 C 
ATOM     21  O   UNL     1       3.956   7.698  16.090  0.00  0.00    +0.000 OA
BRANCH  20  22
ATOM     22  O   UNL     1       3.694   7.103  18.233  0.00  0.00    +0.000 OA
ATOM     23  H   UNL     1       4.264   6.842  18.997  0.00  0.00    +0.000 HD
ENDBRANCH  20  22
ENDBRANCH   8  20
TORSDOF 6
ENDMDL
