MODEL 1
REMARK VINA RESULT:      -7.5      0.000      0.000
REMARK  Name = 
REMARK  8 active torsions:
REMARK  status: ('A' for Active; 'I' for Inactive)
REMARK    1  A    between atoms: C_1  and  C_2
REMARK    2  A    between atoms: C_2  and  C_3
REMARK    3  A    between atoms: C_3  and  C_4
REMARK    4  A    between atoms: C_4  and  N_5
REMARK    5  A    between atoms: C_14  and  O_15
REMARK    6  A    between atoms: O_15  and  C_16
REMARK    7  A    between atoms: C_17  and  O_18
REMARK    8  A    between atoms: O_18  and  C_19
REMARK                            x       y       z     vdW  Elec       q    Type
REMARK                         _______ _______ _______ _____ _____    ______ ____
ROOT
ATOM      1  N   UNL     1       6.245   5.747  16.577  0.00  0.00    +0.000 NA
ATOM      2  C   UNL     1       6.039   4.661  17.576  0.00  0.00    +0.000 C 
ATOM      3  C   UNL     1       5.053   5.046  18.598  0.00  0.00    +0.000 C 
ATOM      4  O   UNL     1       5.394   5.205  19.762  0.00  0.00    +0.000 OA
ATOM      5  N   UNL     1       3.807   5.051  18.024  0.00  0.00    +0.000 N 
ATOM      6  C   UNL     1       2.721   4.530  18.797  0.00  0.00    +0.000 C 
ATOM      7  C   UNL     1       2.546   5.341  20.049  0.00  0.00    +0.000 C 
ATOM      8  C   UNL     1       2.407   6.793  19.660  0.00  0.00    +0.000 A 
ATOM      9  C   UNL     1       1.689   7.522  20.624  0.00  0.00    +0.000 A 
ATOM     10  C   UNL     1       1.086   8.721  20.324  0.00  0.00    +0.000 A 
ATOM     11  C   UNL     1       1.294   9.226  19.022  0.00  0.00    +0.000 A 
ATOM     12  C   UNL     1       2.180   8.542  18.085  0.00  0.00    +0.000 A 
ATOM     13  C   UNL     1       2.806   7.307  18.386  0.00  0.00    +0.000 A 
ATOM     14  C   UNL     1       3.581   6.339  17.344  0.00  0.00    +0.000 C 
ATOM     15  C   UNL     1       4.953   6.587  16.389  0.00  0.00    +0.000 C 
ENDROOT
BRANCH  10  16
ATOM     16  O   UNL     1       0.229   9.326  21.204  0.00  0.00    +0.000 OA
ATOM     17  C   UNL     1       0.607   9.427  22.577  0.00  0.00    +0.000 C 
ENDBRANCH  10  16
BRANCH  11  18
ATOM     18  O   UNL     1       0.655  10.338  18.498  0.00  0.00    +0.000 OA
ATOM     19  C   UNL     1      -0.661  10.171  17.946  0.00  0.00    +0.000 C 
ENDBRANCH  11  18
BRANCH   1  20
ATOM     20  C   UNL     1       6.842   4.996  15.444  0.00  0.00    +0.000 C 
BRANCH  20  21
ATOM     21  C   UNL     1       6.108   3.932  14.619  0.00  0.00    +0.000 C 
BRANCH  21  23
ATOM     22  C   UNL     1       5.768   3.199  12.164  0.00  0.00    +0.000 C 
ATOM     23  C   UNL     1       6.569   4.049  13.137  0.00  0.00    +0.000 C 
ENDBRANCH  21  23
ENDBRANCH  20  21
ENDBRANCH   1  20
TORSDOF 5
ENDMDL
MODEL 2
REMARK VINA RESULT:      -6.6      3.363      7.472
REMARK  Name = 
REMARK  8 active torsions:
REMARK  status: ('A' for Active; 'I' for Inactive)
REMARK    1  A    between atoms: C_1  and  C_2
REMARK    2  A    between atoms: C_2  and  C_3
REMARK    3  A    between atoms: C_3  and  C_4
REMARK    4  A    between atoms: C_4  and  N_5
REMARK    5  A    between atoms: C_14  and  O_15
REMARK    6  A    between atoms: O_15  and  C_16
REMARK    7  A    between atoms: C_17  and  O_18
REMARK    8  A    between atoms: O_18  and  C_19
REMARK                            x       y       z     vdW  Elec       q    Type
REMARK                         _______ _______ _______ _____ _____    ______ ____
ROOT
ATOM      1  N   UNL     1       3.586   2.347  19.206  0.00  0.00    +0.000 NA
ATOM      2  C   UNL     1       4.109   3.553  19.908  0.00  0.00    +0.000 C 
ATOM      3  C   UNL     1       5.069   4.291  19.072  0.00  0.00    +0.000 C 
ATOM      4  O   UNL     1       6.248   4.358  19.390  0.00  0.00    +0.000 OA
ATOM      5  N   UNL     1       4.381   4.911  18.059  0.00  0.00    +0.000 N 
ATOM      6  C   UNL     1       4.780   6.239  17.706  0.00  0.00    +0.000 C 
ATOM      7  C   UNL     1       6.205   6.237  17.227  0.00  0.00    +0.000 C 
ATOM      8  C   UNL     1       6.332   5.220  16.120  0.00  0.00    +0.000 A 
ATOM      9  C   UNL     1       7.393   5.532  15.249  0.00  0.00    +0.000 A 
ATOM     10  C   UNL     1       7.457   5.020  13.974  0.00  0.00    +0.000 A 
ATOM     11  C   UNL     1       6.450   4.100  13.609  0.00  0.00    +0.000 A 
ATOM     12  C   UNL     1       5.452   3.656  14.579  0.00  0.00    +0.000 A 
ATOM     13  C   UNL     1       5.379   4.178  15.894  0.00  0.00    +0.000 A 
ATOM     14  C   UNL     1       4.170   3.963  16.951  0.00  0.00    +0.000 C 
ATOM     15  C   UNL     1       3.542   2.568  17.670  0.00  0.00    +0.000 C 
ENDROOT
BRANCH  10  16
ATOM     16  O   UNL     1       8.378   5.478  13.070  0.00  0.00    +0.000 OA
ATOM     17  C   UNL     1       7.917   6.088  11.865  0.00  0.00    +0.000 C 
ENDBRANCH  10  16
BRANCH  11  18
ATOM     18  O   UNL     1       6.272   3.594  12.332  0.00  0.00    +0.000 OA
ATOM     19  C   UNL     1       4.937   3.272  11.907  0.00  0.00    +0.000 C 
ENDBRANCH  11  18
BRANCH   1  20
ATOM     20  C   UNL     1       2.347   2.071  19.975  0.00  0.00    +0.000 C 
BRANCH  20  21
ATOM     21  C   UNL     1       1.761   2.999  21.048  0.00  0.00    +0.000 C 
BRANCH  21  23
ATOM     22  C   UNL     1       1.337   5.497  20.539  0.00  0.00    +0.000 C 
ATOM     23  C   UNL     1       0.867   4.063  20.348  0.00  0.00    +0.000 C 
ENDBRANCH  21  23
ENDBRANCH  20  21
ENDBRANCH   1  20
TORSDOF 5
ENDMDL
MODEL 3
REMARK VINA RESULT:      -6.6      2.453      3.888
REMARK  Name = 
REMARK  8 active torsions:
REMARK  status: ('A' for Active; 'I' for Inactive)
REMARK    1  A    between atoms: C_1  and  C_2
REMARK    2  A    between atoms: C_2  and  C_3
REMARK    3  A    between atoms: C_3  and  C_4
REMARK    4  A    between atoms: C_4  and  N_5
REMARK    5  A    between atoms: C_14  and  O_15
REMARK    6  A    between atoms: O_15  and  C_16
REMARK    7  A    between atoms: C_17  and  O_18
REMARK    8  A    between atoms: O_18  and  C_19
REMARK                            x       y       z     vdW  Elec       q    Type
REMARK                         _______ _______ _______ _____ _____    ______ ____
ROOT
ATOM      1  N   UNL     1       6.226   4.504  13.873  0.00  0.00    +0.000 NA
ATOM      2  C   UNL     1       7.277   5.162  14.698  0.00  0.00    +0.000 C 
ATOM      3  C   UNL     1       6.751   5.589  16.004  0.00  0.00    +0.000 C 
ATOM      4  O   UNL     1       6.666   6.778  16.281  0.00  0.00    +0.000 OA
ATOM      5  N   UNL     1       6.536   4.475  16.775  0.00  0.00    +0.000 N 
ATOM      6  C   UNL     1       6.885   4.553  18.161  0.00  0.00    +0.000 C 
ATOM      7  C   UNL     1       6.073   5.622  18.836  0.00  0.00    +0.000 C 
ATOM      8  C   UNL     1       4.614   5.354  18.563  0.00  0.00    +0.000 A 
ATOM      9  C   UNL     1       3.790   5.897  19.567  0.00  0.00    +0.000 A 
ATOM     10  C   UNL     1       2.506   5.451  19.769  0.00  0.00    +0.000 A 
ATOM     11  C   UNL     1       2.023   4.479  18.866  0.00  0.00    +0.000 A 
ATOM     12  C   UNL     1       2.828   4.047  17.728  0.00  0.00    +0.000 A 
ATOM     13  C   UNL     1       4.153   4.501  17.511  0.00  0.00    +0.000 A 
ATOM     14  C   UNL     1       5.220   3.897  16.453  0.00  0.00    +0.000 C 
ATOM     15  C   UNL     1       5.185   3.778  14.767  0.00  0.00    +0.000 C 
ENDROOT
BRANCH  10  16
ATOM     16  O   UNL     1       1.782   5.841  20.864  0.00  0.00    +0.000 OA
ATOM     17  C   UNL     1       1.350   7.198  20.959  0.00  0.00    +0.000 C 
ENDBRANCH  10  16
BRANCH  11  18
ATOM     18  O   UNL     1       0.815   3.814  18.997  0.00  0.00    +0.000 OA
ATOM     19  C   UNL     1       0.807   2.541  19.664  0.00  0.00    +0.000 C 
ENDBRANCH  11  18
BRANCH   1  20
ATOM     20  C   UNL     1       7.047   3.753  12.890  0.00  0.00    +0.000 C 
BRANCH  20  21
ATOM     21  C   UNL     1       6.601   3.407  11.464  0.00  0.00    +0.000 C 
BRANCH  21  23
ATOM     22  C   UNL     1       4.040   3.149  11.236  0.00  0.00    +0.000 C 
ATOM     23  C   UNL     1       5.363   2.467  11.547  0.00  0.00    +0.000 C 
ENDBRANCH  21  23
ENDBRANCH  20  21
ENDBRANCH   1  20
TORSDOF 5
ENDMDL
MODEL 4
REMARK VINA RESULT:      -6.5      3.399      8.866
REMARK  Name = 
REMARK  8 active torsions:
REMARK  status: ('A' for Active; 'I' for Inactive)
REMARK    1  A    between atoms: C_1  and  C_2
REMARK    2  A    between atoms: C_2  and  C_3
REMARK    3  A    between atoms: C_3  and  C_4
REMARK    4  A    between atoms: C_4  and  N_5
REMARK    5  A    between atoms: C_14  and  O_15
REMARK    6  A    between atoms: O_15  and  C_16
REMARK    7  A    between atoms: C_17  and  O_18
REMARK    8  A    between atoms: O_18  and  C_19
REMARK                            x       y       z     vdW  Elec       q    Type
REMARK                         _______ _______ _______ _____ _____    ______ ____
ROOT
ATOM      1  N   UNL     1      -0.119  11.468  22.452  0.00  0.00    +0.000 NA
ATOM      2  C   UNL     1      -0.196  12.194  21.153  0.00  0.00    +0.000 C 
ATOM      3  C   UNL     1       0.534  11.482  20.092  0.00  0.00    +0.000 C 
ATOM      4  O   UNL     1       1.541  11.968  19.596  0.00  0.00    +0.000 OA
ATOM      5  N   UNL     1      -0.175  10.357  19.752  0.00  0.00    +0.000 N 
ATOM      6  C   UNL     1      -0.252  10.018  18.365  0.00  0.00    +0.000 C 
ATOM      7  C   UNL     1       1.125   9.755  17.824  0.00  0.00    +0.000 C 
ATOM      8  C   UNL     1       1.788   8.716  18.695  0.00  0.00    +0.000 A 
ATOM      9  C   UNL     1       2.773   8.000  17.991  0.00  0.00    +0.000 A 
ATOM     10  C   UNL     1       3.214   6.769  18.414  0.00  0.00    +0.000 A 
ATOM     11  C   UNL     1       2.690   6.293  19.636  0.00  0.00    +0.000 A 
ATOM     12  C   UNL     1       1.797   7.121  20.441  0.00  0.00    +0.000 A 
ATOM     13  C   UNL     1       1.337   8.391  20.013  0.00  0.00    +0.000 A 
ATOM     14  C   UNL     1       0.152   9.266  20.687  0.00  0.00    +0.000 C 
ATOM     15  C   UNL     1      -0.011   9.935  22.230  0.00  0.00    +0.000 C 
ENDROOT
BRANCH  10  16
ATOM     16  O   UNL     1       4.022   5.994  17.626  0.00  0.00    +0.000 OA
ATOM     17  C   UNL     1       4.917   6.633  16.715  0.00  0.00    +0.000 C 
ENDBRANCH  10  16
BRANCH  11  18
ATOM     18  O   UNL     1       2.908   5.023  20.144  0.00  0.00    +0.000 OA
ATOM     19  C   UNL     1       1.848   4.395  20.884  0.00  0.00    +0.000 C 
ENDBRANCH  11  18
BRANCH   1  20
ATOM     20  C   UNL     1      -1.267  12.056  23.188  0.00  0.00    +0.000 C 
BRANCH  20  21
ATOM     21  C   UNL     1      -2.666  12.268  22.596  0.00  0.00    +0.000 C 
BRANCH  21  23
ATOM     22  C   UNL     1      -4.298  12.446  24.592  0.00  0.00    +0.000 C 
ATOM     23  C   UNL     1      -3.474  13.191  23.553  0.00  0.00    +0.000 C 
ENDBRANCH  21  23
ENDBRANCH  20  21
ENDBRANCH   1  20
TORSDOF 5
ENDMDL
MODEL 5
REMARK VINA RESULT:      -6.3      2.367      3.974
REMARK  Name = 
REMARK  8 active torsions:
REMARK  status: ('A' for Active; 'I' for Inactive)
REMARK    1  A    between atoms: C_1  and  C_2
REMARK    2  A    between atoms: C_2  and  C_3
REMARK    3  A    between atoms: C_3  and  C_4
REMARK    4  A    between atoms: C_4  and  N_5
REMARK    5  A    between atoms: C_14  and  O_15
REMARK    6  A    between atoms: O_15  and  C_16
REMARK    7  A    between atoms: C_17  and  O_18
REMARK    8  A    between atoms: O_18  and  C_19
REMARK                            x       y       z     vdW  Elec       q    Type
REMARK                         _______ _______ _______ _____ _____    ______ ____
ROOT
ATOM      1  N   UNL     1       5.665   4.154  13.695  0.00  0.00    +0.000 NA
ATOM      2  C   UNL     1       6.769   4.907  14.354  0.00  0.00    +0.000 C 
ATOM      3  C   UNL     1       6.353   5.448  15.657  0.00  0.00    +0.000 C 
ATOM      4  O   UNL     1       6.261   6.656  15.828  0.00  0.00    +0.000 OA
ATOM      5  N   UNL     1       6.239   4.410  16.546  0.00  0.00    +0.000 N 
ATOM      6  C   UNL     1       6.711   4.627  17.880  0.00  0.00    +0.000 C 
ATOM      7  C   UNL     1       5.935   5.740  18.524  0.00  0.00    +0.000 C 
ATOM      8  C   UNL     1       4.465   5.420  18.416  0.00  0.00    +0.000 A 
ATOM      9  C   UNL     1       3.722   6.042  19.436  0.00  0.00    +0.000 A 
ATOM     10  C   UNL     1       2.474   5.594  19.798  0.00  0.00    +0.000 A 
ATOM     11  C   UNL     1       1.937   4.531  19.040  0.00  0.00    +0.000 A 
ATOM     12  C   UNL     1       2.647   4.006  17.877  0.00  0.00    +0.000 A 
ATOM     13  C   UNL     1       3.933   4.462  17.496  0.00  0.00    +0.000 A 
ATOM     14  C   UNL     1       4.915   3.779  16.404  0.00  0.00    +0.000 C 
ATOM     15  C   UNL     1       4.730   3.498  14.747  0.00  0.00    +0.000 C 
ENDROOT
BRANCH  10  16
ATOM     16  O   UNL     1       1.843   6.074  20.915  0.00  0.00    +0.000 OA
ATOM     17  C   UNL     1       1.561   7.471  21.002  0.00  0.00    +0.000 C 
ENDBRANCH  10  16
BRANCH  11  18
ATOM     18  O   UNL     1       0.765   3.860  19.345  0.00  0.00    +0.000 OA
ATOM     19  C   UNL     1       0.852   2.657  20.129  0.00  0.00    +0.000 C 
ENDBRANCH  11  18
BRANCH   1  20
ATOM     20  C   UNL     1       6.413   3.327  12.716  0.00  0.00    +0.000 C 
BRANCH  20  21
ATOM     21  C   UNL     1       5.769   2.530  11.574  0.00  0.00    +0.000 C 
BRANCH  21  23
ATOM     22  C   UNL     1       6.282   0.009  11.327  0.00  0.00    +0.000 C 
ATOM     23  C   UNL     1       6.770   1.433  11.110  0.00  0.00    +0.000 C 
ENDBRANCH  21  23
ENDBRANCH  20  21
ENDBRANCH   1  20
TORSDOF 5
ENDMDL
MODEL 6
REMARK VINA RESULT:      -6.3      3.645      4.606
REMARK  Name = 
REMARK  8 active torsions:
REMARK  status: ('A' for Active; 'I' for Inactive)
REMARK    1  A    between atoms: C_1  and  C_2
REMARK    2  A    between atoms: C_2  and  C_3
REMARK    3  A    between atoms: C_3  and  C_4
REMARK    4  A    between atoms: C_4  and  N_5
REMARK    5  A    between atoms: C_14  and  O_15
REMARK    6  A    between atoms: O_15  and  C_16
REMARK    7  A    between atoms: C_17  and  O_18
REMARK    8  A    between atoms: O_18  and  C_19
REMARK                            x       y       z     vdW  Elec       q    Type
REMARK                         _______ _______ _______ _____ _____    ______ ____
ROOT
ATOM      1  N   UNL     1       6.411   4.616  13.832  0.00  0.00    +0.000 NA
ATOM      2  C   UNL     1       7.274   5.533  14.629  0.00  0.00    +0.000 C 
ATOM      3  C   UNL     1       6.738   5.739  15.983  0.00  0.00    +0.000 C 
ATOM      4  O   UNL     1       6.321   6.836  16.327  0.00  0.00    +0.000 OA
ATOM      5  N   UNL     1       6.921   4.587  16.706  0.00  0.00    +0.000 N 
ATOM      6  C   UNL     1       7.328   4.721  18.071  0.00  0.00    +0.000 C 
ATOM      7  C   UNL     1       6.284   5.473  18.847  0.00  0.00    +0.000 C 
ATOM      8  C   UNL     1       4.956   4.786  18.646  0.00  0.00    +0.000 A 
ATOM      9  C   UNL     1       4.081   5.022  19.723  0.00  0.00    +0.000 A 
ATOM     10  C   UNL     1       3.006   4.203  19.975  0.00  0.00    +0.000 A 
ATOM     11  C   UNL     1       2.773   3.160  19.052  0.00  0.00    +0.000 A 
ATOM     12  C   UNL     1       3.588   3.029  17.848  0.00  0.00    +0.000 A 
ATOM     13  C   UNL     1       4.697   3.869  17.579  0.00  0.00    +0.000 A 
ATOM     14  C   UNL     1       5.818   3.649  16.430  0.00  0.00    +0.000 C 
ATOM     15  C   UNL     1       5.701   3.581  14.746  0.00  0.00    +0.000 C 
ENDROOT
BRANCH  10  16
ATOM     16  O   UNL     1       2.278   4.321  21.129  0.00  0.00    +0.000 OA
ATOM     17  C   UNL     1       2.177   3.193  21.999  0.00  0.00    +0.000 C 
ENDBRANCH  10  16
BRANCH  11  18
ATOM     18  O   UNL     1       1.831   2.158  19.218  0.00  0.00    +0.000 OA
ATOM     19  C   UNL     1       0.487   2.407  18.773  0.00  0.00    +0.000 C 
ENDBRANCH  11  18
BRANCH   1  20
ATOM     20  C   UNL     1       7.347   4.180  12.766  0.00  0.00    +0.000 C 
BRANCH  20  21
ATOM     21  C   UNL     1       6.920   3.566  11.427  0.00  0.00    +0.000 C 
BRANCH  21  23
ATOM     22  C   UNL     1       6.381   1.068  11.046  0.00  0.00    +0.000 C 
ATOM     23  C   UNL     1       5.966   2.370  11.712  0.00  0.00    +0.000 C 
ENDBRANCH  21  23
ENDBRANCH  20  21
ENDBRANCH   1  20
TORSDOF 5
ENDMDL
MODEL 7
REMARK VINA RESULT:      -6.1      3.720      9.116
REMARK  Name = 
REMARK  8 active torsions:
REMARK  status: ('A' for Active; 'I' for Inactive)
REMARK    1  A    between atoms: C_1  and  C_2
REMARK    2  A    between atoms: C_2  and  C_3
REMARK    3  A    between atoms: C_3  and  C_4
REMARK    4  A    between atoms: C_4  and  N_5
REMARK    5  A    between atoms: C_14  and  O_15
REMARK    6  A    between atoms: O_15  and  C_16
REMARK    7  A    between atoms: C_17  and  O_18
REMARK    8  A    between atoms: O_18  and  C_19
REMARK                            x       y       z     vdW  Elec       q    Type
REMARK                         _______ _______ _______ _____ _____    ______ ____
ROOT
ATOM      1  N   UNL     1      -0.226  11.911  22.487  0.00  0.00    +0.000 NA
ATOM      2  C   UNL     1      -0.170  12.557  21.145  0.00  0.00    +0.000 C 
ATOM      3  C   UNL     1       0.535  11.712  20.168  0.00  0.00    +0.000 C 
ATOM      4  O   UNL     1       1.607  12.067  19.698  0.00  0.00    +0.000 OA
ATOM      5  N   UNL     1      -0.265  10.641  19.859  0.00  0.00    +0.000 N 
ATOM      6  C   UNL     1      -0.309  10.223  18.491  0.00  0.00    +0.000 C 
ATOM      7  C   UNL     1       1.059   9.795  18.040  0.00  0.00    +0.000 C 
ATOM      8  C   UNL     1       1.574   8.756  19.005  0.00  0.00    +0.000 A 
ATOM      9  C   UNL     1       2.516   7.905  18.397  0.00  0.00    +0.000 A 
ATOM     10  C   UNL     1       2.813   6.667  18.914  0.00  0.00    +0.000 A 
ATOM     11  C   UNL     1       2.189   6.323  20.133  0.00  0.00    +0.000 A 
ATOM     12  C   UNL     1       1.344   7.281  20.840  0.00  0.00    +0.000 A 
ATOM     13  C   UNL     1       1.033   8.560  20.314  0.00  0.00    +0.000 A 
ATOM     14  C   UNL     1      -0.091   9.585  20.872  0.00  0.00    +0.000 C 
ATOM     15  C   UNL     1      -0.259  10.364  22.362  0.00  0.00    +0.000 C 
ENDROOT
BRANCH  10  16
ATOM     16  O   UNL     1       3.577   5.770  18.217  0.00  0.00    +0.000 OA
ATOM     17  C   UNL     1       4.932   5.561  18.615  0.00  0.00    +0.000 C 
ENDBRANCH  10  16
BRANCH  11  18
ATOM     18  O   UNL     1       2.256   5.073  20.726  0.00  0.00    +0.000 OA
ATOM     19  C   UNL     1       1.181   4.148  20.490  0.00  0.00    +0.000 C 
ENDBRANCH  11  18
BRANCH   1  20
ATOM     20  C   UNL     1      -1.343  12.651  23.125  0.00  0.00    +0.000 C 
BRANCH  20  21
ATOM     21  C   UNL     1      -1.538  14.171  23.049  0.00  0.00    +0.000 C 
BRANCH  21  23
ATOM     22  C   UNL     1      -2.601  15.343  25.093  0.00  0.00    +0.000 C 
ATOM     23  C   UNL     1      -1.337  14.767  24.472  0.00  0.00    +0.000 C 
ENDBRANCH  21  23
ENDBRANCH  20  21
ENDBRANCH   1  20
TORSDOF 5
ENDMDL
MODEL 8
REMARK VINA RESULT:      -6.0      3.487      8.768
REMARK  Name = 
REMARK  8 active torsions:
REMARK  status: ('A' for Active; 'I' for Inactive)
REMARK    1  A    between atoms: C_1  and  C_2
REMARK    2  A    between atoms: C_2  and  C_3
REMARK    3  A    between atoms: C_3  and  C_4
REMARK    4  A    between atoms: C_4  and  N_5
REMARK    5  A    between atoms: C_14  and  O_15
REMARK    6  A    between atoms: O_15  and  C_16
REMARK    7  A    between atoms: C_17  and  O_18
REMARK    8  A    between atoms: O_18  and  C_19
REMARK                            x       y       z     vdW  Elec       q    Type
REMARK                         _______ _______ _______ _____ _____    ______ ____
ROOT
ATOM      1  N   UNL     1       0.442  12.182  21.699  0.00  0.00    +0.000 NA
ATOM      2  C   UNL     1       0.532  12.606  20.274  0.00  0.00    +0.000 C 
ATOM      3  C   UNL     1       1.140  11.560  19.436  0.00  0.00    +0.000 C 
ATOM      4  O   UNL     1       2.231  11.739  18.913  0.00  0.00    +0.000 OA
ATOM      5  N   UNL     1       0.242  10.532  19.299  0.00  0.00    +0.000 N 
ATOM      6  C   UNL     1       0.136   9.914  18.013  0.00  0.00    +0.000 C 
ATOM      7  C   UNL     1       1.452   9.299  17.628  0.00  0.00    +0.000 C 
ATOM      8  C   UNL     1       1.889   8.378  18.740  0.00  0.00    +0.000 A 
ATOM      9  C   UNL     1       2.739   7.361  18.267  0.00  0.00    +0.000 A 
ATOM     10  C   UNL     1       2.933   6.195  18.969  0.00  0.00    +0.000 A 
ATOM     11  C   UNL     1       2.302   6.101  20.229  0.00  0.00    +0.000 A 
ATOM     12  C   UNL     1       1.560   7.230  20.782  0.00  0.00    +0.000 A 
ATOM     13  C   UNL     1       1.355   8.436  20.066  0.00  0.00    +0.000 A 
ATOM     14  C   UNL     1       0.339   9.633  20.463  0.00  0.00    +0.000 C 
ATOM     15  C   UNL     1       0.268  10.643  21.816  0.00  0.00    +0.000 C 
ENDROOT
BRANCH  10  16
ATOM     16  O   UNL     1       3.601   5.135  18.416  0.00  0.00    +0.000 OA
ATOM     17  C   UNL     1       2.917   4.298  17.484  0.00  0.00    +0.000 C 
ENDBRANCH  10  16
BRANCH  11  18
ATOM     18  O   UNL     1       2.268   4.956  21.008  0.00  0.00    +0.000 OA
ATOM     19  C   UNL     1       1.232   3.992  20.756  0.00  0.00    +0.000 C 
ENDBRANCH  11  18
BRANCH   1  20
ATOM     20  C   UNL     1      -0.593  13.111  22.220  0.00  0.00    +0.000 C 
BRANCH  20  21
ATOM     21  C   UNL     1      -1.744  12.703  23.147  0.00  0.00    +0.000 C 
BRANCH  21  23
ATOM     22  C   UNL     1      -3.697  13.731  24.492  0.00  0.00    +0.000 C 
ATOM     23  C   UNL     1      -2.563  13.976  23.508  0.00  0.00    +0.000 C 
ENDBRANCH  21  23
ENDBRANCH  20  21
ENDBRANCH   1  20
TORSDOF 5
ENDMDL
MODEL 9
REMARK VINA RESULT:      -5.8      3.374      8.324
REMARK  Name = 
REMARK  8 active torsions:
REMARK  status: ('A' for Active; 'I' for Inactive)
REMARK    1  A    between atoms: C_1  and  C_2
REMARK    2  A    between atoms: C_2  and  C_3
REMARK    3  A    between atoms: C_3  and  C_4
REMARK    4  A    between atoms: C_4  and  N_5
REMARK    5  A    between atoms: C_14  and  O_15
REMARK    6  A    between atoms: O_15  and  C_16
REMARK    7  A    between atoms: C_17  and  O_18
REMARK    8  A    between atoms: O_18  and  C_19
REMARK                            x       y       z     vdW  Elec       q    Type
REMARK                         _______ _______ _______ _____ _____    ______ ____
ROOT
ATOM      1  N   UNL     1       0.562  12.336  21.681  0.00  0.00    +0.000 NA
ATOM      2  C   UNL     1       0.580  12.746  20.249  0.00  0.00    +0.000 C 
ATOM      3  C   UNL     1       1.129  11.687  19.389  0.00  0.00    +0.000 C 
ATOM      4  O   UNL     1       2.193  11.848  18.806  0.00  0.00    +0.000 OA
ATOM      5  N   UNL     1       0.214  10.667  19.311  0.00  0.00    +0.000 N 
ATOM      6  C   UNL     1       0.031  10.040  18.038  0.00  0.00    +0.000 C 
ATOM      7  C   UNL     1       1.317   9.406  17.589  0.00  0.00    +0.000 C 
ATOM      8  C   UNL     1       1.804   8.489  18.684  0.00  0.00    +0.000 A 
ATOM      9  C   UNL     1       2.616   7.459  18.176  0.00  0.00    +0.000 A 
ATOM     10  C   UNL     1       2.835   6.297  18.877  0.00  0.00    +0.000 A 
ATOM     11  C   UNL     1       2.272   6.221  20.170  0.00  0.00    +0.000 A 
ATOM     12  C   UNL     1       1.574   7.364  20.751  0.00  0.00    +0.000 A 
ATOM     13  C   UNL     1       1.344   8.565  20.037  0.00  0.00    +0.000 A 
ATOM     14  C   UNL     1       0.364   9.778  20.476  0.00  0.00    +0.000 C 
ATOM     15  C   UNL     1       0.378  10.801  21.821  0.00  0.00    +0.000 C 
ENDROOT
BRANCH  10  16
ATOM     16  O   UNL     1       3.460   5.224  18.299  0.00  0.00    +0.000 OA
ATOM     17  C   UNL     1       4.302   5.444  17.167  0.00  0.00    +0.000 C 
ENDBRANCH  10  16
BRANCH  11  18
ATOM     18  O   UNL     1       2.268   5.084  20.961  0.00  0.00    +0.000 OA
ATOM     19  C   UNL     1       1.265   4.085  20.711  0.00  0.00    +0.000 C 
ENDBRANCH  11  18
BRANCH   1  20
ATOM     20  C   UNL     1      -0.432  13.282  22.248  0.00  0.00    +0.000 C 
BRANCH  20  21
ATOM     21  C   UNL     1      -1.514  14.001  21.433  0.00  0.00    +0.000 C 
BRANCH  21  23
ATOM     22  C   UNL     1      -3.085  12.527  20.006  0.00  0.00    +0.000 C 
ATOM     23  C   UNL     1      -2.779  13.095  21.382  0.00  0.00    +0.000 C 
ENDBRANCH  21  23
ENDBRANCH  20  21
ENDBRANCH   1  20
TORSDOF 5
ENDMDL
