MODEL 1
REMARK VINA RESULT:      -7.3      0.000      0.000
REMARK  Name = 
REMARK  7 active torsions:
REMARK  status: ('A' for Active; 'I' for Inactive)
REMARK    1  A    between atoms: C_1  and  O_2
REMARK    2  A    between atoms: O_2  and  C_3
REMARK    3  A    between atoms: C_3  and  C_4
REMARK    4  A    between atoms: C_4  and  O_5
REMARK    5  A    between atoms: O_5  and  C_6
REMARK    6  A    between atoms: C_12  and  N_13
REMARK    7  A    between atoms: C_14  and  C_16
REMARK                            x       y       z     vdW  Elec       q    Type
REMARK                         _______ _______ _______ _____ _____    ______ ____
ROOT
ATOM      1  N   UNL     1       5.467   3.341  16.561  0.00  0.00    +0.000 N 
ATOM      2  C   UNL     1       4.496   3.996  17.318  0.00  0.00    +0.000 C 
ATOM      3  O   UNL     1       3.864   4.974  16.923  0.00  0.00    +0.000 OA
ATOM      4  H   UNL     1       5.787   2.430  16.881  0.00  0.00    +0.000 HD
ENDROOT
BRANCH   2   5
ATOM      5  C   UNL     1       4.174   3.488  18.639  0.00  0.00    +0.000 A 
ATOM      6  C   UNL     1       5.096   2.768  19.442  0.00  0.00    +0.000 A 
ATOM      7  N   UNL     1       4.598   2.375  20.610  0.00  0.00    +0.000 NA
ATOM      8  N   UNL     1       3.321   2.812  20.581  0.00  0.00    +0.000 N 
ATOM      9  C   UNL     1       2.360   2.613  21.564  0.00  0.00    +0.000 A 
ATOM     10  C   UNL     1       1.121   3.092  21.398  0.00  0.00    +0.000 A 
ATOM     11  C   UNL     1       0.901   3.837  20.126  0.00  0.00    +0.000 A 
ATOM     12  N   UNL     1       1.775   4.050  19.184  0.00  0.00    +0.000 NA
ATOM     13  C   UNL     1       3.021   3.517  19.400  0.00  0.00    +0.000 A 
ENDBRANCH   2   5
BRANCH   1  20
ATOM     14  C   UNL     1       7.049   4.673  15.169  0.00  0.00    +0.000 A 
ATOM     15  C   UNL     1       7.467   5.072  13.879  0.00  0.00    +0.000 A 
ATOM     16  C   UNL     1       6.831   4.619  12.726  0.00  0.00    +0.000 A 
ATOM     17  C   UNL     1       5.739   3.784  12.844  0.00  0.00    +0.000 A 
ATOM     18 CL   UNL     1       4.943   3.212  11.430  0.00  0.00    +0.000 Cl
ATOM     19  C   UNL     1       5.284   3.403  14.104  0.00  0.00    +0.000 A 
ATOM     20  C   UNL     1       5.938   3.805  15.287  0.00  0.00    +0.000 A 
BRANCH  14  21
ATOM     21  O   UNL     1       7.716   5.072  16.317  0.00  0.00    +0.000 OA
BRANCH  21  22
ATOM     22  C   UNL     1       7.177   6.258  16.931  0.00  0.00    +0.000 C 
BRANCH  22  23
ATOM     23  C   UNL     1       7.449   6.330  18.427  0.00  0.00    +0.000 C 
BRANCH  23  25
ATOM     24  C   UNL     1       8.053   8.542  17.834  0.00  0.00    +0.000 C 
ATOM     25  O   UNL     1       8.347   7.423  18.657  0.00  0.00    +0.000 OA
ENDBRANCH  23  25
ENDBRANCH  22  23
ENDBRANCH  21  22
ENDBRANCH  14  21
ENDBRANCH   1  20
TORSDOF 6
ENDMDL
MODEL 2
REMARK VINA RESULT:      -7.1      4.688      6.635
REMARK  Name = 
REMARK  7 active torsions:
REMARK  status: ('A' for Active; 'I' for Inactive)
REMARK    1  A    between atoms: C_1  and  O_2
REMARK    2  A    between atoms: O_2  and  C_3
REMARK    3  A    between atoms: C_3  and  C_4
REMARK    4  A    between atoms: C_4  and  O_5
REMARK    5  A    between atoms: O_5  and  C_6
REMARK    6  A    between atoms: C_12  and  N_13
REMARK    7  A    between atoms: C_14  and  C_16
REMARK                            x       y       z     vdW  Elec       q    Type
REMARK                         _______ _______ _______ _____ _____    ______ ____
ROOT
ATOM      1  N   UNL     1       2.520   7.297  18.872  0.00  0.00    +0.000 N 
ATOM      2  C   UNL     1       2.116   8.500  18.294  0.00  0.00    +0.000 C 
ATOM      3  O   UNL     1       2.338   8.806  17.124  0.00  0.00    +0.000 OA
ATOM      4  H   UNL     1       2.120   7.041  19.771  0.00  0.00    +0.000 HD
ENDROOT
BRANCH   2   5
ATOM      5  C   UNL     1       1.357   9.443  19.093  0.00  0.00    +0.000 A 
ATOM      6  C   UNL     1       1.086  10.773  18.680  0.00  0.00    +0.000 A 
ATOM      7  N   UNL     1       0.392  11.480  19.566  0.00  0.00    +0.000 NA
ATOM      8  N   UNL     1       0.216  10.626  20.596  0.00  0.00    +0.000 N 
ATOM      9  C   UNL     1      -0.422  10.904  21.798  0.00  0.00    +0.000 A 
ATOM     10  C   UNL     1      -0.513   9.961  22.744  0.00  0.00    +0.000 A 
ATOM     11  C   UNL     1       0.091   8.648  22.382  0.00  0.00    +0.000 A 
ATOM     12  N   UNL     1       0.692   8.345  21.267  0.00  0.00    +0.000 NA
ATOM     13  C   UNL     1       0.774   9.357  20.344  0.00  0.00    +0.000 A 
ENDBRANCH   2   5
BRANCH   1  20
ATOM     14  C   UNL     1       2.881   5.047  17.861  0.00  0.00    +0.000 A 
ATOM     15  C   UNL     1       3.756   4.157  17.196  0.00  0.00    +0.000 A 
ATOM     16  C   UNL     1       5.060   4.518  16.863  0.00  0.00    +0.000 A 
ATOM     17  C   UNL     1       5.525   5.767  17.221  0.00  0.00    +0.000 A 
ATOM     18 CL   UNL     1       7.131   6.231  16.815  0.00  0.00    +0.000 Cl
ATOM     19  C   UNL     1       4.694   6.651  17.907  0.00  0.00    +0.000 A 
ATOM     20  C   UNL     1       3.355   6.333  18.214  0.00  0.00    +0.000 A 
BRANCH  14  21
ATOM     21  O   UNL     1       1.565   4.715  18.139  0.00  0.00    +0.000 OA
BRANCH  21  22
ATOM     22  C   UNL     1       1.362   3.325  18.461  0.00  0.00    +0.000 C 
BRANCH  22  23
ATOM     23  C   UNL     1       0.687   3.118  19.810  0.00  0.00    +0.000 C 
BRANCH  23  25
ATOM     24  C   UNL     1       2.205   3.750  21.515  0.00  0.00    +0.000 C 
ATOM     25  O   UNL     1       1.129   4.163  20.686  0.00  0.00    +0.000 OA
ENDBRANCH  23  25
ENDBRANCH  22  23
ENDBRANCH  21  22
ENDBRANCH  14  21
ENDBRANCH   1  20
TORSDOF 6
ENDMDL
MODEL 3
REMARK VINA RESULT:      -6.9      4.695      6.649
REMARK  Name = 
REMARK  7 active torsions:
REMARK  status: ('A' for Active; 'I' for Inactive)
REMARK    1  A    between atoms: C_1  and  O_2
REMARK    2  A    between atoms: O_2  and  C_3
REMARK    3  A    between atoms: C_3  and  C_4
REMARK    4  A    between atoms: C_4  and  O_5
REMARK    5  A    between atoms: O_5  and  C_6
REMARK    6  A    between atoms: C_12  and  N_13
REMARK    7  A    between atoms: C_14  and  C_16
REMARK                            x       y       z     vdW  Elec       q    Type
REMARK                         _______ _______ _______ _____ _____    ______ ____
ROOT
ATOM      1  N   UNL     1       2.613   6.547  19.189  0.00  0.00    +0.000 N 
ATOM      2  C   UNL     1       2.203   7.822  18.802  0.00  0.00    +0.000 C 
ATOM      3  O   UNL     1       2.414   8.301  17.689  0.00  0.00    +0.000 OA
ATOM      4  H   UNL     1       2.221   6.159  20.044  0.00  0.00    +0.000 HD
ENDROOT
BRANCH   2   5
ATOM      5  C   UNL     1       1.452   8.634  19.741  0.00  0.00    +0.000 A 
ATOM      6  C   UNL     1       1.373   8.348  21.129  0.00  0.00    +0.000 A 
ATOM      7  N   UNL     1       0.619   9.203  21.811  0.00  0.00    +0.000 NA
ATOM      8  N   UNL     1       0.164  10.058  20.871  0.00  0.00    +0.000 N 
ATOM      9  C   UNL     1      -0.706  11.121  21.074  0.00  0.00    +0.000 A 
ATOM     10  C   UNL     1      -1.087  11.883  20.042  0.00  0.00    +0.000 A 
ATOM     11  C   UNL     1      -0.496  11.503  18.728  0.00  0.00    +0.000 A 
ATOM     12  N   UNL     1       0.326  10.519  18.496  0.00  0.00    +0.000 NA
ATOM     13  C   UNL     1       0.664   9.760  19.588  0.00  0.00    +0.000 A 
ENDBRANCH   2   5
BRANCH   1  20
ATOM     14  C   UNL     1       2.926   4.553  17.727  0.00  0.00    +0.000 A 
ATOM     15  C   UNL     1       3.798   3.770  16.937  0.00  0.00    +0.000 A 
ATOM     16  C   UNL     1       5.142   4.102  16.775  0.00  0.00    +0.000 A 
ATOM     17  C   UNL     1       5.646   5.206  17.430  0.00  0.00    +0.000 A 
ATOM     18 CL   UNL     1       7.301   5.633  17.239  0.00  0.00    +0.000 Cl
ATOM     19  C   UNL     1       4.816   5.975  18.243  0.00  0.00    +0.000 A 
ATOM     20  C   UNL     1       3.441   5.693  18.387  0.00  0.00    +0.000 A 
BRANCH  14  21
ATOM     21  O   UNL     1       1.575   4.262  17.842  0.00  0.00    +0.000 OA
BRANCH  21  22
ATOM     22  C   UNL     1       1.296   2.990  18.459  0.00  0.00    +0.000 C 
BRANCH  22  23
ATOM     23  C   UNL     1       0.706   3.123  19.857  0.00  0.00    +0.000 C 
BRANCH  23  25
ATOM     24  C   UNL     1       2.225   3.500  21.634  0.00  0.00    +0.000 C 
ATOM     25  O   UNL     1       1.630   2.535  20.780  0.00  0.00    +0.000 OA
ENDBRANCH  23  25
ENDBRANCH  22  23
ENDBRANCH  21  22
ENDBRANCH  14  21
ENDBRANCH   1  20
TORSDOF 6
ENDMDL
MODEL 4
REMARK VINA RESULT:      -6.8      4.643      6.722
REMARK  Name = 
REMARK  7 active torsions:
REMARK  status: ('A' for Active; 'I' for Inactive)
REMARK    1  A    between atoms: C_1  and  O_2
REMARK    2  A    between atoms: O_2  and  C_3
REMARK    3  A    between atoms: C_3  and  C_4
REMARK    4  A    between atoms: C_4  and  O_5
REMARK    5  A    between atoms: O_5  and  C_6
REMARK    6  A    between atoms: C_12  and  N_13
REMARK    7  A    between atoms: C_14  and  C_16
REMARK                            x       y       z     vdW  Elec       q    Type
REMARK                         _______ _______ _______ _____ _____    ______ ____
ROOT
ATOM      1  N   UNL     1       2.392   7.195  19.076  0.00  0.00    +0.000 N 
ATOM      2  C   UNL     1       2.065   8.389  18.434  0.00  0.00    +0.000 C 
ATOM      3  O   UNL     1       2.490   8.711  17.326  0.00  0.00    +0.000 OA
ATOM      4  H   UNL     1       1.841   6.921  19.885  0.00  0.00    +0.000 HD
ENDROOT
BRANCH   2   5
ATOM      5  C   UNL     1       1.142   9.304  19.080  0.00  0.00    +0.000 A 
ATOM      6  C   UNL     1       0.438  10.320  18.384  0.00  0.00    +0.000 A 
ATOM      7  N   UNL     1      -0.343  11.062  19.163  0.00  0.00    +0.000 NA
ATOM      8  N   UNL     1      -0.141  10.558  20.399  0.00  0.00    +0.000 N 
ATOM      9  C   UNL     1      -0.704  11.022  21.581  0.00  0.00    +0.000 A 
ATOM     10  C   UNL     1      -0.404  10.433  22.745  0.00  0.00    +0.000 A 
ATOM     11  C   UNL     1       0.531   9.277  22.640  0.00  0.00    +0.000 A 
ATOM     12  N   UNL     1       1.075   8.808  21.554  0.00  0.00    +0.000 NA
ATOM     13  C   UNL     1       0.747   9.465  20.395  0.00  0.00    +0.000 A 
ENDBRANCH   2   5
BRANCH   1  20
ATOM     14  C   UNL     1       3.761   5.128  19.331  0.00  0.00    +0.000 A 
ATOM     15  C   UNL     1       4.709   4.240  18.771  0.00  0.00    +0.000 A 
ATOM     16  C   UNL     1       5.244   4.440  17.500  0.00  0.00    +0.000 A 
ATOM     17  C   UNL     1       4.865   5.553  16.778  0.00  0.00    +0.000 A 
ATOM     18 CL   UNL     1       5.513   5.814  15.206  0.00  0.00    +0.000 Cl
ATOM     19  C   UNL     1       3.959   6.462  17.320  0.00  0.00    +0.000 A 
ATOM     20  C   UNL     1       3.364   6.261  18.583  0.00  0.00    +0.000 A 
BRANCH  14  21
ATOM     21  O   UNL     1       3.181   4.901  20.569  0.00  0.00    +0.000 OA
BRANCH  21  22
ATOM     22  C   UNL     1       2.524   3.624  20.687  0.00  0.00    +0.000 C 
BRANCH  22  23
ATOM     23  C   UNL     1       1.016   3.710  20.494  0.00  0.00    +0.000 C 
BRANCH  23  25
ATOM     24  C   UNL     1       1.712   1.992  19.020  0.00  0.00    +0.000 C 
ATOM     25  O   UNL     1       0.671   2.891  19.370  0.00  0.00    +0.000 OA
ENDBRANCH  23  25
ENDBRANCH  22  23
ENDBRANCH  21  22
ENDBRANCH  14  21
ENDBRANCH   1  20
TORSDOF 6
ENDMDL
MODEL 5
REMARK VINA RESULT:      -6.8      4.781      6.266
REMARK  Name = 
REMARK  7 active torsions:
REMARK  status: ('A' for Active; 'I' for Inactive)
REMARK    1  A    between atoms: C_1  and  O_2
REMARK    2  A    between atoms: O_2  and  C_3
REMARK    3  A    between atoms: C_3  and  C_4
REMARK    4  A    between atoms: C_4  and  O_5
REMARK    5  A    between atoms: O_5  and  C_6
REMARK    6  A    between atoms: C_12  and  N_13
REMARK    7  A    between atoms: C_14  and  C_16
REMARK                            x       y       z     vdW  Elec       q    Type
REMARK                         _______ _______ _______ _____ _____    ______ ____
ROOT
ATOM      1  N   UNL     1       2.209   7.047  19.028  0.00  0.00    +0.000 N 
ATOM      2  C   UNL     1       1.731   7.230  20.325  0.00  0.00    +0.000 C 
ATOM      3  O   UNL     1       1.652   6.331  21.159  0.00  0.00    +0.000 OA
ATOM      4  H   UNL     1       2.431   7.874  18.480  0.00  0.00    +0.000 HD
ENDROOT
BRANCH   2   5
ATOM      5  C   UNL     1       1.330   8.561  20.745  0.00  0.00    +0.000 A 
ATOM      6  C   UNL     1       1.409   9.009  22.089  0.00  0.00    +0.000 A 
ATOM      7  N   UNL     1       0.975  10.253  22.265  0.00  0.00    +0.000 NA
ATOM      8  N   UNL     1       0.576  10.636  21.034  0.00  0.00    +0.000 N 
ATOM      9  C   UNL     1       0.002  11.853  20.694  0.00  0.00    +0.000 A 
ATOM     10  C   UNL     1      -0.361  12.096  19.429  0.00  0.00    +0.000 A 
ATOM     11  C   UNL     1      -0.078  10.989  18.472  0.00  0.00    +0.000 A 
ATOM     12  N   UNL     1       0.462   9.837  18.748  0.00  0.00    +0.000 NA
ATOM     13  C   UNL     1       0.793   9.637  20.064  0.00  0.00    +0.000 A 
ENDBRANCH   2   5
BRANCH   1  20
ATOM     14  C   UNL     1       3.717   5.564  17.709  0.00  0.00    +0.000 A 
ATOM     15  C   UNL     1       3.989   4.270  17.208  0.00  0.00    +0.000 A 
ATOM     16  C   UNL     1       3.144   3.191  17.459  0.00  0.00    +0.000 A 
ATOM     17  C   UNL     1       1.991   3.395  18.189  0.00  0.00    +0.000 A 
ATOM     18 CL   UNL     1       0.939   2.073  18.512  0.00  0.00    +0.000 Cl
ATOM     19  C   UNL     1       1.682   4.667  18.666  0.00  0.00    +0.000 A 
ATOM     20  C   UNL     1       2.542   5.768  18.470  0.00  0.00    +0.000 A 
BRANCH  14  21
ATOM     21  O   UNL     1       4.585   6.627  17.513  0.00  0.00    +0.000 OA
BRANCH  21  22
ATOM     22  C   UNL     1       5.548   6.417  16.463  0.00  0.00    +0.000 C 
BRANCH  22  23
ATOM     23  C   UNL     1       6.979   6.327  16.976  0.00  0.00    +0.000 C 
BRANCH  23  25
ATOM     24  C   UNL     1       7.021   4.742  15.218  0.00  0.00    +0.000 C 
ATOM     25  O   UNL     1       7.544   5.104  16.486  0.00  0.00    +0.000 OA
ENDBRANCH  23  25
ENDBRANCH  22  23
ENDBRANCH  21  22
ENDBRANCH  14  21
ENDBRANCH   1  20
TORSDOF 6
ENDMDL
MODEL 6
REMARK VINA RESULT:      -6.8      1.410      1.829
REMARK  Name = 
REMARK  7 active torsions:
REMARK  status: ('A' for Active; 'I' for Inactive)
REMARK    1  A    between atoms: C_1  and  O_2
REMARK    2  A    between atoms: O_2  and  C_3
REMARK    3  A    between atoms: C_3  and  C_4
REMARK    4  A    between atoms: C_4  and  O_5
REMARK    5  A    between atoms: O_5  and  C_6
REMARK    6  A    between atoms: C_12  and  N_13
REMARK    7  A    between atoms: C_14  and  C_16
REMARK                            x       y       z     vdW  Elec       q    Type
REMARK                         _______ _______ _______ _____ _____    ______ ____
ROOT
ATOM      1  N   UNL     1       4.740   4.444  16.757  0.00  0.00    +0.000 N 
ATOM      2  C   UNL     1       4.077   5.554  17.280  0.00  0.00    +0.000 C 
ATOM      3  O   UNL     1       4.050   6.656  16.734  0.00  0.00    +0.000 OA
ATOM      4  H   UNL     1       4.541   3.534  17.164  0.00  0.00    +0.000 HD
ENDROOT
BRANCH   2   5
ATOM      5  C   UNL     1       3.343   5.413  18.523  0.00  0.00    +0.000 A 
ATOM      6  C   UNL     1       2.906   6.517  19.300  0.00  0.00    +0.000 A 
ATOM      7  N   UNL     1       2.267   6.172  20.413  0.00  0.00    +0.000 NA
ATOM      8  N   UNL     1       2.297   4.823  20.399  0.00  0.00    +0.000 N 
ATOM      9  C   UNL     1       1.792   3.976  21.377  0.00  0.00    +0.000 A 
ATOM     10  C   UNL     1       1.903   2.649  21.240  0.00  0.00    +0.000 A 
ATOM     11  C   UNL     1       2.572   2.201  19.986  0.00  0.00    +0.000 A 
ATOM     12  N   UNL     1       3.054   2.960  19.044  0.00  0.00    +0.000 NA
ATOM     13  C   UNL     1       2.930   4.311  19.249  0.00  0.00    +0.000 A 
ENDBRANCH   2   5
BRANCH   1  20
ATOM     14  C   UNL     1       6.853   5.093  15.605  0.00  0.00    +0.000 A 
ATOM     15  C   UNL     1       7.629   5.078  14.423  0.00  0.00    +0.000 A 
ATOM     16  C   UNL     1       7.178   4.465  13.256  0.00  0.00    +0.000 A 
ATOM     17  C   UNL     1       5.926   3.886  13.240  0.00  0.00    +0.000 A 
ATOM     18 CL   UNL     1       5.356   3.122  11.808  0.00  0.00    +0.000 Cl
ATOM     19  C   UNL     1       5.128   3.917  14.381  0.00  0.00    +0.000 A 
ATOM     20  C   UNL     1       5.576   4.486  15.591  0.00  0.00    +0.000 A 
BRANCH  14  21
ATOM     21  O   UNL     1       7.322   5.648  16.786  0.00  0.00    +0.000 OA
BRANCH  21  22
ATOM     22  C   UNL     1       7.460   7.081  16.751  0.00  0.00    +0.000 C 
BRANCH  22  23
ATOM     23  C   UNL     1       7.888   7.672  18.088  0.00  0.00    +0.000 C 
BRANCH  23  25
ATOM     24  C   UNL     1       8.923   9.720  18.672  0.00  0.00    +0.000 C 
ATOM     25  O   UNL     1       7.859   9.099  17.966  0.00  0.00    +0.000 OA
ENDBRANCH  23  25
ENDBRANCH  22  23
ENDBRANCH  21  22
ENDBRANCH  14  21
ENDBRANCH   1  20
TORSDOF 6
ENDMDL
MODEL 7
REMARK VINA RESULT:      -6.8      1.467      1.932
REMARK  Name = 
REMARK  7 active torsions:
REMARK  status: ('A' for Active; 'I' for Inactive)
REMARK    1  A    between atoms: C_1  and  O_2
REMARK    2  A    between atoms: O_2  and  C_3
REMARK    3  A    between atoms: C_3  and  C_4
REMARK    4  A    between atoms: C_4  and  O_5
REMARK    5  A    between atoms: O_5  and  C_6
REMARK    6  A    between atoms: C_12  and  N_13
REMARK    7  A    between atoms: C_14  and  C_16
REMARK                            x       y       z     vdW  Elec       q    Type
REMARK                         _______ _______ _______ _____ _____    ______ ____
ROOT
ATOM      1  N   UNL     1       4.737   4.457  16.316  0.00  0.00    +0.000 N 
ATOM      2  C   UNL     1       4.269   5.646  16.874  0.00  0.00    +0.000 C 
ATOM      3  O   UNL     1       4.386   6.746  16.339  0.00  0.00    +0.000 OA
ATOM      4  H   UNL     1       4.419   3.581  16.724  0.00  0.00    +0.000 HD
ENDROOT
BRANCH   2   5
ATOM      5  C   UNL     1       3.571   5.598  18.145  0.00  0.00    +0.000 A 
ATOM      6  C   UNL     1       3.017   6.745  18.773  0.00  0.00    +0.000 A 
ATOM      7  N   UNL     1       2.435   6.489  19.940  0.00  0.00    +0.000 NA
ATOM      8  N   UNL     1       2.622   5.163  20.113  0.00  0.00    +0.000 N 
ATOM      9  C   UNL     1       2.230   4.412  21.213  0.00  0.00    +0.000 A 
ATOM     10  C   UNL     1       2.494   3.100  21.258  0.00  0.00    +0.000 A 
ATOM     11  C   UNL     1       3.196   2.558  20.060  0.00  0.00    +0.000 A 
ATOM     12  N   UNL     1       3.575   3.227  19.009  0.00  0.00    +0.000 NA
ATOM     13  C   UNL     1       3.297   4.570  19.028  0.00  0.00    +0.000 A 
ENDBRANCH   2   5
BRANCH   1  20
ATOM     14  C   UNL     1       6.832   4.924  15.048  0.00  0.00    +0.000 A 
ATOM     15  C   UNL     1       7.554   4.802  13.839  0.00  0.00    +0.000 A 
ATOM     16  C   UNL     1       7.022   4.154  12.726  0.00  0.00    +0.000 A 
ATOM     17  C   UNL     1       5.741   3.646  12.792  0.00  0.00    +0.000 A 
ATOM     18 CL   UNL     1       5.071   2.839  11.428  0.00  0.00    +0.000 Cl
ATOM     19  C   UNL     1       4.995   3.782  13.960  0.00  0.00    +0.000 A 
ATOM     20  C   UNL     1       5.524   4.389  15.118  0.00  0.00    +0.000 A 
BRANCH  14  21
ATOM     21  O   UNL     1       7.379   5.514  16.177  0.00  0.00    +0.000 OA
BRANCH  21  22
ATOM     22  C   UNL     1       7.649   4.593  17.251  0.00  0.00    +0.000 C 
BRANCH  22  23
ATOM     23  C   UNL     1       7.679   5.264  18.618  0.00  0.00    +0.000 C 
BRANCH  23  25
ATOM     24  C   UNL     1       8.254   7.560  18.540  0.00  0.00    +0.000 C 
ATOM     25  O   UNL     1       7.205   6.607  18.457  0.00  0.00    +0.000 OA
ENDBRANCH  23  25
ENDBRANCH  22  23
ENDBRANCH  21  22
ENDBRANCH  14  21
ENDBRANCH   1  20
TORSDOF 6
ENDMDL
MODEL 8
REMARK VINA RESULT:      -6.8      1.340      1.790
REMARK  Name = 
REMARK  7 active torsions:
REMARK  status: ('A' for Active; 'I' for Inactive)
REMARK    1  A    between atoms: C_1  and  O_2
REMARK    2  A    between atoms: O_2  and  C_3
REMARK    3  A    between atoms: C_3  and  C_4
REMARK    4  A    between atoms: C_4  and  O_5
REMARK    5  A    between atoms: O_5  and  C_6
REMARK    6  A    between atoms: C_12  and  N_13
REMARK    7  A    between atoms: C_14  and  C_16
REMARK                            x       y       z     vdW  Elec       q    Type
REMARK                         _______ _______ _______ _____ _____    ______ ____
ROOT
ATOM      1  N   UNL     1       4.883   5.116  15.869  0.00  0.00    +0.000 N 
ATOM      2  C   UNL     1       4.420   4.191  16.804  0.00  0.00    +0.000 C 
ATOM      3  O   UNL     1       4.728   3.000  16.801  0.00  0.00    +0.000 OA
ATOM      4  H   UNL     1       4.745   6.104  16.066  0.00  0.00    +0.000 HD
ENDROOT
BRANCH   2   5
ATOM      5  C   UNL     1       3.551   4.647  17.873  0.00  0.00    +0.000 A 
ATOM      6  C   UNL     1       3.339   6.018  18.171  0.00  0.00    +0.000 A 
ATOM      7  N   UNL     1       2.522   6.223  19.200  0.00  0.00    +0.000 NA
ATOM      8  N   UNL     1       2.203   4.979  19.614  0.00  0.00    +0.000 N 
ATOM      9  C   UNL     1       1.398   4.652  20.697  0.00  0.00    +0.000 A 
ATOM     10  C   UNL     1       1.175   3.368  21.005  0.00  0.00    +0.000 A 
ATOM     11  C   UNL     1       1.829   2.382  20.098  0.00  0.00    +0.000 A 
ATOM     12  N   UNL     1       2.585   2.647  19.071  0.00  0.00    +0.000 NA
ATOM     13  C   UNL     1       2.795   3.979  18.817  0.00  0.00    +0.000 A 
ENDBRANCH   2   5
BRANCH   1  20
ATOM     14  C   UNL     1       6.981   5.251  14.530  0.00  0.00    +0.000 A 
ATOM     15  C   UNL     1       7.698   4.849  13.379  0.00  0.00    +0.000 A 
ATOM     16  C   UNL     1       7.152   3.977  12.440  0.00  0.00    +0.000 A 
ATOM     17  C   UNL     1       5.863   3.517  12.617  0.00  0.00    +0.000 A 
ATOM     18 CL   UNL     1       5.175   2.437  11.468  0.00  0.00    +0.000 Cl
ATOM     19  C   UNL     1       5.122   3.925  13.724  0.00  0.00    +0.000 A 
ATOM     20  C   UNL     1       5.664   4.768  14.717  0.00  0.00    +0.000 A 
BRANCH  14  21
ATOM     21  O   UNL     1       7.541   6.070  15.498  0.00  0.00    +0.000 OA
BRANCH  21  22
ATOM     22  C   UNL     1       7.450   5.546  16.837  0.00  0.00    +0.000 C 
BRANCH  22  23
ATOM     23  C   UNL     1       7.469   6.634  17.904  0.00  0.00    +0.000 C 
BRANCH  23  25
ATOM     24  C   UNL     1       8.163   8.896  17.978  0.00  0.00    +0.000 C 
ATOM     25  O   UNL     1       7.472   7.902  17.237  0.00  0.00    +0.000 OA
ENDBRANCH  23  25
ENDBRANCH  22  23
ENDBRANCH  21  22
ENDBRANCH  14  21
ENDBRANCH   1  20
TORSDOF 6
ENDMDL
MODEL 9
REMARK VINA RESULT:      -6.8      4.638      6.595
REMARK  Name = 
REMARK  7 active torsions:
REMARK  status: ('A' for Active; 'I' for Inactive)
REMARK    1  A    between atoms: C_1  and  O_2
REMARK    2  A    between atoms: O_2  and  C_3
REMARK    3  A    between atoms: C_3  and  C_4
REMARK    4  A    between atoms: C_4  and  O_5
REMARK    5  A    between atoms: O_5  and  C_6
REMARK    6  A    between atoms: C_12  and  N_13
REMARK    7  A    between atoms: C_14  and  C_16
REMARK                            x       y       z     vdW  Elec       q    Type
REMARK                         _______ _______ _______ _____ _____    ______ ____
ROOT
ATOM      1  N   UNL     1       2.608   7.447  18.154  0.00  0.00    +0.000 N 
ATOM      2  C   UNL     1       2.163   7.671  19.457  0.00  0.00    +0.000 C 
ATOM      3  O   UNL     1       2.514   7.000  20.426  0.00  0.00    +0.000 OA
ATOM      4  H   UNL     1       2.431   8.167  17.459  0.00  0.00    +0.000 HD
ENDROOT
BRANCH   2   5
ATOM      5  C   UNL     1       1.258   8.777  19.709  0.00  0.00    +0.000 A 
ATOM      6  C   UNL     1       0.819   9.669  18.697  0.00  0.00    +0.000 A 
ATOM      7  N   UNL     1       0.008  10.625  19.140  0.00  0.00    +0.000 NA
ATOM      8  N   UNL     1      -0.078  10.389  20.466  0.00  0.00    +0.000 N 
ATOM      9  C   UNL     1      -0.782  11.145  21.394  0.00  0.00    +0.000 A 
ATOM     10  C   UNL     1      -0.770  10.803  22.688  0.00  0.00    +0.000 A 
ATOM     11  C   UNL     1       0.020   9.580  23.006  0.00  0.00    +0.000 A 
ATOM     12  N   UNL     1       0.689   8.842  22.167  0.00  0.00    +0.000 NA
ATOM     13  C   UNL     1       0.657   9.253  20.859  0.00  0.00    +0.000 A 
ENDBRANCH   2   5
BRANCH   1  20
ATOM     14  C   UNL     1       2.917   5.011  17.725  0.00  0.00    +0.000 A 
ATOM     15  C   UNL     1       3.774   3.964  17.315  0.00  0.00    +0.000 A 
ATOM     16  C   UNL     1       5.093   4.201  16.932  0.00  0.00    +0.000 A 
ATOM     17  C   UNL     1       5.589   5.487  16.987  0.00  0.00    +0.000 A 
ATOM     18 CL   UNL     1       7.214   5.798  16.515  0.00  0.00    +0.000 Cl
ATOM     19  C   UNL     1       4.776   6.531  17.421  0.00  0.00    +0.000 A 
ATOM     20  C   UNL     1       3.424   6.331  17.767  0.00  0.00    +0.000 A 
BRANCH  14  21
ATOM     21  O   UNL     1       1.587   4.790  18.048  0.00  0.00    +0.000 OA
BRANCH  21  22
ATOM     22  C   UNL     1       1.368   3.641  18.889  0.00  0.00    +0.000 C 
BRANCH  22  23
ATOM     23  C   UNL     1       0.844   4.006  20.272  0.00  0.00    +0.000 C 
BRANCH  23  25
ATOM     24  C   UNL     1       2.810   2.791  20.787  0.00  0.00    +0.000 C 
ATOM     25  O   UNL     1       1.517   3.178  21.228  0.00  0.00    +0.000 OA
ENDBRANCH  23  25
ENDBRANCH  22  23
ENDBRANCH  21  22
ENDBRANCH  14  21
ENDBRANCH   1  20
TORSDOF 6
ENDMDL
