MODEL 1
REMARK VINA RESULT:      -8.7      0.000      0.000
REMARK  Name = 
REMARK  7 active torsions:
REMARK  status: ('A' for Active; 'I' for Inactive)
REMARK    1  A    between atoms: C_1  and  N_2
REMARK    2  A    between atoms: C_6  and  C_8
REMARK    3  A    between atoms: C_8  and  N_9
REMARK    4  A    between atoms: N_9  and  C_10
REMARK    5  A    between atoms: C_10  and  C_11
REMARK    6  A    between atoms: C_13  and  C_14
REMARK    7  A    between atoms: C_15  and  C_16
REMARK                            x       y       z     vdW  Elec       q    Type
REMARK                         _______ _______ _______ _____ _____    ______ ____
ROOT
ATOM      1  C   UNL     1       3.640   4.609  18.276  0.00  0.00    +0.000 A 
ATOM      2  C   UNL     1       4.839   4.087  17.799  0.00  0.00    +0.000 A 
ATOM      3  N   UNL     1       5.175   3.067  18.665  0.00  0.00    +0.000 N 
ATOM      4  C   UNL     1       4.239   2.922  19.658  0.00  0.00    +0.000 A 
ATOM      5  C   UNL     1       4.215   2.024  20.731  0.00  0.00    +0.000 A 
ATOM      6  F   UNL     1       5.216   1.152  20.913  0.00  0.00    +0.000 F 
ATOM      7  C   UNL     1       3.148   2.049  21.617  0.00  0.00    +0.000 A 
ATOM      8  C   UNL     1       2.127   2.957  21.411  0.00  0.00    +0.000 A 
ATOM      9  F   UNL     1       1.095   2.984  22.265  0.00  0.00    +0.000 F 
ATOM     10  C   UNL     1       2.145   3.859  20.342  0.00  0.00    +0.000 A 
ATOM     11  C   UNL     1       3.232   3.860  19.433  0.00  0.00    +0.000 A 
ATOM     12  H   UNL     1       5.989   2.478  18.578  0.00  0.00    +0.000 HD
ENDROOT
BRANCH   2  13
ATOM     13  C   UNL     1       5.664   4.397  16.619  0.00  0.00    +0.000 A 
ATOM     14  C   UNL     1       5.512   3.686  15.422  0.00  0.00    +0.000 A 
ATOM     15  C   UNL     1       6.266   4.026  14.291  0.00  0.00    +0.000 A 
ATOM     16  C   UNL     1       7.192   5.061  14.358  0.00  0.00    +0.000 A 
ATOM     17  F   UNL     1       7.904   5.387  13.274  0.00  0.00    +0.000 F 
ATOM     18  C   UNL     1       7.370   5.768  15.532  0.00  0.00    +0.000 A 
ATOM     19  C   UNL     1       6.600   5.444  16.647  0.00  0.00    +0.000 A 
ENDBRANCH   2  13
BRANCH   1  22
ATOM     20  C   UNL     1       2.395   7.266  19.128  0.00  0.00    +0.000 C 
ATOM     21  C   UNL     1       1.612   6.232  18.308  0.00  0.00    +0.000 C 
ATOM     22  C   UNL     1       2.955   5.821  17.628  0.00  0.00    +0.000 C 
ATOM     23  C   UNL     1       3.444   7.234  17.965  0.00  0.00    +0.000 C 
BRANCH  20  24
ATOM     24  C   UNL     1       1.651   8.556  19.449  0.00  0.00    +0.000 C 
BRANCH  24  25
ATOM     25  N   UNL     1       1.483   8.707  20.893  0.00  0.00    +0.000 NA
ATOM     26  H   UNL     1       1.799   7.874  21.390  0.00  0.00    +0.000 HD
BRANCH  25  27
ATOM     27  C   UNL     1       0.083   8.964  21.242  0.00  0.00    +0.000 C 
BRANCH  27  33
ATOM     28  C   UNL     1      -0.294  15.030  19.205  0.00  0.00    +0.000 C 
ATOM     29  N   UNL     1      -0.752  13.870  19.966  0.00  0.00    +0.000 NA
ATOM     30  C   UNL     1      -0.098  13.828  21.292  0.00  0.00    +0.000 C 
ATOM     31  C   UNL     1      -0.554  12.617  22.126  0.00  0.00    +0.000 C 
ATOM     32  N   UNL     1      -0.395  11.366  21.387  0.00  0.00    +0.000 N 
ATOM     33  C   UNL     1      -0.103  10.206  22.108  0.00  0.00    +0.000 C 
ATOM     34  O   UNL     1       0.031  10.190  23.331  0.00  0.00    +0.000 OA
ATOM     35  C   UNL     1      -0.927  11.385  20.019  0.00  0.00    +0.000 C 
ATOM     36  C   UNL     1      -0.462  12.624  19.235  0.00  0.00    +0.000 C 
ENDBRANCH  27  33
ENDBRANCH  25  27
ENDBRANCH  24  25
ENDBRANCH  20  24
ENDBRANCH   1  22
TORSDOF 6
ENDMDL
MODEL 2
REMARK VINA RESULT:      -8.5      0.992      1.107
REMARK  Name = 
REMARK  7 active torsions:
REMARK  status: ('A' for Active; 'I' for Inactive)
REMARK    1  A    between atoms: C_1  and  N_2
REMARK    2  A    between atoms: C_6  and  C_8
REMARK    3  A    between atoms: C_8  and  N_9
REMARK    4  A    between atoms: N_9  and  C_10
REMARK    5  A    between atoms: C_10  and  C_11
REMARK    6  A    between atoms: C_13  and  C_14
REMARK    7  A    between atoms: C_15  and  C_16
REMARK                            x       y       z     vdW  Elec       q    Type
REMARK                         _______ _______ _______ _____ _____    ______ ____
ROOT
ATOM      1  C   UNL     1       3.589   4.600  18.251  0.00  0.00    +0.000 A 
ATOM      2  C   UNL     1       4.802   4.089  17.798  0.00  0.00    +0.000 A 
ATOM      3  N   UNL     1       5.145   3.094  18.689  0.00  0.00    +0.000 N 
ATOM      4  C   UNL     1       4.200   2.953  19.675  0.00  0.00    +0.000 A 
ATOM      5  C   UNL     1       4.180   2.078  20.766  0.00  0.00    +0.000 A 
ATOM      6  F   UNL     1       5.193   1.228  20.977  0.00  0.00    +0.000 F 
ATOM      7  C   UNL     1       3.103   2.104  21.639  0.00  0.00    +0.000 A 
ATOM      8  C   UNL     1       2.068   2.989  21.403  0.00  0.00    +0.000 A 
ATOM      9  F   UNL     1       1.026   3.016  22.246  0.00  0.00    +0.000 F 
ATOM     10  C   UNL     1       2.083   3.869  20.315  0.00  0.00    +0.000 A 
ATOM     11  C   UNL     1       3.180   3.869  19.418  0.00  0.00    +0.000 A 
ATOM     12  H   UNL     1       5.970   2.517  18.623  0.00  0.00    +0.000 HD
ENDROOT
BRANCH   2  13
ATOM     13  C   UNL     1       5.634   4.388  16.621  0.00  0.00    +0.000 A 
ATOM     14  C   UNL     1       5.405   3.756  15.392  0.00  0.00    +0.000 A 
ATOM     15  C   UNL     1       6.170   4.088  14.267  0.00  0.00    +0.000 A 
ATOM     16  C   UNL     1       7.183   5.035  14.369  0.00  0.00    +0.000 A 
ATOM     17  F   UNL     1       7.906   5.354  13.290  0.00  0.00    +0.000 F 
ATOM     18  C   UNL     1       7.438   5.662  15.574  0.00  0.00    +0.000 A 
ATOM     19  C   UNL     1       6.657   5.348  16.685  0.00  0.00    +0.000 A 
ENDBRANCH   2  13
BRANCH   1  22
ATOM     20  C   UNL     1       2.362   7.290  19.022  0.00  0.00    +0.000 C 
ATOM     21  C   UNL     1       1.561   6.225  18.260  0.00  0.00    +0.000 C 
ATOM     22  C   UNL     1       2.890   5.786  17.569  0.00  0.00    +0.000 C 
ATOM     23  C   UNL     1       3.387   7.211  17.839  0.00  0.00    +0.000 C 
BRANCH  20  24
ATOM     24  C   UNL     1       1.625   8.593  19.307  0.00  0.00    +0.000 C 
BRANCH  24  25
ATOM     25  N   UNL     1       1.226   8.661  20.711  0.00  0.00    +0.000 NA
ATOM     26  H   UNL     1       0.300   8.255  20.851  0.00  0.00    +0.000 HD
BRANCH  25  27
ATOM     27  C   UNL     1       1.215  10.044  21.195  0.00  0.00    +0.000 C 
BRANCH  27  33
ATOM     28  C   UNL     1      -3.313  14.572  21.471  0.00  0.00    +0.000 C 
ATOM     29  N   UNL     1      -2.822  13.200  21.565  0.00  0.00    +0.000 NA
ATOM     30  C   UNL     1      -2.306  12.924  22.924  0.00  0.00    +0.000 C 
ATOM     31  C   UNL     1      -1.778  11.486  23.065  0.00  0.00    +0.000 C 
ATOM     32  N   UNL     1      -0.801  11.169  22.024  0.00  0.00    +0.000 N 
ATOM     33  C   UNL     1       0.227  10.276  22.334  0.00  0.00    +0.000 C 
ATOM     34  O   UNL     1       0.350   9.748  23.438  0.00  0.00    +0.000 OA
ATOM     35  C   UNL     1      -1.213  11.525  20.661  0.00  0.00    +0.000 C 
ATOM     36  C   UNL     1      -1.754  12.963  20.577  0.00  0.00    +0.000 C 
ENDBRANCH  27  33
ENDBRANCH  25  27
ENDBRANCH  24  25
ENDBRANCH  20  24
ENDBRANCH   1  22
TORSDOF 6
ENDMDL
MODEL 3
REMARK VINA RESULT:      -8.5      4.304     10.731
REMARK  Name = 
REMARK  7 active torsions:
REMARK  status: ('A' for Active; 'I' for Inactive)
REMARK    1  A    between atoms: C_1  and  N_2
REMARK    2  A    between atoms: C_6  and  C_8
REMARK    3  A    between atoms: C_8  and  N_9
REMARK    4  A    between atoms: N_9  and  C_10
REMARK    5  A    between atoms: C_10  and  C_11
REMARK    6  A    between atoms: C_13  and  C_14
REMARK    7  A    between atoms: C_15  and  C_16
REMARK                            x       y       z     vdW  Elec       q    Type
REMARK                         _______ _______ _______ _____ _____    ______ ____
ROOT
ATOM      1  C   UNL     1      -1.182  11.472  19.088  0.00  0.00    +0.000 A 
ATOM      2  C   UNL     1      -1.966  12.271  19.916  0.00  0.00    +0.000 A 
ATOM      3  N   UNL     1      -3.194  12.361  19.294  0.00  0.00    +0.000 N 
ATOM      4  C   UNL     1      -3.218  11.651  18.120  0.00  0.00    +0.000 A 
ATOM      5  C   UNL     1      -4.256  11.501  17.194  0.00  0.00    +0.000 A 
ATOM      6  F   UNL     1      -5.431  12.117  17.381  0.00  0.00    +0.000 F 
ATOM      7  C   UNL     1      -4.057  10.715  16.069  0.00  0.00    +0.000 A 
ATOM      8  C   UNL     1      -2.838  10.089  15.895  0.00  0.00    +0.000 A 
ATOM      9  F   UNL     1      -2.642   9.329  14.809  0.00  0.00    +0.000 F 
ATOM     10  C   UNL     1      -1.794  10.236  16.816  0.00  0.00    +0.000 A 
ATOM     11  C   UNL     1      -1.971  11.045  17.966  0.00  0.00    +0.000 A 
ATOM     12  H   UNL     1      -3.991  12.862  19.658  0.00  0.00    +0.000 HD
ENDROOT
BRANCH   2  13
ATOM     13  C   UNL     1      -1.715  12.906  21.220  0.00  0.00    +0.000 A 
ATOM     14  C   UNL     1      -0.884  14.027  21.332  0.00  0.00    +0.000 A 
ATOM     15  C   UNL     1      -0.696  14.653  22.570  0.00  0.00    +0.000 A 
ATOM     16  C   UNL     1      -1.317  14.149  23.707  0.00  0.00    +0.000 A 
ATOM     17  F   UNL     1      -1.141  14.754  24.886  0.00  0.00    +0.000 F 
ATOM     18  C   UNL     1      -2.132  13.035  23.625  0.00  0.00    +0.000 A 
ATOM     19  C   UNL     1      -2.337  12.430  22.386  0.00  0.00    +0.000 A 
ENDBRANCH   2  13
BRANCH   1  22
ATOM     20  C   UNL     1       0.529   9.175  20.153  0.00  0.00    +0.000 C 
ATOM     21  C   UNL     1       0.549  10.566  20.801  0.00  0.00    +0.000 C 
ATOM     22  C   UNL     1       0.296  11.178  19.388  0.00  0.00    +0.000 C 
ATOM     23  C   UNL     1       0.940   9.905  18.829  0.00  0.00    +0.000 C 
BRANCH  20  24
ATOM     24  C   UNL     1       1.461   8.142  20.775  0.00  0.00    +0.000 C 
BRANCH  24  25
ATOM     25  N   UNL     1       1.991   7.245  19.752  0.00  0.00    +0.000 NA
ATOM     26  H   UNL     1       1.361   7.183  18.952  0.00  0.00    +0.000 HD
BRANCH  25  27
ATOM     27  C   UNL     1       2.212   5.899  20.286  0.00  0.00    +0.000 C 
BRANCH  27  33
ATOM     28  C   UNL     1       7.045   4.744  16.237  0.00  0.00    +0.000 C 
ATOM     29  N   UNL     1       6.038   4.360  17.223  0.00  0.00    +0.000 NA
ATOM     30  C   UNL     1       4.749   4.063  16.561  0.00  0.00    +0.000 C 
ATOM     31  C   UNL     1       3.659   3.653  17.567  0.00  0.00    +0.000 C 
ATOM     32  N   UNL     1       3.521   4.638  18.639  0.00  0.00    +0.000 N 
ATOM     33  C   UNL     1       2.259   4.822  19.207  0.00  0.00    +0.000 C 
ATOM     34  O   UNL     1       1.261   4.199  18.846  0.00  0.00    +0.000 OA
ATOM     35  C   UNL     1       4.783   5.055  19.260  0.00  0.00    +0.000 C 
ATOM     36  C   UNL     1       5.846   5.433  18.214  0.00  0.00    +0.000 C 
ENDBRANCH  27  33
ENDBRANCH  25  27
ENDBRANCH  24  25
ENDBRANCH  20  24
ENDBRANCH   1  22
TORSDOF 6
ENDMDL
MODEL 4
REMARK VINA RESULT:      -8.4      4.318     10.877
REMARK  Name = 
REMARK  7 active torsions:
REMARK  status: ('A' for Active; 'I' for Inactive)
REMARK    1  A    between atoms: C_1  and  N_2
REMARK    2  A    between atoms: C_6  and  C_8
REMARK    3  A    between atoms: C_8  and  N_9
REMARK    4  A    between atoms: N_9  and  C_10
REMARK    5  A    between atoms: C_10  and  C_11
REMARK    6  A    between atoms: C_13  and  C_14
REMARK    7  A    between atoms: C_15  and  C_16
REMARK                            x       y       z     vdW  Elec       q    Type
REMARK                         _______ _______ _______ _____ _____    ______ ____
ROOT
ATOM      1  C   UNL     1      -1.555  11.614  19.356  0.00  0.00    +0.000 A 
ATOM      2  C   UNL     1      -2.497  12.365  20.053  0.00  0.00    +0.000 A 
ATOM      3  N   UNL     1      -3.641  12.337  19.283  0.00  0.00    +0.000 N 
ATOM      4  C   UNL     1      -3.462  11.598  18.140  0.00  0.00    +0.000 A 
ATOM      5  C   UNL     1      -4.360  11.340  17.100  0.00  0.00    +0.000 A 
ATOM      6  F   UNL     1      -5.594  11.860  17.120  0.00  0.00    +0.000 F 
ATOM      7  C   UNL     1      -3.960  10.545  16.036  0.00  0.00    +0.000 A 
ATOM      8  C   UNL     1      -2.682  10.019  16.035  0.00  0.00    +0.000 A 
ATOM      9  F   UNL     1      -2.292   9.251  15.007  0.00  0.00    +0.000 F 
ATOM     10  C   UNL     1      -1.777  10.276  17.071  0.00  0.00    +0.000 A 
ATOM     11  C   UNL     1      -2.160  11.095  18.161  0.00  0.00    +0.000 A 
ATOM     12  H   UNL     1      -4.515  12.778  19.528  0.00  0.00    +0.000 HD
ENDROOT
BRANCH   2  13
ATOM     13  C   UNL     1      -2.463  13.050  21.355  0.00  0.00    +0.000 A 
ATOM     14  C   UNL     1      -3.144  12.533  22.465  0.00  0.00    +0.000 A 
ATOM     15  C   UNL     1      -3.060  13.166  23.711  0.00  0.00    +0.000 A 
ATOM     16  C   UNL     1      -2.316  14.332  23.850  0.00  0.00    +0.000 A 
ATOM     17  F   UNL     1      -2.233  14.930  25.044  0.00  0.00    +0.000 F 
ATOM     18  C   UNL     1      -1.647  14.870  22.767  0.00  0.00    +0.000 A 
ATOM     19  C   UNL     1      -1.711  14.223  21.534  0.00  0.00    +0.000 A 
ENDBRANCH   2  13
BRANCH   1  22
ATOM     20  C   UNL     1       0.191   9.491  20.693  0.00  0.00    +0.000 C 
ATOM     21  C   UNL     1       0.016  10.892  21.296  0.00  0.00    +0.000 C 
ATOM     22  C   UNL     1      -0.107  11.452  19.845  0.00  0.00    +0.000 C 
ATOM     23  C   UNL     1       0.704  10.227  19.408  0.00  0.00    +0.000 C 
BRANCH  20  24
ATOM     24  C   UNL     1       1.117   8.554  21.457  0.00  0.00    +0.000 C 
BRANCH  24  25
ATOM     25  N   UNL     1       1.006   7.191  20.943  0.00  0.00    +0.000 NA
ATOM     26  H   UNL     1       0.913   6.516  21.702  0.00  0.00    +0.000 HD
BRANCH  25  27
ATOM     27  C   UNL     1       2.173   6.831  20.131  0.00  0.00    +0.000 C 
BRANCH  27  33
ATOM     28  C   UNL     1       5.632   3.795  15.670  0.00  0.00    +0.000 C 
ATOM     29  N   UNL     1       5.229   4.090  17.043  0.00  0.00    +0.000 NA
ATOM     30  C   UNL     1       4.075   3.252  17.438  0.00  0.00    +0.000 C 
ATOM     31  C   UNL     1       3.619   3.534  18.880  0.00  0.00    +0.000 C 
ATOM     32  N   UNL     1       3.372   4.959  19.096  0.00  0.00    +0.000 N 
ATOM     33  C   UNL     1       2.380   5.326  20.009  0.00  0.00    +0.000 C 
ATOM     34  O   UNL     1       1.706   4.508  20.633  0.00  0.00    +0.000 OA
ATOM     35  C   UNL     1       4.437   5.849  18.621  0.00  0.00    +0.000 C 
ATOM     36  C   UNL     1       4.873   5.513  17.184  0.00  0.00    +0.000 C 
ENDBRANCH  27  33
ENDBRANCH  25  27
ENDBRANCH  24  25
ENDBRANCH  20  24
ENDBRANCH   1  22
TORSDOF 6
ENDMDL
MODEL 5
REMARK VINA RESULT:      -8.4      4.431     11.139
REMARK  Name = 
REMARK  7 active torsions:
REMARK  status: ('A' for Active; 'I' for Inactive)
REMARK    1  A    between atoms: C_1  and  N_2
REMARK    2  A    between atoms: C_6  and  C_8
REMARK    3  A    between atoms: C_8  and  N_9
REMARK    4  A    between atoms: N_9  and  C_10
REMARK    5  A    between atoms: C_10  and  C_11
REMARK    6  A    between atoms: C_13  and  C_14
REMARK    7  A    between atoms: C_15  and  C_16
REMARK                            x       y       z     vdW  Elec       q    Type
REMARK                         _______ _______ _______ _____ _____    ______ ____
ROOT
ATOM      1  C   UNL     1      -1.892  11.918  20.004  0.00  0.00    +0.000 A 
ATOM      2  C   UNL     1      -2.928  12.631  20.602  0.00  0.00    +0.000 A 
ATOM      3  N   UNL     1      -3.976  12.589  19.708  0.00  0.00    +0.000 N 
ATOM      4  C   UNL     1      -3.649  11.878  18.581  0.00  0.00    +0.000 A 
ATOM      5  C   UNL     1      -4.417  11.618  17.441  0.00  0.00    +0.000 A 
ATOM      6  F   UNL     1      -5.660  12.106  17.330  0.00  0.00    +0.000 F 
ATOM      7  C   UNL     1      -3.879  10.855  16.416  0.00  0.00    +0.000 A 
ATOM      8  C   UNL     1      -2.595  10.361  16.551  0.00  0.00    +0.000 A 
ATOM      9  F   UNL     1      -2.071   9.624  15.561  0.00  0.00    +0.000 F 
ATOM     10  C   UNL     1      -1.820  10.619  17.686  0.00  0.00    +0.000 A 
ATOM     11  C   UNL     1      -2.345  11.408  18.740  0.00  0.00    +0.000 A 
ATOM     12  H   UNL     1      -4.884  13.003  19.860  0.00  0.00    +0.000 HD
ENDROOT
BRANCH   2  13
ATOM     13  C   UNL     1      -3.059  13.291  21.912  0.00  0.00    +0.000 A 
ATOM     14  C   UNL     1      -3.492  12.583  23.040  0.00  0.00    +0.000 A 
ATOM     15  C   UNL     1      -3.562  13.210  24.291  0.00  0.00    +0.000 A 
ATOM     16  C   UNL     1      -3.223  14.553  24.416  0.00  0.00    +0.000 A 
ATOM     17  F   UNL     1      -3.284  15.146  25.613  0.00  0.00    +0.000 F 
ATOM     18  C   UNL     1      -2.806  15.276  23.314  0.00  0.00    +0.000 A 
ATOM     19  C   UNL     1      -2.713  14.642  22.077  0.00  0.00    +0.000 A 
ENDBRANCH   2  13
BRANCH   1  22
ATOM     20  C   UNL     1       0.030   9.704  20.868  0.00  0.00    +0.000 C 
ATOM     21  C   UNL     1      -0.455  10.782  21.848  0.00  0.00    +0.000 C 
ATOM     22  C   UNL     1      -0.505  11.783  20.651  0.00  0.00    +0.000 C 
ATOM     23  C   UNL     1       0.552  10.892  19.989  0.00  0.00    +0.000 C 
BRANCH  20  24
ATOM     24  C   UNL     1       1.011   8.688  21.437  0.00  0.00    +0.000 C 
BRANCH  24  25
ATOM     25  N   UNL     1       0.851   7.394  20.777  0.00  0.00    +0.000 NA
ATOM     26  H   UNL     1       0.322   6.745  21.360  0.00  0.00    +0.000 HD
BRANCH  25  27
ATOM     27  C   UNL     1       2.150   6.794  20.460  0.00  0.00    +0.000 C 
BRANCH  27  33
ATOM     28  C   UNL     1       7.568   4.746  17.715  0.00  0.00    +0.000 C 
ATOM     29  N   UNL     1       6.120   4.921  17.791  0.00  0.00    +0.000 NA
ATOM     30  C   UNL     1       5.722   6.220  17.205  0.00  0.00    +0.000 C 
ATOM     31  C   UNL     1       4.201   6.444  17.266  0.00  0.00    +0.000 C 
ATOM     32  N   UNL     1       3.686   6.264  18.622  0.00  0.00    +0.000 N 
ATOM     33  C   UNL     1       2.583   7.026  19.016  0.00  0.00    +0.000 C 
ATOM     34  O   UNL     1       2.030   7.840  18.278  0.00  0.00    +0.000 OA
ATOM     35  C   UNL     1       4.139   5.043  19.298  0.00  0.00    +0.000 C 
ATOM     36  C   UNL     1       5.662   4.853  19.190  0.00  0.00    +0.000 C 
ENDBRANCH  27  33
ENDBRANCH  25  27
ENDBRANCH  24  25
ENDBRANCH  20  24
ENDBRANCH   1  22
TORSDOF 6
ENDMDL
MODEL 6
REMARK VINA RESULT:      -8.4      1.183      1.689
REMARK  Name = 
REMARK  7 active torsions:
REMARK  status: ('A' for Active; 'I' for Inactive)
REMARK    1  A    between atoms: C_1  and  N_2
REMARK    2  A    between atoms: C_6  and  C_8
REMARK    3  A    between atoms: C_8  and  N_9
REMARK    4  A    between atoms: N_9  and  C_10
REMARK    5  A    between atoms: C_10  and  C_11
REMARK    6  A    between atoms: C_13  and  C_14
REMARK    7  A    between atoms: C_15  and  C_16
REMARK                            x       y       z     vdW  Elec       q    Type
REMARK                         _______ _______ _______ _____ _____    ______ ____
ROOT
ATOM      1  C   UNL     1       3.549   4.622  18.203  0.00  0.00    +0.000 A 
ATOM      2  C   UNL     1       4.773   4.139  17.748  0.00  0.00    +0.000 A 
ATOM      3  N   UNL     1       5.138   3.149  18.636  0.00  0.00    +0.000 N 
ATOM      4  C   UNL     1       4.197   2.985  19.621  0.00  0.00    +0.000 A 
ATOM      5  C   UNL     1       4.196   2.106  20.710  0.00  0.00    +0.000 A 
ATOM      6  F   UNL     1       5.227   1.277  20.918  0.00  0.00    +0.000 F 
ATOM      7  C   UNL     1       3.119   2.106  21.584  0.00  0.00    +0.000 A 
ATOM      8  C   UNL     1       2.066   2.969  21.351  0.00  0.00    +0.000 A 
ATOM      9  F   UNL     1       1.023   2.971  22.194  0.00  0.00    +0.000 F 
ATOM     10  C   UNL     1       2.061   3.852  20.266  0.00  0.00    +0.000 A 
ATOM     11  C   UNL     1       3.157   3.879  19.368  0.00  0.00    +0.000 A 
ATOM     12  H   UNL     1       5.975   2.590  18.567  0.00  0.00    +0.000 HD
ENDROOT
BRANCH   2  13
ATOM     13  C   UNL     1       5.598   4.459  16.571  0.00  0.00    +0.000 A 
ATOM     14  C   UNL     1       6.723   5.287  16.679  0.00  0.00    +0.000 A 
ATOM     15  C   UNL     1       7.530   5.541  15.563  0.00  0.00    +0.000 A 
ATOM     16  C   UNL     1       7.204   4.991  14.329  0.00  0.00    +0.000 A 
ATOM     17  F   UNL     1       7.981   5.230  13.267  0.00  0.00    +0.000 F 
ATOM     18  C   UNL     1       6.091   4.182  14.194  0.00  0.00    +0.000 A 
ATOM     19  C   UNL     1       5.305   3.910  15.312  0.00  0.00    +0.000 A 
ENDBRANCH   2  13
BRANCH   1  22
ATOM     20  C   UNL     1       2.492   7.395  18.934  0.00  0.00    +0.000 C 
ATOM     21  C   UNL     1       1.586   6.321  18.316  0.00  0.00    +0.000 C 
ATOM     22  C   UNL     1       2.825   5.795  17.525  0.00  0.00    +0.000 C 
ATOM     23  C   UNL     1       3.391   7.213  17.664  0.00  0.00    +0.000 C 
BRANCH  20  24
ATOM     24  C   UNL     1       1.828   8.737  19.214  0.00  0.00    +0.000 C 
BRANCH  24  25
ATOM     25  N   UNL     1       1.200   8.735  20.533  0.00  0.00    +0.000 NA
ATOM     26  H   UNL     1       0.379   8.129  20.550  0.00  0.00    +0.000 HD
BRANCH  25  27
ATOM     27  C   UNL     1       0.798  10.086  20.934  0.00  0.00    +0.000 C 
BRANCH  27  33
ATOM     28  C   UNL     1       1.265  16.179  19.000  0.00  0.00    +0.000 C 
ATOM     29  N   UNL     1       1.165  14.738  18.785  0.00  0.00    +0.000 NA
ATOM     30  C   UNL     1      -0.251  14.313  18.762  0.00  0.00    +0.000 C 
ATOM     31  C   UNL     1      -0.400  12.797  18.538  0.00  0.00    +0.000 C 
ATOM     32  N   UNL     1       0.395  12.033  19.497  0.00  0.00    +0.000 N 
ATOM     33  C   UNL     1      -0.082  10.784  19.903  0.00  0.00    +0.000 C 
ATOM     34  O   UNL     1      -1.137  10.302  19.494  0.00  0.00    +0.000 OA
ATOM     35  C   UNL     1       1.784  12.482  19.646  0.00  0.00    +0.000 C 
ATOM     36  C   UNL     1       1.881  14.004  19.845  0.00  0.00    +0.000 C 
ENDBRANCH  27  33
ENDBRANCH  25  27
ENDBRANCH  24  25
ENDBRANCH  20  24
ENDBRANCH   1  22
TORSDOF 6
ENDMDL
MODEL 7
REMARK VINA RESULT:      -8.4      1.251      1.881
REMARK  Name = 
REMARK  7 active torsions:
REMARK  status: ('A' for Active; 'I' for Inactive)
REMARK    1  A    between atoms: C_1  and  N_2
REMARK    2  A    between atoms: C_6  and  C_8
REMARK    3  A    between atoms: C_8  and  N_9
REMARK    4  A    between atoms: N_9  and  C_10
REMARK    5  A    between atoms: C_10  and  C_11
REMARK    6  A    between atoms: C_13  and  C_14
REMARK    7  A    between atoms: C_15  and  C_16
REMARK                            x       y       z     vdW  Elec       q    Type
REMARK                         _______ _______ _______ _____ _____    ______ ____
ROOT
ATOM      1  C   UNL     1       3.531   4.626  18.228  0.00  0.00    +0.000 A 
ATOM      2  C   UNL     1       4.758   4.145  17.781  0.00  0.00    +0.000 A 
ATOM      3  N   UNL     1       5.122   3.159  18.674  0.00  0.00    +0.000 N 
ATOM      4  C   UNL     1       4.178   2.995  19.656  0.00  0.00    +0.000 A 
ATOM      5  C   UNL     1       4.174   2.120  20.747  0.00  0.00    +0.000 A 
ATOM      6  F   UNL     1       5.207   1.295  20.963  0.00  0.00    +0.000 F 
ATOM      7  C   UNL     1       3.093   2.119  21.615  0.00  0.00    +0.000 A 
ATOM      8  C   UNL     1       2.038   2.978  21.375  0.00  0.00    +0.000 A 
ATOM      9  F   UNL     1       0.991   2.979  22.212  0.00  0.00    +0.000 F 
ATOM     10  C   UNL     1       2.035   3.857  20.287  0.00  0.00    +0.000 A 
ATOM     11  C   UNL     1       3.135   3.885  19.394  0.00  0.00    +0.000 A 
ATOM     12  H   UNL     1       5.962   2.603  18.611  0.00  0.00    +0.000 HD
ENDROOT
BRANCH   2  13
ATOM     13  C   UNL     1       5.588   4.465  16.607  0.00  0.00    +0.000 A 
ATOM     14  C   UNL     1       6.729   5.269  16.724  0.00  0.00    +0.000 A 
ATOM     15  C   UNL     1       7.539   5.523  15.611  0.00  0.00    +0.000 A 
ATOM     16  C   UNL     1       7.202   4.994  14.370  0.00  0.00    +0.000 A 
ATOM     17  F   UNL     1       7.982   5.232  13.310  0.00  0.00    +0.000 F 
ATOM     18  C   UNL     1       6.073   4.209  14.226  0.00  0.00    +0.000 A 
ATOM     19  C   UNL     1       5.284   3.938  15.342  0.00  0.00    +0.000 A 
ENDBRANCH   2  13
BRANCH   1  22
ATOM     20  C   UNL     1       2.455   7.394  18.947  0.00  0.00    +0.000 C 
ATOM     21  C   UNL     1       1.559   6.315  18.324  0.00  0.00    +0.000 C 
ATOM     22  C   UNL     1       2.806   5.794  17.544  0.00  0.00    +0.000 C 
ATOM     23  C   UNL     1       3.364   7.215  17.684  0.00  0.00    +0.000 C 
BRANCH  20  24
ATOM     24  C   UNL     1       1.783   8.734  19.220  0.00  0.00    +0.000 C 
BRANCH  24  25
ATOM     25  N   UNL     1       1.278   8.786  20.589  0.00  0.00    +0.000 NA
ATOM     26  H   UNL     1       1.049   7.854  20.934  0.00  0.00    +0.000 HD
BRANCH  25  27
ATOM     27  C   UNL     1       0.084   9.632  20.685  0.00  0.00    +0.000 C 
BRANCH  27  33
ATOM     28  C   UNL     1      -3.342  14.005  23.883  0.00  0.00    +0.000 C 
ATOM     29  N   UNL     1      -2.110  13.301  23.534  0.00  0.00    +0.000 NA
ATOM     30  C   UNL     1      -1.467  13.930  22.360  0.00  0.00    +0.000 C 
ATOM     31  C   UNL     1      -0.164  13.216  21.959  0.00  0.00    +0.000 C 
ATOM     32  N   UNL     1      -0.373  11.781  21.776  0.00  0.00    +0.000 N 
ATOM     33  C   UNL     1       0.408  11.115  20.828  0.00  0.00    +0.000 C 
ATOM     34  O   UNL     1       1.256  11.681  20.140  0.00  0.00    +0.000 OA
ATOM     35  C   UNL     1      -1.108  11.120  22.861  0.00  0.00    +0.000 C 
ATOM     36  C   UNL     1      -2.389  11.883  23.240  0.00  0.00    +0.000 C 
ENDBRANCH  27  33
ENDBRANCH  25  27
ENDBRANCH  24  25
ENDBRANCH  20  24
ENDBRANCH   1  22
TORSDOF 6
ENDMDL
MODEL 8
REMARK VINA RESULT:      -8.2      1.533      2.096
REMARK  Name = 
REMARK  7 active torsions:
REMARK  status: ('A' for Active; 'I' for Inactive)
REMARK    1  A    between atoms: C_1  and  N_2
REMARK    2  A    between atoms: C_6  and  C_8
REMARK    3  A    between atoms: C_8  and  N_9
REMARK    4  A    between atoms: N_9  and  C_10
REMARK    5  A    between atoms: C_10  and  C_11
REMARK    6  A    between atoms: C_13  and  C_14
REMARK    7  A    between atoms: C_15  and  C_16
REMARK                            x       y       z     vdW  Elec       q    Type
REMARK                         _______ _______ _______ _____ _____    ______ ____
ROOT
ATOM      1  C   UNL     1       3.543   4.620  18.248  0.00  0.00    +0.000 A 
ATOM      2  C   UNL     1       4.759   4.131  17.777  0.00  0.00    +0.000 A 
ATOM      3  N   UNL     1       5.122   3.127  18.649  0.00  0.00    +0.000 N 
ATOM      4  C   UNL     1       4.189   2.959  19.641  0.00  0.00    +0.000 A 
ATOM      5  C   UNL     1       4.188   2.066  20.718  0.00  0.00    +0.000 A 
ATOM      6  F   UNL     1       5.214   1.226  20.907  0.00  0.00    +0.000 F 
ATOM      7  C   UNL     1       3.119   2.064  21.601  0.00  0.00    +0.000 A 
ATOM      8  C   UNL     1       2.072   2.940  21.388  0.00  0.00    +0.000 A 
ATOM      9  F   UNL     1       1.036   2.940  22.239  0.00  0.00    +0.000 F 
ATOM     10  C   UNL     1       2.066   3.837  20.314  0.00  0.00    +0.000 A 
ATOM     11  C   UNL     1       3.154   3.866  19.407  0.00  0.00    +0.000 A 
ATOM     12  H   UNL     1       5.954   2.562  18.566  0.00  0.00    +0.000 HD
ENDROOT
BRANCH   2  13
ATOM     13  C   UNL     1       5.577   4.460  16.597  0.00  0.00    +0.000 A 
ATOM     14  C   UNL     1       6.743   5.227  16.715  0.00  0.00    +0.000 A 
ATOM     15  C   UNL     1       7.541   5.488  15.594  0.00  0.00    +0.000 A 
ATOM     16  C   UNL     1       7.166   5.004  14.346  0.00  0.00    +0.000 A 
ATOM     17  F   UNL     1       7.934   5.249  13.279  0.00  0.00    +0.000 F 
ATOM     18  C   UNL     1       6.012   4.256  14.201  0.00  0.00    +0.000 A 
ATOM     19  C   UNL     1       5.235   3.977  15.324  0.00  0.00    +0.000 A 
ENDBRANCH   2  13
BRANCH   1  22
ATOM     20  C   UNL     1       2.433   7.353  19.045  0.00  0.00    +0.000 C 
ATOM     21  C   UNL     1       1.558   6.292  18.365  0.00  0.00    +0.000 C 
ATOM     22  C   UNL     1       2.824   5.808  17.592  0.00  0.00    +0.000 C 
ATOM     23  C   UNL     1       3.369   7.226  17.795  0.00  0.00    +0.000 C 
BRANCH  20  24
ATOM     24  C   UNL     1       1.747   8.678  19.352  0.00  0.00    +0.000 C 
BRANCH  24  25
ATOM     25  N   UNL     1       1.389   8.755  20.767  0.00  0.00    +0.000 NA
ATOM     26  H   UNL     1       1.423   7.836  21.207  0.00  0.00    +0.000 HD
BRANCH  25  27
ATOM     27  C   UNL     1       0.048   9.318  20.947  0.00  0.00    +0.000 C 
BRANCH  27  33
ATOM     28  C   UNL     1      -3.000  11.046  15.579  0.00  0.00    +0.000 C 
ATOM     29  N   UNL     1      -2.696  11.141  17.005  0.00  0.00    +0.000 NA
ATOM     30  C   UNL     1      -1.537  12.032  17.231  0.00  0.00    +0.000 C 
ATOM     31  C   UNL     1      -1.184  12.158  18.724  0.00  0.00    +0.000 C 
ATOM     32  N   UNL     1      -1.008  10.848  19.347  0.00  0.00    +0.000 N 
ATOM     33  C   UNL     1      -0.091  10.732  20.394  0.00  0.00    +0.000 C 
ATOM     34  O   UNL     1       0.575  11.678  20.811  0.00  0.00    +0.000 OA
ATOM     35  C   UNL     1      -2.076   9.881  19.064  0.00  0.00    +0.000 C 
ATOM     36  C   UNL     1      -2.407   9.808  17.564  0.00  0.00    +0.000 C 
ENDBRANCH  27  33
ENDBRANCH  25  27
ENDBRANCH  24  25
ENDBRANCH  20  24
ENDBRANCH   1  22
TORSDOF 6
ENDMDL
MODEL 9
REMARK VINA RESULT:      -8.2      4.521     11.364
REMARK  Name = 
REMARK  7 active torsions:
REMARK  status: ('A' for Active; 'I' for Inactive)
REMARK    1  A    between atoms: C_1  and  N_2
REMARK    2  A    between atoms: C_6  and  C_8
REMARK    3  A    between atoms: C_8  and  N_9
REMARK    4  A    between atoms: N_9  and  C_10
REMARK    5  A    between atoms: C_10  and  C_11
REMARK    6  A    between atoms: C_13  and  C_14
REMARK    7  A    between atoms: C_15  and  C_16
REMARK                            x       y       z     vdW  Elec       q    Type
REMARK                         _______ _______ _______ _____ _____    ______ ____
ROOT
ATOM      1  C   UNL     1      -2.141  12.245  20.677  0.00  0.00    +0.000 A 
ATOM      2  C   UNL     1      -3.325  12.975  20.733  0.00  0.00    +0.000 A 
ATOM      3  N   UNL     1      -3.973  12.729  19.541  0.00  0.00    +0.000 N 
ATOM      4  C   UNL     1      -3.254  11.875  18.743  0.00  0.00    +0.000 A 
ATOM      5  C   UNL     1      -3.551  11.393  17.464  0.00  0.00    +0.000 A 
ATOM      6  F   UNL     1      -4.668  11.778  16.833  0.00  0.00    +0.000 F 
ATOM      7  C   UNL     1      -2.673  10.516  16.845  0.00  0.00    +0.000 A 
ATOM      8  C   UNL     1      -1.526  10.132  17.514  0.00  0.00    +0.000 A 
ATOM      9  F   UNL     1      -0.675   9.285  16.918  0.00  0.00    +0.000 F 
ATOM     10  C   UNL     1      -1.221  10.612  18.792  0.00  0.00    +0.000 A 
ATOM     11  C   UNL     1      -2.098  11.518  19.438  0.00  0.00    +0.000 A 
ATOM     12  H   UNL     1      -4.874  13.103  19.285  0.00  0.00    +0.000 HD
ENDROOT
BRANCH   2  13
ATOM     13  C   UNL     1      -3.928  13.820  21.777  0.00  0.00    +0.000 A 
ATOM     14  C   UNL     1      -3.644  15.190  21.854  0.00  0.00    +0.000 A 
ATOM     15  C   UNL     1      -4.265  15.993  22.819  0.00  0.00    +0.000 A 
ATOM     16  C   UNL     1      -5.154  15.428  23.727  0.00  0.00    +0.000 A 
ATOM     17  F   UNL     1      -5.750  16.200  24.642  0.00  0.00    +0.000 F 
ATOM     18  C   UNL     1      -5.440  14.077  23.680  0.00  0.00    +0.000 A 
ATOM     19  C   UNL     1      -4.840  13.286  22.702  0.00  0.00    +0.000 A 
ENDBRANCH   2  13
BRANCH   1  22
ATOM     20  C   UNL     1      -0.196  10.358  22.090  0.00  0.00    +0.000 C 
ATOM     21  C   UNL     1      -1.236  11.178  22.866  0.00  0.00    +0.000 C 
ATOM     22  C   UNL     1      -1.086  12.300  21.792  0.00  0.00    +0.000 C 
ATOM     23  C   UNL     1       0.314  11.732  21.536  0.00  0.00    +0.000 C 
BRANCH  20  24
ATOM     24  C   UNL     1       0.724   9.487  22.935  0.00  0.00    +0.000 C 
BRANCH  24  25
ATOM     25  N   UNL     1       1.704   8.806  22.093  0.00  0.00    +0.000 NA
ATOM     26  H   UNL     1       2.229   9.471  21.525  0.00  0.00    +0.000 HD
BRANCH  25  27
ATOM     27  C   UNL     1       1.060   7.832  21.206  0.00  0.00    +0.000 C 
BRANCH  27  33
ATOM     28  C   UNL     1       4.262   2.400  20.057  0.00  0.00    +0.000 C 
ATOM     29  N   UNL     1       3.329   3.471  19.716  0.00  0.00    +0.000 NA
ATOM     30  C   UNL     1       4.047   4.613  19.110  0.00  0.00    +0.000 C 
ATOM     31  C   UNL     1       3.098   5.765  18.736  0.00  0.00    +0.000 C 
ATOM     32  N   UNL     1       2.270   6.168  19.872  0.00  0.00    +0.000 N 
ATOM     33  C   UNL     1       1.886   7.507  19.967  0.00  0.00    +0.000 C 
ATOM     34  O   UNL     1       2.215   8.361  19.144  0.00  0.00    +0.000 OA
ATOM     35  C   UNL     1       1.618   5.062  20.584  0.00  0.00    +0.000 C 
ATOM     36  C   UNL     1       2.603   3.927  20.915  0.00  0.00    +0.000 C 
ENDBRANCH  27  33
ENDBRANCH  25  27
ENDBRANCH  24  25
ENDBRANCH  20  24
ENDBRANCH   1  22
TORSDOF 6
ENDMDL
