MODEL 1
REMARK VINA RESULT:      -6.8      0.000      0.000
REMARK  Name = 
REMARK  6 active torsions:
REMARK  status: ('A' for Active; 'I' for Inactive)
REMARK    1  A    between atoms: C_1  and  C_2
REMARK    2  A    between atoms: C_3  and  C_4
REMARK    3  A    between atoms: N_6  and  C_7
REMARK    4  A    between atoms: C_8  and  C_9
REMARK    5  A    between atoms: C_11  and  C_12
REMARK    6  A    between atoms: C_14  and  C_15
REMARK                            x       y       z     vdW  Elec       q    Type
REMARK                         _______ _______ _______ _____ _____    ______ ____
ROOT
ATOM      1  C   UNL     1       4.781   5.864  18.572  0.00  0.00    +0.000 C 
ATOM      2  O   UNL     1       5.254   5.886  19.698  0.00  0.00    +0.000 OA
ATOM      3  N   UNL     1       3.514   6.283  18.221  0.00  0.00    +0.000 N 
ATOM      4  H   UNL     1       3.147   5.857  17.374  0.00  0.00    +0.000 HD
ENDROOT
BRANCH   1   7
ATOM      5  C   UNL     1       3.841   3.373  16.802  0.00  0.00    +0.000 C 
ATOM      6  C   UNL     1       5.044   4.245  16.610  0.00  0.00    +0.000 C 
ATOM      7  C   UNL     1       5.495   5.224  17.433  0.00  0.00    +0.000 C 
ATOM      8  S   UNL     1       7.091   5.830  16.945  0.00  0.00    +0.000 S 
ATOM      9  C   UNL     1       6.938   4.949  15.464  0.00  0.00    +0.000 C 
ATOM     10  N   UNL     1       7.588   5.161  14.367  0.00  0.00    +0.000 NA
ATOM     11  C   UNL     1       6.731   4.426  13.381  0.00  0.00    +0.000 C 
ATOM     12  C   UNL     1       5.609   3.679  14.156  0.00  0.00    +0.000 C 
ATOM     13  N   UNL     1       5.886   4.078  15.514  0.00  0.00    +0.000 N 
ENDBRANCH   1   7
BRANCH   3  14
ATOM     14  C   UNL     1       2.585   6.850  19.106  0.00  0.00    +0.000 A 
ATOM     15  C   UNL     1       2.153   8.179  18.962  0.00  0.00    +0.000 A 
ATOM     16  C   UNL     1       2.559   9.063  17.812  0.00  0.00    +0.000 C 
ATOM     17  C   UNL     1       1.265   8.706  19.909  0.00  0.00    +0.000 A 
ATOM     18  C   UNL     1       0.767   7.913  20.945  0.00  0.00    +0.000 A 
ATOM     19  C   UNL     1      -0.167   8.493  21.972  0.00  0.00    +0.000 C 
ATOM     20  C   UNL     1       1.148   6.571  21.035  0.00  0.00    +0.000 A 
ATOM     21  C   UNL     1       2.050   6.023  20.117  0.00  0.00    +0.000 A 
ATOM     22  C   UNL     1       2.482   4.589  20.291  0.00  0.00    +0.000 C 
ENDBRANCH   3  14
TORSDOF 2
ENDMDL
MODEL 2
REMARK VINA RESULT:      -6.8      0.123      1.905
REMARK  Name = 
REMARK  6 active torsions:
REMARK  status: ('A' for Active; 'I' for Inactive)
REMARK    1  A    between atoms: C_1  and  C_2
REMARK    2  A    between atoms: C_3  and  C_4
REMARK    3  A    between atoms: N_6  and  C_7
REMARK    4  A    between atoms: C_8  and  C_9
REMARK    5  A    between atoms: C_11  and  C_12
REMARK    6  A    between atoms: C_14  and  C_15
REMARK                            x       y       z     vdW  Elec       q    Type
REMARK                         _______ _______ _______ _____ _____    ______ ____
ROOT
ATOM      1  C   UNL     1       4.804   5.799  18.572  0.00  0.00    +0.000 C 
ATOM      2  O   UNL     1       5.309   5.844  19.684  0.00  0.00    +0.000 OA
ATOM      3  N   UNL     1       3.516   6.177  18.254  0.00  0.00    +0.000 N 
ATOM      4  H   UNL     1       3.138   5.735  17.422  0.00  0.00    +0.000 HD
ENDROOT
BRANCH   1   7
ATOM      5  C   UNL     1       3.834   3.342  16.772  0.00  0.00    +0.000 C 
ATOM      6  C   UNL     1       5.041   4.209  16.584  0.00  0.00    +0.000 C 
ATOM      7  C   UNL     1       5.505   5.173  17.417  0.00  0.00    +0.000 C 
ATOM      8  S   UNL     1       7.100   5.776  16.925  0.00  0.00    +0.000 S 
ATOM      9  C   UNL     1       6.929   4.919  15.431  0.00  0.00    +0.000 C 
ATOM     10  N   UNL     1       7.572   5.144  14.332  0.00  0.00    +0.000 NA
ATOM     11  C   UNL     1       6.701   4.429  13.343  0.00  0.00    +0.000 C 
ATOM     12  C   UNL     1       5.581   3.677  14.116  0.00  0.00    +0.000 C 
ATOM     13  N   UNL     1       5.872   4.054  15.478  0.00  0.00    +0.000 N 
ENDBRANCH   1   7
BRANCH   3  14
ATOM     14  C   UNL     1       2.596   6.723  19.162  0.00  0.00    +0.000 A 
ATOM     15  C   UNL     1       2.093   5.970  20.236  0.00  0.00    +0.000 A 
ATOM     16  C   UNL     1       2.563   4.577  20.565  0.00  0.00    +0.000 C 
ATOM     17  C   UNL     1       1.134   6.551  21.077  0.00  0.00    +0.000 A 
ATOM     18  C   UNL     1       0.726   7.873  20.893  0.00  0.00    +0.000 A 
ATOM     19  C   UNL     1      -0.321   8.482  21.785  0.00  0.00    +0.000 C 
ATOM     20  C   UNL     1       1.287   8.635  19.864  0.00  0.00    +0.000 A 
ATOM     21  C   UNL     1       2.230   8.076  18.996  0.00  0.00    +0.000 A 
ATOM     22  C   UNL     1       2.760   8.915  17.861  0.00  0.00    +0.000 C 
ENDBRANCH   3  14
TORSDOF 2
ENDMDL
MODEL 3
REMARK VINA RESULT:      -6.6      3.671      7.241
REMARK  Name = 
REMARK  6 active torsions:
REMARK  status: ('A' for Active; 'I' for Inactive)
REMARK    1  A    between atoms: C_1  and  C_2
REMARK    2  A    between atoms: C_3  and  C_4
REMARK    3  A    between atoms: N_6  and  C_7
REMARK    4  A    between atoms: C_8  and  C_9
REMARK    5  A    between atoms: C_11  and  C_12
REMARK    6  A    between atoms: C_14  and  C_15
REMARK                            x       y       z     vdW  Elec       q    Type
REMARK                         _______ _______ _______ _____ _____    ______ ____
ROOT
ATOM      1  C   UNL     1       2.205   7.227  19.160  0.00  0.00    +0.000 C 
ATOM      2  O   UNL     1       2.133   7.080  17.949  0.00  0.00    +0.000 OA
ATOM      3  N   UNL     1       2.593   6.264  20.068  0.00  0.00    +0.000 N 
ATOM      4  H   UNL     1       2.241   6.405  21.011  0.00  0.00    +0.000 HD
ENDROOT
BRANCH   1   7
ATOM      5  C   UNL     1       1.905  10.154  17.910  0.00  0.00    +0.000 C 
ATOM      6  C   UNL     1       1.490   9.680  19.269  0.00  0.00    +0.000 C 
ATOM      7  C   UNL     1       1.726   8.468  19.830  0.00  0.00    +0.000 C 
ATOM      8  S   UNL     1       1.276   8.422  21.546  0.00  0.00    +0.000 S 
ATOM      9  C   UNL     1       0.493   9.953  21.350  0.00  0.00    +0.000 C 
ATOM     10  N   UNL     1      -0.416  10.461  22.116  0.00  0.00    +0.000 NA
ATOM     11  C   UNL     1      -0.988  11.516  21.217  0.00  0.00    +0.000 C 
ATOM     12  C   UNL     1      -0.143  11.573  19.914  0.00  0.00    +0.000 C 
ATOM     13  N   UNL     1       0.817  10.522  20.150  0.00  0.00    +0.000 N 
ENDBRANCH   1   7
BRANCH   3  14
ATOM     14  C   UNL     1       3.015   4.970  19.731  0.00  0.00    +0.000 A 
ATOM     15  C   UNL     1       4.317   4.723  19.264  0.00  0.00    +0.000 A 
ATOM     16  C   UNL     1       5.385   5.781  19.185  0.00  0.00    +0.000 C 
ATOM     17  C   UNL     1       4.663   3.417  18.891  0.00  0.00    +0.000 A 
ATOM     18  C   UNL     1       3.756   2.366  19.033  0.00  0.00    +0.000 A 
ATOM     19  C   UNL     1       4.127   0.971  18.607  0.00  0.00    +0.000 C 
ATOM     20  C   UNL     1       2.487   2.612  19.566  0.00  0.00    +0.000 A 
ATOM     21  C   UNL     1       2.106   3.908  19.928  0.00  0.00    +0.000 A 
ATOM     22  C   UNL     1       0.705   4.138  20.438  0.00  0.00    +0.000 C 
ENDBRANCH   3  14
TORSDOF 2
ENDMDL
MODEL 4
REMARK VINA RESULT:      -6.6      5.285      7.702
REMARK  Name = 
REMARK  6 active torsions:
REMARK  status: ('A' for Active; 'I' for Inactive)
REMARK    1  A    between atoms: C_1  and  C_2
REMARK    2  A    between atoms: C_3  and  C_4
REMARK    3  A    between atoms: N_6  and  C_7
REMARK    4  A    between atoms: C_8  and  C_9
REMARK    5  A    between atoms: C_11  and  C_12
REMARK    6  A    between atoms: C_14  and  C_15
REMARK                            x       y       z     vdW  Elec       q    Type
REMARK                         _______ _______ _______ _____ _____    ______ ____
ROOT
ATOM      1  C   UNL     1      -0.540  10.900  18.556  0.00  0.00    +0.000 C 
ATOM      2  O   UNL     1      -0.299  12.086  18.390  0.00  0.00    +0.000 OA
ATOM      3  N   UNL     1      -1.787  10.313  18.499  0.00  0.00    +0.000 N 
ATOM      4  H   UNL     1      -1.871   9.445  19.020  0.00  0.00    +0.000 HD
ENDROOT
BRANCH   1   7
ATOM      5  C   UNL     1      -0.115   9.639  21.463  0.00  0.00    +0.000 C 
ATOM      6  C   UNL     1       0.620   9.318  20.197  0.00  0.00    +0.000 C 
ATOM      7  C   UNL     1       0.511   9.940  18.998  0.00  0.00    +0.000 C 
ATOM      8  S   UNL     1       1.746   9.398  17.844  0.00  0.00    +0.000 S 
ATOM      9  C   UNL     1       2.161   8.122  18.936  0.00  0.00    +0.000 C 
ATOM     10  N   UNL     1       2.789   7.029  18.646  0.00  0.00    +0.000 NA
ATOM     11  C   UNL     1       2.449   6.183  19.836  0.00  0.00    +0.000 C 
ATOM     12  C   UNL     1       1.664   7.052  20.859  0.00  0.00    +0.000 C 
ATOM     13  N   UNL     1       1.579   8.310  20.158  0.00  0.00    +0.000 N 
ENDBRANCH   1   7
BRANCH   3  14
ATOM     14  C   UNL     1      -2.976  10.990  18.190  0.00  0.00    +0.000 A 
ATOM     15  C   UNL     1      -3.587  11.854  19.112  0.00  0.00    +0.000 A 
ATOM     16  C   UNL     1      -2.983  12.207  20.446  0.00  0.00    +0.000 C 
ATOM     17  C   UNL     1      -4.803  12.460  18.766  0.00  0.00    +0.000 A 
ATOM     18  C   UNL     1      -5.372  12.259  17.508  0.00  0.00    +0.000 A 
ATOM     19  C   UNL     1      -6.689  12.893  17.153  0.00  0.00    +0.000 C 
ATOM     20  C   UNL     1      -4.717  11.453  16.572  0.00  0.00    +0.000 A 
ATOM     21  C   UNL     1      -3.513  10.819  16.895  0.00  0.00    +0.000 A 
ATOM     22  C   UNL     1      -2.876   9.907  15.877  0.00  0.00    +0.000 C 
ENDBRANCH   3  14
TORSDOF 2
ENDMDL
MODEL 5
REMARK VINA RESULT:      -6.6      1.341      1.449
REMARK  Name = 
REMARK  6 active torsions:
REMARK  status: ('A' for Active; 'I' for Inactive)
REMARK    1  A    between atoms: C_1  and  C_2
REMARK    2  A    between atoms: C_3  and  C_4
REMARK    3  A    between atoms: N_6  and  C_7
REMARK    4  A    between atoms: C_8  and  C_9
REMARK    5  A    between atoms: C_11  and  C_12
REMARK    6  A    between atoms: C_14  and  C_15
REMARK                            x       y       z     vdW  Elec       q    Type
REMARK                         _______ _______ _______ _____ _____    ______ ____
ROOT
ATOM      1  C   UNL     1       2.908   5.939  18.019  0.00  0.00    +0.000 C 
ATOM      2  O   UNL     1       1.810   5.496  17.719  0.00  0.00    +0.000 OA
ATOM      3  N   UNL     1       3.147   6.999  18.869  0.00  0.00    +0.000 N 
ATOM      4  H   UNL     1       4.032   7.474  18.715  0.00  0.00    +0.000 HD
ENDROOT
BRANCH   1   7
ATOM      5  C   UNL     1       3.600   2.976  17.035  0.00  0.00    +0.000 C 
ATOM      6  C   UNL     1       4.401   4.228  16.842  0.00  0.00    +0.000 C 
ATOM      7  C   UNL     1       4.155   5.455  17.363  0.00  0.00    +0.000 C 
ATOM      8  S   UNL     1       5.495   6.586  17.082  0.00  0.00    +0.000 S 
ATOM      9  C   UNL     1       6.196   5.436  15.996  0.00  0.00    +0.000 C 
ATOM     10  N   UNL     1       7.071   5.675  15.074  0.00  0.00    +0.000 NA
ATOM     11  C   UNL     1       6.935   4.445  14.227  0.00  0.00    +0.000 C 
ATOM     12  C   UNL     1       5.955   3.463  14.928  0.00  0.00    +0.000 C 
ATOM     13  N   UNL     1       5.575   4.222  16.094  0.00  0.00    +0.000 N 
ENDBRANCH   1   7
BRANCH   3  14
ATOM     14  C   UNL     1       2.154   7.706  19.563  0.00  0.00    +0.000 A 
ATOM     15  C   UNL     1       1.688   8.951  19.108  0.00  0.00    +0.000 A 
ATOM     16  C   UNL     1       2.124   9.576  17.809  0.00  0.00    +0.000 C 
ATOM     17  C   UNL     1       0.734   9.635  19.874  0.00  0.00    +0.000 A 
ATOM     18  C   UNL     1       0.210   9.070  21.038  0.00  0.00    +0.000 A 
ATOM     19  C   UNL     1      -0.796   9.821  21.868  0.00  0.00    +0.000 C 
ATOM     20  C   UNL     1       0.629   7.799  21.442  0.00  0.00    +0.000 A 
ATOM     21  C   UNL     1       1.595   7.101  20.709  0.00  0.00    +0.000 A 
ATOM     22  C   UNL     1       2.064   5.761  21.218  0.00  0.00    +0.000 C 
ENDBRANCH   3  14
TORSDOF 2
ENDMDL
MODEL 6
REMARK VINA RESULT:      -6.4      4.450      6.910
REMARK  Name = 
REMARK  6 active torsions:
REMARK  status: ('A' for Active; 'I' for Inactive)
REMARK    1  A    between atoms: C_1  and  C_2
REMARK    2  A    between atoms: C_3  and  C_4
REMARK    3  A    between atoms: N_6  and  C_7
REMARK    4  A    between atoms: C_8  and  C_9
REMARK    5  A    between atoms: C_11  and  C_12
REMARK    6  A    between atoms: C_14  and  C_15
REMARK                            x       y       z     vdW  Elec       q    Type
REMARK                         _______ _______ _______ _____ _____    ______ ____
ROOT
ATOM      1  C   UNL     1       0.600  10.297  18.984  0.00  0.00    +0.000 C 
ATOM      2  O   UNL     1      -0.331  10.339  18.195  0.00  0.00    +0.000 OA
ATOM      3  N   UNL     1       1.104  11.367  19.696  0.00  0.00    +0.000 N 
ATOM      4  H   UNL     1       2.071  11.263  19.989  0.00  0.00    +0.000 HD
ENDROOT
BRANCH   1   7
ATOM      5  C   UNL     1       0.907   8.505  21.614  0.00  0.00    +0.000 C 
ATOM      6  C   UNL     1       1.458   8.245  20.245  0.00  0.00    +0.000 C 
ATOM      7  C   UNL     1       1.420   9.067  19.168  0.00  0.00    +0.000 C 
ATOM      8  S   UNL     1       2.411   8.464  17.825  0.00  0.00    +0.000 S 
ATOM      9  C   UNL     1       2.583   6.962  18.668  0.00  0.00    +0.000 C 
ATOM     10  N   UNL     1       2.912   5.821  18.157  0.00  0.00    +0.000 NA
ATOM     11  C   UNL     1       2.462   4.885  19.238  0.00  0.00    +0.000 C 
ATOM     12  C   UNL     1       1.976   5.724  20.454  0.00  0.00    +0.000 C 
ATOM     13  N   UNL     1       2.145   7.069  19.959  0.00  0.00    +0.000 N 
ENDBRANCH   1   7
BRANCH   3  14
ATOM     14  C   UNL     1       0.585  12.670  19.655  0.00  0.00    +0.000 A 
ATOM     15  C   UNL     1      -0.588  13.013  20.348  0.00  0.00    +0.000 A 
ATOM     16  C   UNL     1      -1.321  12.064  21.259  0.00  0.00    +0.000 C 
ATOM     17  C   UNL     1      -1.087  14.317  20.225  0.00  0.00    +0.000 A 
ATOM     18  C   UNL     1      -0.405  15.278  19.479  0.00  0.00    +0.000 A 
ATOM     19  C   UNL     1      -0.959  16.669  19.332  0.00  0.00    +0.000 C 
ATOM     20  C   UNL     1       0.800  14.944  18.852  0.00  0.00    +0.000 A 
ATOM     21  C   UNL     1       1.312  13.646  18.939  0.00  0.00    +0.000 A 
ATOM     22  C   UNL     1       2.581  13.313  18.195  0.00  0.00    +0.000 C 
ENDBRANCH   3  14
TORSDOF 2
ENDMDL
MODEL 7
REMARK VINA RESULT:      -6.4      9.871     13.235
REMARK  Name = 
REMARK  6 active torsions:
REMARK  status: ('A' for Active; 'I' for Inactive)
REMARK    1  A    between atoms: C_1  and  C_2
REMARK    2  A    between atoms: C_3  and  C_4
REMARK    3  A    between atoms: N_6  and  C_7
REMARK    4  A    between atoms: C_8  and  C_9
REMARK    5  A    between atoms: C_11  and  C_12
REMARK    6  A    between atoms: C_14  and  C_15
REMARK                            x       y       z     vdW  Elec       q    Type
REMARK                         _______ _______ _______ _____ _____    ______ ____
ROOT
ATOM      1  C   UNL     1      -5.416  12.420  20.789  0.00  0.00    +0.000 C 
ATOM      2  O   UNL     1      -5.999  11.347  20.758  0.00  0.00    +0.000 OA
ATOM      3  N   UNL     1      -4.500  12.869  19.860  0.00  0.00    +0.000 N 
ATOM      4  H   UNL     1      -3.845  13.562  20.211  0.00  0.00    +0.000 HD
ENDROOT
BRANCH   1   7
ATOM      5  C   UNL     1      -3.526  12.577  23.363  0.00  0.00    +0.000 C 
ATOM      6  C   UNL     1      -4.659  13.484  22.988  0.00  0.00    +0.000 C 
ATOM      7  C   UNL     1      -5.526  13.340  21.956  0.00  0.00    +0.000 C 
ATOM      8  S   UNL     1      -6.861  14.506  22.032  0.00  0.00    +0.000 S 
ATOM      9  C   UNL     1      -6.016  15.345  23.287  0.00  0.00    +0.000 C 
ATOM     10  N   UNL     1      -6.198  16.570  23.659  0.00  0.00    +0.000 NA
ATOM     11  C   UNL     1      -4.930  16.830  24.414  0.00  0.00    +0.000 C 
ATOM     12  C   UNL     1      -4.120  15.506  24.499  0.00  0.00    +0.000 C 
ATOM     13  N   UNL     1      -4.964  14.606  23.753  0.00  0.00    +0.000 N 
ENDBRANCH   1   7
BRANCH   3  14
ATOM     14  C   UNL     1      -4.132  12.173  18.699  0.00  0.00    +0.000 A 
ATOM     15  C   UNL     1      -5.012  12.049  17.611  0.00  0.00    +0.000 A 
ATOM     16  C   UNL     1      -6.357  12.723  17.549  0.00  0.00    +0.000 C 
ATOM     17  C   UNL     1      -4.608  11.295  16.500  0.00  0.00    +0.000 A 
ATOM     18  C   UNL     1      -3.335  10.726  16.444  0.00  0.00    +0.000 A 
ATOM     19  C   UNL     1      -2.918   9.898  15.258  0.00  0.00    +0.000 C 
ATOM     20  C   UNL     1      -2.443  10.917  17.503  0.00  0.00    +0.000 A 
ATOM     21  C   UNL     1      -2.824  11.646  18.633  0.00  0.00    +0.000 A 
ATOM     22  C   UNL     1      -1.852  11.773  19.779  0.00  0.00    +0.000 C 
ENDBRANCH   3  14
TORSDOF 2
ENDMDL
MODEL 8
REMARK VINA RESULT:      -6.3      8.740     12.178
REMARK  Name = 
REMARK  6 active torsions:
REMARK  status: ('A' for Active; 'I' for Inactive)
REMARK    1  A    between atoms: C_1  and  C_2
REMARK    2  A    between atoms: C_3  and  C_4
REMARK    3  A    between atoms: N_6  and  C_7
REMARK    4  A    between atoms: C_8  and  C_9
REMARK    5  A    between atoms: C_11  and  C_12
REMARK    6  A    between atoms: C_14  and  C_15
REMARK                            x       y       z     vdW  Elec       q    Type
REMARK                         _______ _______ _______ _____ _____    ______ ____
ROOT
ATOM      1  C   UNL     1      -2.671  13.055  20.211  0.00  0.00    +0.000 C 
ATOM      2  O   UNL     1      -1.804  13.658  19.598  0.00  0.00    +0.000 OA
ATOM      3  N   UNL     1      -3.435  12.017  19.718  0.00  0.00    +0.000 N 
ATOM      4  H   UNL     1      -4.330  11.893  20.183  0.00  0.00    +0.000 HD
ENDROOT
BRANCH   1   7
ATOM      5  C   UNL     1      -1.162  12.651  23.001  0.00  0.00    +0.000 C 
ATOM      6  C   UNL     1      -2.423  13.414  22.731  0.00  0.00    +0.000 C 
ATOM      7  C   UNL     1      -3.115  13.482  21.568  0.00  0.00    +0.000 C 
ATOM      8  S   UNL     1      -4.681  14.294  21.763  0.00  0.00    +0.000 S 
ATOM      9  C   UNL     1      -4.193  14.786  23.349  0.00  0.00    +0.000 C 
ATOM     10  N   UNL     1      -4.689  15.755  24.045  0.00  0.00    +0.000 NA
ATOM     11  C   UNL     1      -3.604  15.961  25.059  0.00  0.00    +0.000 C 
ATOM     12  C   UNL     1      -2.528  14.855  24.870  0.00  0.00    +0.000 C 
ATOM     13  N   UNL     1      -3.058  14.132  23.740  0.00  0.00    +0.000 N 
ENDBRANCH   1   7
BRANCH   3  14
ATOM     14  C   UNL     1      -3.298  11.461  18.438  0.00  0.00    +0.000 A 
ATOM     15  C   UNL     1      -2.176  10.689  18.092  0.00  0.00    +0.000 A 
ATOM     16  C   UNL     1      -1.095  10.310  19.071  0.00  0.00    +0.000 C 
ATOM     17  C   UNL     1      -2.068  10.205  16.781  0.00  0.00    +0.000 A 
ATOM     18  C   UNL     1      -3.081  10.431  15.848  0.00  0.00    +0.000 A 
ATOM     19  C   UNL     1      -2.947   9.929  14.436  0.00  0.00    +0.000 C 
ATOM     20  C   UNL     1      -4.226  11.139  16.225  0.00  0.00    +0.000 A 
ATOM     21  C   UNL     1      -4.352  11.653  17.520  0.00  0.00    +0.000 A 
ATOM     22  C   UNL     1      -5.575  12.465  17.863  0.00  0.00    +0.000 C 
ENDBRANCH   3  14
TORSDOF 2
ENDMDL
MODEL 9
REMARK VINA RESULT:      -6.3      3.585      7.631
REMARK  Name = 
REMARK  6 active torsions:
REMARK  status: ('A' for Active; 'I' for Inactive)
REMARK    1  A    between atoms: C_1  and  C_2
REMARK    2  A    between atoms: C_3  and  C_4
REMARK    3  A    between atoms: N_6  and  C_7
REMARK    4  A    between atoms: C_8  and  C_9
REMARK    5  A    between atoms: C_11  and  C_12
REMARK    6  A    between atoms: C_14  and  C_15
REMARK                            x       y       z     vdW  Elec       q    Type
REMARK                         _______ _______ _______ _____ _____    ______ ____
ROOT
ATOM      1  C   UNL     1       1.712   8.179  19.158  0.00  0.00    +0.000 C 
ATOM      2  O   UNL     1       1.314   8.202  18.003  0.00  0.00    +0.000 OA
ATOM      3  N   UNL     1       2.396   7.140  19.755  0.00  0.00    +0.000 N 
ATOM      4  H   UNL     1       2.313   7.105  20.767  0.00  0.00    +0.000 HD
ENDROOT
BRANCH   1   7
ATOM      5  C   UNL     1       1.345  11.305  18.599  0.00  0.00    +0.000 C 
ATOM      6  C   UNL     1       1.095  10.555  19.872  0.00  0.00    +0.000 C 
ATOM      7  C   UNL     1       1.364   9.252  20.131  0.00  0.00    +0.000 C 
ATOM      8  S   UNL     1       1.139   8.846  21.844  0.00  0.00    +0.000 S 
ATOM      9  C   UNL     1       0.386  10.386  22.077  0.00  0.00    +0.000 C 
ATOM     10  N   UNL     1      -0.399  10.724  23.048  0.00  0.00    +0.000 NA
ATOM     11  C   UNL     1      -1.050  11.947  22.474  0.00  0.00    +0.000 C 
ATOM     12  C   UNL     1      -0.379  12.275  21.110  0.00  0.00    +0.000 C 
ATOM     13  N   UNL     1       0.569  11.195  20.991  0.00  0.00    +0.000 N 
ENDBRANCH   1   7
BRANCH   3  14
ATOM     14  C   UNL     1       2.786   5.960  19.105  0.00  0.00    +0.000 A 
ATOM     15  C   UNL     1       3.752   5.972  18.084  0.00  0.00    +0.000 A 
ATOM     16  C   UNL     1       4.514   7.205  17.676  0.00  0.00    +0.000 C 
ATOM     17  C   UNL     1       4.060   4.769  17.434  0.00  0.00    +0.000 A 
ATOM     18  C   UNL     1       3.467   3.568  17.827  0.00  0.00    +0.000 A 
ATOM     19  C   UNL     1       3.786   2.285  17.108  0.00  0.00    +0.000 C 
ATOM     20  C   UNL     1       2.561   3.559  18.892  0.00  0.00    +0.000 A 
ATOM     21  C   UNL     1       2.218   4.746  19.546  0.00  0.00    +0.000 A 
ATOM     22  C   UNL     1       1.188   4.697  20.647  0.00  0.00    +0.000 C 
ENDBRANCH   3  14
TORSDOF 2
ENDMDL
