MODEL 1
REMARK VINA RESULT:      -8.8      0.000      0.000
REMARK  Name = 
REMARK  12 active torsions:
REMARK  status: ('A' for Active; 'I' for Inactive)
REMARK    1  A    between atoms: C_1  and  O_2
REMARK    2  A    between atoms: O_2  and  C_3
REMARK    3  A    between atoms: C_6  and  N_7
REMARK    4  A    between atoms: N_7  and  C_8
REMARK    5  A    between atoms: C_8  and  C_9
REMARK    6  A    between atoms: C_9  and  N_10
REMARK    7  A    between atoms: C_11  and  C_13
REMARK    8  A    between atoms: C_13  and  C_14
REMARK    9  A    between atoms: C_13  and  N_22
REMARK   10  A    between atoms: C_14  and  C_15
REMARK   11  A    between atoms: C_23  and  C_25
REMARK   12  A    between atoms: C_29  and  C_30
REMARK                            x       y       z     vdW  Elec       q    Type
REMARK                         _______ _______ _______ _____ _____    ______ ____
ROOT
ATOM      1  C   UNL     1       5.905   4.606  16.769  0.00  0.00    +0.000 C 
ENDROOT
BRANCH   1   3
ATOM      2  N   UNL     1       7.179   6.376  17.919  0.00  0.00    +0.000 N 
ATOM      3  C   UNL     1       7.219   5.078  17.440  0.00  0.00    +0.000 C 
ATOM      4  O   UNL     1       8.225   4.378  17.502  0.00  0.00    +0.000 OA
ATOM      5  H   UNL     1       6.285   6.845  17.969  0.00  0.00    +0.000 HD
BRANCH   2   6
ATOM      6  C   UNL     1       8.328   7.024  18.528  0.00  0.00    +0.000 C 
BRANCH   6   7
ATOM      7  C   UNL     1       8.279   8.550  18.331  0.00  0.00    +0.000 C 
BRANCH   7   8
ATOM      8  N   UNL     1       9.046   9.255  19.357  0.00  0.00    +0.000 N 
ATOM      9  H   UNL     1       8.672   9.112  20.293  0.00  0.00    +0.000 HD
BRANCH   8  13
ATOM     10  C   UNL     1      10.159  13.291  18.693  0.00  0.00    +0.000 A 
ATOM     11  C   UNL     1      10.468  12.643  19.886  0.00  0.00    +0.000 A 
ATOM     12  C   UNL     1      10.087  11.311  20.091  0.00  0.00    +0.000 A 
ATOM     13  C   UNL     1       9.342  10.610  19.133  0.00  0.00    +0.000 A 
ATOM     14  C   UNL     1       9.041  11.276  17.939  0.00  0.00    +0.000 A 
ATOM     15  C   UNL     1       9.436  12.605  17.721  0.00  0.00    +0.000 A 
BRANCH  10  17
ATOM     16  C   UNL     1      11.157  14.949  17.340  0.00  0.00    +0.000 C 
ATOM     17  O   UNL     1      10.586  14.586  18.594  0.00  0.00    +0.000 OA
ENDBRANCH  10  17
ENDBRANCH   8  13
ENDBRANCH   7   8
ENDBRANCH   6   7
ENDBRANCH   2   6
ENDBRANCH   1   3
BRANCH   1  18
ATOM     18  N   UNL     1       4.815   4.635  17.745  0.00  0.00    +0.000 N 
ATOM     19  C   UNL     1       3.986   3.555  17.945  0.00  0.00    +0.000 C 
ATOM     20  O   UNL     1       4.134   2.482  17.375  0.00  0.00    +0.000 OA
ATOM     21  H   UNL     1       4.780   5.436  18.368  0.00  0.00    +0.000 HD
BRANCH  19  22
ATOM     22  C   UNL     1       2.865   3.750  18.901  0.00  0.00    +0.000 A 
ATOM     23  C   UNL     1       1.954   2.708  19.111  0.00  0.00    +0.000 A 
ATOM     24  C   UNL     1       0.861   2.896  19.958  0.00  0.00    +0.000 A 
ATOM     25  C   UNL     1       0.660   4.132  20.580  0.00  0.00    +0.000 A 
ATOM     26  C   UNL     1       1.555   5.187  20.364  0.00  0.00    +0.000 A 
ATOM     27  C   UNL     1       1.328   6.536  20.979  0.00  0.00    +0.000 C 
ATOM     28  C   UNL     1       2.662   4.987  19.528  0.00  0.00    +0.000 A 
ENDBRANCH  19  22
ENDBRANCH   1  18
BRANCH   1  29
ATOM     29  C   UNL     1       5.553   5.384  15.480  0.00  0.00    +0.000 C 
BRANCH  29  30
ATOM     30  C   UNL     1       6.211   4.843  14.229  0.00  0.00    +0.000 A 
ATOM     31  C   UNL     1       7.385   5.417  13.717  0.00  0.00    +0.000 A 
ATOM     32  C   UNL     1       7.903   4.995  12.491  0.00  0.00    +0.000 A 
ATOM     33  C   UNL     1       7.270   3.978  11.777  0.00  0.00    +0.000 A 
ATOM     34  C   UNL     1       6.142   3.361  12.311  0.00  0.00    +0.000 A 
ATOM     35 CL   UNL     1       5.377   2.083  11.451  0.00  0.00    +0.000 Cl
ATOM     36  C   UNL     1       5.615   3.785  13.529  0.00  0.00    +0.000 A 
ENDBRANCH  29  30
ENDBRANCH   1  29
TORSDOF 10
ENDMDL
MODEL 2
REMARK VINA RESULT:      -8.4      2.427      5.991
REMARK  Name = 
REMARK  12 active torsions:
REMARK  status: ('A' for Active; 'I' for Inactive)
REMARK    1  A    between atoms: C_1  and  O_2
REMARK    2  A    between atoms: O_2  and  C_3
REMARK    3  A    between atoms: C_6  and  N_7
REMARK    4  A    between atoms: N_7  and  C_8
REMARK    5  A    between atoms: C_8  and  C_9
REMARK    6  A    between atoms: C_9  and  N_10
REMARK    7  A    between atoms: C_11  and  C_13
REMARK    8  A    between atoms: C_13  and  C_14
REMARK    9  A    between atoms: C_13  and  N_22
REMARK   10  A    between atoms: C_14  and  C_15
REMARK   11  A    between atoms: C_23  and  C_25
REMARK   12  A    between atoms: C_29  and  C_30
REMARK                            x       y       z     vdW  Elec       q    Type
REMARK                         _______ _______ _______ _____ _____    ______ ____
ROOT
ATOM      1  C   UNL     1       5.937   5.492  17.723  0.00  0.00    +0.000 C 
ENDROOT
BRANCH   1   3
ATOM      2  N   UNL     1       7.380   7.463  17.392  0.00  0.00    +0.000 N 
ATOM      3  C   UNL     1       7.188   6.309  18.131  0.00  0.00    +0.000 C 
ATOM      4  O   UNL     1       7.969   5.942  19.004  0.00  0.00    +0.000 OA
ATOM      5  H   UNL     1       6.632   7.784  16.793  0.00  0.00    +0.000 HD
BRANCH   2   6
ATOM      6  C   UNL     1       8.527   8.335  17.581  0.00  0.00    +0.000 C 
BRANCH   6   7
ATOM      7  C   UNL     1       8.143   9.605  18.361  0.00  0.00    +0.000 C 
BRANCH   7   8
ATOM      8  N   UNL     1       9.114   9.913  19.410  0.00  0.00    +0.000 N 
ATOM      9  H   UNL     1       8.688   9.967  20.333  0.00  0.00    +0.000 HD
BRANCH   8  13
ATOM     10  C   UNL     1      11.574  13.285  18.674  0.00  0.00    +0.000 A 
ATOM     11  C   UNL     1      10.953  12.602  17.632  0.00  0.00    +0.000 A 
ATOM     12  C   UNL     1      10.149  11.486  17.893  0.00  0.00    +0.000 A 
ATOM     13  C   UNL     1       9.988  10.991  19.194  0.00  0.00    +0.000 A 
ATOM     14  C   UNL     1      10.617  11.691  20.230  0.00  0.00    +0.000 A 
ATOM     15  C   UNL     1      11.410  12.821  19.977  0.00  0.00    +0.000 A 
BRANCH  10  17
ATOM     16  C   UNL     1      12.136  15.540  19.093  0.00  0.00    +0.000 C 
ATOM     17  O   UNL     1      12.328  14.366  18.310  0.00  0.00    +0.000 OA
ENDBRANCH  10  17
ENDBRANCH   8  13
ENDBRANCH   7   8
ENDBRANCH   6   7
ENDBRANCH   2   6
ENDBRANCH   1   3
BRANCH   1  18
ATOM     18  N   UNL     1       6.161   4.864  16.419  0.00  0.00    +0.000 N 
ATOM     19  C   UNL     1       5.734   5.445  15.247  0.00  0.00    +0.000 C 
ATOM     20  O   UNL     1       5.196   6.544  15.201  0.00  0.00    +0.000 OA
ATOM     21  H   UNL     1       6.766   4.049  16.402  0.00  0.00    +0.000 HD
BRANCH  19  22
ATOM     22  C   UNL     1       5.947   4.659  14.004  0.00  0.00    +0.000 A 
ATOM     23  C   UNL     1       7.243   4.517  13.495  0.00  0.00    +0.000 A 
ATOM     24  C   UNL     1       7.452   3.834  12.296  0.00  0.00    +0.000 A 
ATOM     25  C   UNL     1       6.366   3.312  11.589  0.00  0.00    +0.000 A 
ATOM     26  C   UNL     1       5.063   3.462  12.078  0.00  0.00    +0.000 A 
ATOM     27  C   UNL     1       3.879   2.956  11.307  0.00  0.00    +0.000 C 
ATOM     28  C   UNL     1       4.860   4.132  13.293  0.00  0.00    +0.000 A 
ENDBRANCH  19  22
ENDBRANCH   1  18
BRANCH   1  29
ATOM     29  C   UNL     1       5.489   4.468  18.791  0.00  0.00    +0.000 C 
BRANCH  29  30
ATOM     30  C   UNL     1       4.102   4.716  19.345  0.00  0.00    +0.000 A 
ATOM     31  C   UNL     1       3.479   5.967  19.217  0.00  0.00    +0.000 A 
ATOM     32  C   UNL     1       2.260   6.219  19.849  0.00  0.00    +0.000 A 
ATOM     33  C   UNL     1       1.638   5.218  20.594  0.00  0.00    +0.000 A 
ATOM     34  C   UNL     1       2.220   3.955  20.672  0.00  0.00    +0.000 A 
ATOM     35 CL   UNL     1       1.441   2.705  21.560  0.00  0.00    +0.000 Cl
ATOM     36  C   UNL     1       3.441   3.701  20.051  0.00  0.00    +0.000 A 
ENDBRANCH  29  30
ENDBRANCH   1  29
TORSDOF 10
ENDMDL
MODEL 3
REMARK VINA RESULT:      -8.4      3.087      4.622
REMARK  Name = 
REMARK  12 active torsions:
REMARK  status: ('A' for Active; 'I' for Inactive)
REMARK    1  A    between atoms: C_1  and  O_2
REMARK    2  A    between atoms: O_2  and  C_3
REMARK    3  A    between atoms: C_6  and  N_7
REMARK    4  A    between atoms: N_7  and  C_8
REMARK    5  A    between atoms: C_8  and  C_9
REMARK    6  A    between atoms: C_9  and  N_10
REMARK    7  A    between atoms: C_11  and  C_13
REMARK    8  A    between atoms: C_13  and  C_14
REMARK    9  A    between atoms: C_13  and  N_22
REMARK   10  A    between atoms: C_14  and  C_15
REMARK   11  A    between atoms: C_23  and  C_25
REMARK   12  A    between atoms: C_29  and  C_30
REMARK                            x       y       z     vdW  Elec       q    Type
REMARK                         _______ _______ _______ _____ _____    ______ ____
ROOT
ATOM      1  C   UNL     1       4.838   5.974  17.654  0.00  0.00    +0.000 C 
ENDROOT
BRANCH   1   3
ATOM      2  N   UNL     1       6.880   7.327  17.935  0.00  0.00    +0.000 N 
ATOM      3  C   UNL     1       6.118   6.595  17.041  0.00  0.00    +0.000 C 
ATOM      4  O   UNL     1       6.410   6.487  15.854  0.00  0.00    +0.000 OA
ATOM      5  H   UNL     1       6.668   7.257  18.920  0.00  0.00    +0.000 HD
BRANCH   2   6
ATOM      6  C   UNL     1       8.086   8.037  17.543  0.00  0.00    +0.000 C 
BRANCH   6   7
ATOM      7  C   UNL     1       8.086   9.479  18.080  0.00  0.00    +0.000 C 
BRANCH   7   8
ATOM      8  N   UNL     1       9.071   9.662  19.145  0.00  0.00    +0.000 N 
ATOM      9  H   UNL     1       8.668   9.550  20.073  0.00  0.00    +0.000 HD
BRANCH   8  13
ATOM     10  C   UNL     1      11.373  13.211  18.870  0.00  0.00    +0.000 A 
ATOM     11  C   UNL     1      10.909  12.560  17.730  0.00  0.00    +0.000 A 
ATOM     12  C   UNL     1      10.155  11.385  17.839  0.00  0.00    +0.000 A 
ATOM     13  C   UNL     1       9.891  10.801  19.085  0.00  0.00    +0.000 A 
ATOM     14  C   UNL     1      10.363  11.469  20.221  0.00  0.00    +0.000 A 
ATOM     15  C   UNL     1      11.104  12.657  20.119  0.00  0.00    +0.000 A 
BRANCH  10  17
ATOM     16  C   UNL     1      12.232  15.215  19.776  0.00  0.00    +0.000 C 
ATOM     17  O   UNL     1      12.090  14.354  18.651  0.00  0.00    +0.000 OA
ENDBRANCH  10  17
ENDBRANCH   8  13
ENDBRANCH   7   8
ENDBRANCH   6   7
ENDBRANCH   2   6
ENDBRANCH   1   3
BRANCH   1  18
ATOM     18  N   UNL     1       3.852   7.026  17.908  0.00  0.00    +0.000 N 
ATOM     19  C   UNL     1       3.008   6.986  18.994  0.00  0.00    +0.000 C 
ATOM     20  O   UNL     1       3.058   6.112  19.851  0.00  0.00    +0.000 OA
ATOM     21  H   UNL     1       3.909   7.856  17.327  0.00  0.00    +0.000 HD
BRANCH  19  22
ATOM     22  C   UNL     1       1.995   8.070  19.084  0.00  0.00    +0.000 A 
ATOM     23  C   UNL     1       1.685   8.816  17.941  0.00  0.00    +0.000 A 
ATOM     24  C   UNL     1       0.782   9.876  18.023  0.00  0.00    +0.000 A 
ATOM     25  C   UNL     1       0.204  10.212  19.251  0.00  0.00    +0.000 A 
ATOM     26  C   UNL     1       0.519   9.484  20.405  0.00  0.00    +0.000 A 
ATOM     27  C   UNL     1      -0.049   9.861  21.741  0.00  0.00    +0.000 C 
ATOM     28  C   UNL     1       1.412   8.407  20.313  0.00  0.00    +0.000 A 
ENDBRANCH  19  22
ENDBRANCH   1  18
BRANCH   1  29
ATOM     29  C   UNL     1       4.249   4.815  16.817  0.00  0.00    +0.000 C 
BRANCH  29  30
ATOM     30  C   UNL     1       3.641   3.701  17.641  0.00  0.00    +0.000 A 
ATOM     31  C   UNL     1       2.342   3.233  17.388  0.00  0.00    +0.000 A 
ATOM     32  C   UNL     1       1.747   2.301  18.240  0.00  0.00    +0.000 A 
ATOM     33  C   UNL     1       2.450   1.808  19.339  0.00  0.00    +0.000 A 
ATOM     34  C   UNL     1       3.762   2.220  19.557  0.00  0.00    +0.000 A 
ATOM     35 CL   UNL     1       4.648   1.589  20.890  0.00  0.00    +0.000 Cl
ATOM     36  C   UNL     1       4.358   3.157  18.716  0.00  0.00    +0.000 A 
ENDBRANCH  29  30
ENDBRANCH   1  29
TORSDOF 10
ENDMDL
MODEL 4
REMARK VINA RESULT:      -8.2      4.572      8.167
REMARK  Name = 
REMARK  12 active torsions:
REMARK  status: ('A' for Active; 'I' for Inactive)
REMARK    1  A    between atoms: C_1  and  O_2
REMARK    2  A    between atoms: O_2  and  C_3
REMARK    3  A    between atoms: C_6  and  N_7
REMARK    4  A    between atoms: N_7  and  C_8
REMARK    5  A    between atoms: C_8  and  C_9
REMARK    6  A    between atoms: C_9  and  N_10
REMARK    7  A    between atoms: C_11  and  C_13
REMARK    8  A    between atoms: C_13  and  C_14
REMARK    9  A    between atoms: C_13  and  N_22
REMARK   10  A    between atoms: C_14  and  C_15
REMARK   11  A    between atoms: C_23  and  C_25
REMARK   12  A    between atoms: C_29  and  C_30
REMARK                            x       y       z     vdW  Elec       q    Type
REMARK                         _______ _______ _______ _____ _____    ______ ____
ROOT
ATOM      1  C   UNL     1       2.725   6.889  18.333  0.00  0.00    +0.000 C 
ENDROOT
BRANCH   1   3
ATOM      2  N   UNL     1       5.130   6.511  17.944  0.00  0.00    +0.000 N 
ATOM      3  C   UNL     1       4.011   7.216  17.534  0.00  0.00    +0.000 C 
ATOM      4  O   UNL     1       4.048   8.059  16.643  0.00  0.00    +0.000 OA
ATOM      5  H   UNL     1       5.006   5.733  18.576  0.00  0.00    +0.000 HD
BRANCH   2   6
ATOM      6  C   UNL     1       6.445   6.718  17.361  0.00  0.00    +0.000 C 
BRANCH   6   7
ATOM      7  C   UNL     1       7.042   5.397  16.843  0.00  0.00    +0.000 C 
BRANCH   7   8
ATOM      8  N   UNL     1       7.573   5.534  15.488  0.00  0.00    +0.000 N 
ATOM      9  H   UNL     1       7.777   6.501  15.244  0.00  0.00    +0.000 HD
BRANCH   8  13
ATOM     10  C   UNL     1       5.655   3.421  12.354  0.00  0.00    +0.000 A 
ATOM     11  C   UNL     1       6.919   3.979  12.182  0.00  0.00    +0.000 A 
ATOM     12  C   UNL     1       7.535   4.679  13.226  0.00  0.00    +0.000 A 
ATOM     13  C   UNL     1       6.883   4.887  14.449  0.00  0.00    +0.000 A 
ATOM     14  C   UNL     1       5.614   4.317  14.606  0.00  0.00    +0.000 A 
ATOM     15  C   UNL     1       4.999   3.599  13.569  0.00  0.00    +0.000 A 
BRANCH  10  17
ATOM     16  C   UNL     1       3.823   3.104  10.897  0.00  0.00    +0.000 C 
ATOM     17  O   UNL     1       5.150   2.750  11.275  0.00  0.00    +0.000 OA
ENDBRANCH  10  17
ENDBRANCH   8  13
ENDBRANCH   7   8
ENDBRANCH   6   7
ENDBRANCH   2   6
ENDBRANCH   1   3
BRANCH   1  18
ATOM     18  N   UNL     1       1.973   8.120  18.582  0.00  0.00    +0.000 N 
ATOM     19  C   UNL     1       1.497   8.443  19.832  0.00  0.00    +0.000 C 
ATOM     20  O   UNL     1       1.717   7.766  20.829  0.00  0.00    +0.000 OA
ATOM     21  H   UNL     1       1.933   8.794  17.823  0.00  0.00    +0.000 HD
BRANCH  19  22
ATOM     22  C   UNL     1       0.673   9.676  19.928  0.00  0.00    +0.000 A 
ATOM     23  C   UNL     1       0.628  10.378  21.138  0.00  0.00    +0.000 A 
ATOM     24  C   UNL     1      -0.189  11.503  21.262  0.00  0.00    +0.000 A 
ATOM     25  C   UNL     1      -0.982  11.916  20.187  0.00  0.00    +0.000 A 
ATOM     26  C   UNL     1      -0.958  11.212  18.978  0.00  0.00    +0.000 A 
ATOM     27  C   UNL     1      -1.840  11.608  17.830  0.00  0.00    +0.000 C 
ATOM     28  C   UNL     1      -0.121  10.095  18.851  0.00  0.00    +0.000 A 
ENDBRANCH  19  22
ENDBRANCH   1  18
BRANCH   1  29
ATOM     29  C   UNL     1       1.850   5.795  17.677  0.00  0.00    +0.000 C 
BRANCH  29  30
ATOM     30  C   UNL     1       2.061   4.408  18.245  0.00  0.00    +0.000 A 
ATOM     31  C   UNL     1       2.489   3.346  17.434  0.00  0.00    +0.000 A 
ATOM     32  C   UNL     1       2.549   2.047  17.942  0.00  0.00    +0.000 A 
ATOM     33  C   UNL     1       2.208   1.799  19.271  0.00  0.00    +0.000 A 
ATOM     34  C   UNL     1       1.845   2.859  20.098  0.00  0.00    +0.000 A 
ATOM     35 CL   UNL     1       1.457   2.565  21.748  0.00  0.00    +0.000 Cl
ATOM     36  C   UNL     1       1.774   4.156  19.594  0.00  0.00    +0.000 A 
ENDBRANCH  29  30
ENDBRANCH   1  29
TORSDOF 10
ENDMDL
MODEL 5
REMARK VINA RESULT:      -8.1      2.358      6.224
REMARK  Name = 
REMARK  12 active torsions:
REMARK  status: ('A' for Active; 'I' for Inactive)
REMARK    1  A    between atoms: C_1  and  O_2
REMARK    2  A    between atoms: O_2  and  C_3
REMARK    3  A    between atoms: C_6  and  N_7
REMARK    4  A    between atoms: N_7  and  C_8
REMARK    5  A    between atoms: C_8  and  C_9
REMARK    6  A    between atoms: C_9  and  N_10
REMARK    7  A    between atoms: C_11  and  C_13
REMARK    8  A    between atoms: C_13  and  C_14
REMARK    9  A    between atoms: C_13  and  N_22
REMARK   10  A    between atoms: C_14  and  C_15
REMARK   11  A    between atoms: C_23  and  C_25
REMARK   12  A    between atoms: C_29  and  C_30
REMARK                            x       y       z     vdW  Elec       q    Type
REMARK                         _______ _______ _______ _____ _____    ______ ____
ROOT
ATOM      1  C   UNL     1       5.202   4.729  17.480  0.00  0.00    +0.000 C 
ENDROOT
BRANCH   1   3
ATOM      2  N   UNL     1       6.951   6.401  17.951  0.00  0.00    +0.000 N 
ATOM      3  C   UNL     1       6.331   5.249  18.404  0.00  0.00    +0.000 C 
ATOM      4  O   UNL     1       6.677   4.668  19.428  0.00  0.00    +0.000 OA
ATOM      5  H   UNL     1       6.529   6.908  17.187  0.00  0.00    +0.000 HD
BRANCH   2   6
ATOM      6  C   UNL     1       8.072   7.013  18.644  0.00  0.00    +0.000 C 
BRANCH   6   7
ATOM      7  C   UNL     1       8.225   8.496  18.260  0.00  0.00    +0.000 C 
BRANCH   7   8
ATOM      8  N   UNL     1       9.199   9.179  19.110  0.00  0.00    +0.000 N 
ATOM      9  H   UNL     1       9.215   8.814  20.060  0.00  0.00    +0.000 HD
BRANCH   8  13
ATOM     10  C   UNL     1       9.389  13.414  19.185  0.00  0.00    +0.000 A 
ATOM     11  C   UNL     1       9.506  12.663  20.353  0.00  0.00    +0.000 A 
ATOM     12  C   UNL     1       9.435  11.266  20.310  0.00  0.00    +0.000 A 
ATOM     13  C   UNL     1       9.191  10.584  19.110  0.00  0.00    +0.000 A 
ATOM     14  C   UNL     1       9.077  11.353  17.946  0.00  0.00    +0.000 A 
ATOM     15  C   UNL     1       9.166  12.753  17.980  0.00  0.00    +0.000 A 
BRANCH  10  17
ATOM     16  C   UNL     1       8.244  15.465  19.426  0.00  0.00    +0.000 C 
ATOM     17  O   UNL     1       9.483  14.768  19.339  0.00  0.00    +0.000 OA
ENDBRANCH  10  17
ENDBRANCH   8  13
ENDBRANCH   7   8
ENDBRANCH   6   7
ENDBRANCH   2   6
ENDBRANCH   1   3
BRANCH   1  18
ATOM     18  N   UNL     1       5.763   4.348  16.182  0.00  0.00    +0.000 N 
ATOM     19  C   UNL     1       5.852   5.239  15.137  0.00  0.00    +0.000 C 
ATOM     20  O   UNL     1       5.530   6.417  15.230  0.00  0.00    +0.000 OA
ATOM     21  H   UNL     1       6.211   3.439  16.126  0.00  0.00    +0.000 HD
BRANCH  19  22
ATOM     22  C   UNL     1       6.358   4.698  13.848  0.00  0.00    +0.000 A 
ATOM     23  C   UNL     1       7.346   5.403  13.150  0.00  0.00    +0.000 A 
ATOM     24  C   UNL     1       7.788   4.940  11.910  0.00  0.00    +0.000 A 
ATOM     25  C   UNL     1       7.229   3.788  11.351  0.00  0.00    +0.000 A 
ATOM     26  C   UNL     1       6.228   3.084  12.032  0.00  0.00    +0.000 A 
ATOM     27  C   UNL     1       5.578   1.876  11.426  0.00  0.00    +0.000 C 
ATOM     28  C   UNL     1       5.801   3.542  13.287  0.00  0.00    +0.000 A 
ENDBRANCH  19  22
ENDBRANCH   1  18
BRANCH   1  29
ATOM     29  C   UNL     1       4.363   3.591  18.106  0.00  0.00    +0.000 C 
BRANCH  29  30
ATOM     30  C   UNL     1       3.262   4.068  19.028  0.00  0.00    +0.000 A 
ATOM     31  C   UNL     1       2.816   5.398  19.004  0.00  0.00    +0.000 A 
ATOM     32  C   UNL     1       1.897   5.854  19.951  0.00  0.00    +0.000 A 
ATOM     33  C   UNL     1       1.394   4.981  20.916  0.00  0.00    +0.000 A 
ATOM     34  C   UNL     1       1.785   3.644  20.904  0.00  0.00    +0.000 A 
ATOM     35 CL   UNL     1       1.142   2.554  22.069  0.00  0.00    +0.000 Cl
ATOM     36  C   UNL     1       2.708   3.186  19.968  0.00  0.00    +0.000 A 
ENDBRANCH  29  30
ENDBRANCH   1  29
TORSDOF 10
ENDMDL
MODEL 6
REMARK VINA RESULT:      -8.1      1.240      1.744
REMARK  Name = 
REMARK  12 active torsions:
REMARK  status: ('A' for Active; 'I' for Inactive)
REMARK    1  A    between atoms: C_1  and  O_2
REMARK    2  A    between atoms: O_2  and  C_3
REMARK    3  A    between atoms: C_6  and  N_7
REMARK    4  A    between atoms: N_7  and  C_8
REMARK    5  A    between atoms: C_8  and  C_9
REMARK    6  A    between atoms: C_9  and  N_10
REMARK    7  A    between atoms: C_11  and  C_13
REMARK    8  A    between atoms: C_13  and  C_14
REMARK    9  A    between atoms: C_13  and  N_22
REMARK   10  A    between atoms: C_14  and  C_15
REMARK   11  A    between atoms: C_23  and  C_25
REMARK   12  A    between atoms: C_29  and  C_30
REMARK                            x       y       z     vdW  Elec       q    Type
REMARK                         _______ _______ _______ _____ _____    ______ ____
ROOT
ATOM      1  C   UNL     1       6.253   4.838  16.977  0.00  0.00    +0.000 C 
ENDROOT
BRANCH   1   3
ATOM      2  N   UNL     1       7.326   6.936  17.701  0.00  0.00    +0.000 N 
ATOM      3  C   UNL     1       7.230   5.573  17.927  0.00  0.00    +0.000 C 
ATOM      4  O   UNL     1       7.896   4.994  18.779  0.00  0.00    +0.000 OA
ATOM      5  H   UNL     1       6.650   7.373  17.091  0.00  0.00    +0.000 HD
BRANCH   2   6
ATOM      6  C   UNL     1       8.231   7.794  18.447  0.00  0.00    +0.000 C 
BRANCH   6   7
ATOM      7  C   UNL     1       8.108   9.261  17.999  0.00  0.00    +0.000 C 
BRANCH   7   8
ATOM      8  N   UNL     1       9.379   9.974  18.120  0.00  0.00    +0.000 N 
ATOM      9  H   UNL     1      10.041   9.494  18.725  0.00  0.00    +0.000 HD
BRANCH   8  13
ATOM     10  C   UNL     1       9.453  14.128  18.965  0.00  0.00    +0.000 A 
ATOM     11  C   UNL     1      10.185  13.222  19.728  0.00  0.00    +0.000 A 
ATOM     12  C   UNL     1      10.144  11.852  19.438  0.00  0.00    +0.000 A 
ATOM     13  C   UNL     1       9.330  11.347  18.416  0.00  0.00    +0.000 A 
ATOM     14  C   UNL     1       8.602  12.272  17.658  0.00  0.00    +0.000 A 
ATOM     15  C   UNL     1       8.653  13.647  17.931  0.00  0.00    +0.000 A 
BRANCH  10  17
ATOM     16  C   UNL     1       9.676  15.686  20.726  0.00  0.00    +0.000 C 
ATOM     17  O   UNL     1       9.573  15.441  19.326  0.00  0.00    +0.000 OA
ENDBRANCH  10  17
ENDBRANCH   8  13
ENDBRANCH   7   8
ENDBRANCH   6   7
ENDBRANCH   2   6
ENDBRANCH   1   3
BRANCH   1  18
ATOM     18  N   UNL     1       5.063   4.419  17.720  0.00  0.00    +0.000 N 
ATOM     19  C   UNL     1       4.114   5.320  18.144  0.00  0.00    +0.000 C 
ATOM     20  O   UNL     1       4.161   6.516  17.883  0.00  0.00    +0.000 OA
ATOM     21  H   UNL     1       4.896   3.420  17.791  0.00  0.00    +0.000 HD
BRANCH  19  22
ATOM     22  C   UNL     1       3.002   4.773  18.965  0.00  0.00    +0.000 A 
ATOM     23  C   UNL     1       2.791   5.274  20.255  0.00  0.00    +0.000 A 
ATOM     24  C   UNL     1       1.791   4.728  21.060  0.00  0.00    +0.000 A 
ATOM     25  C   UNL     1       1.015   3.665  20.591  0.00  0.00    +0.000 A 
ATOM     26  C   UNL     1       1.228   3.143  19.309  0.00  0.00    +0.000 A 
ATOM     27  C   UNL     1       0.442   1.968  18.807  0.00  0.00    +0.000 C 
ATOM     28  C   UNL     1       2.221   3.708  18.496  0.00  0.00    +0.000 A 
ENDBRANCH  19  22
ENDBRANCH   1  18
BRANCH   1  29
ATOM     29  C   UNL     1       5.892   5.648  15.711  0.00  0.00    +0.000 C 
BRANCH  29  30
ATOM     30  C   UNL     1       6.426   5.059  14.423  0.00  0.00    +0.000 A 
ATOM     31  C   UNL     1       7.592   5.557  13.822  0.00  0.00    +0.000 A 
ATOM     32  C   UNL     1       7.995   5.095  12.568  0.00  0.00    +0.000 A 
ATOM     33  C   UNL     1       7.254   4.111  11.913  0.00  0.00    +0.000 A 
ATOM     34  C   UNL     1       6.133   3.567  12.534  0.00  0.00    +0.000 A 
ATOM     35 CL   UNL     1       5.234   2.329  11.747  0.00  0.00    +0.000 Cl
ATOM     36  C   UNL     1       5.720   4.032  13.781  0.00  0.00    +0.000 A 
ENDBRANCH  29  30
ENDBRANCH   1  29
TORSDOF 10
ENDMDL
MODEL 7
REMARK VINA RESULT:      -8.1      4.310      7.918
REMARK  Name = 
REMARK  12 active torsions:
REMARK  status: ('A' for Active; 'I' for Inactive)
REMARK    1  A    between atoms: C_1  and  O_2
REMARK    2  A    between atoms: O_2  and  C_3
REMARK    3  A    between atoms: C_6  and  N_7
REMARK    4  A    between atoms: N_7  and  C_8
REMARK    5  A    between atoms: C_8  and  C_9
REMARK    6  A    between atoms: C_9  and  N_10
REMARK    7  A    between atoms: C_11  and  C_13
REMARK    8  A    between atoms: C_13  and  C_14
REMARK    9  A    between atoms: C_13  and  N_22
REMARK   10  A    between atoms: C_14  and  C_15
REMARK   11  A    between atoms: C_23  and  C_25
REMARK   12  A    between atoms: C_29  and  C_30
REMARK                            x       y       z     vdW  Elec       q    Type
REMARK                         _______ _______ _______ _____ _____    ______ ____
ROOT
ATOM      1  C   UNL     1       3.147   6.510  18.576  0.00  0.00    +0.000 C 
ENDROOT
BRANCH   1   3
ATOM      2  N   UNL     1       5.559   6.001  18.595  0.00  0.00    +0.000 N 
ATOM      3  C   UNL     1       4.551   6.696  17.949  0.00  0.00    +0.000 C 
ATOM      4  O   UNL     1       4.761   7.429  16.988  0.00  0.00    +0.000 OA
ATOM      5  H   UNL     1       5.303   5.306  19.282  0.00  0.00    +0.000 HD
BRANCH   2   6
ATOM      6  C   UNL     1       6.953   6.091  18.198  0.00  0.00    +0.000 C 
BRANCH   6   7
ATOM      7  C   UNL     1       7.275   5.109  17.057  0.00  0.00    +0.000 C 
BRANCH   7   8
ATOM      8  N   UNL     1       7.185   5.751  15.746  0.00  0.00    +0.000 N 
ATOM      9  H   UNL     1       6.660   6.623  15.772  0.00  0.00    +0.000 HD
BRANCH   8  13
ATOM     10  C   UNL     1       5.813   3.494  12.430  0.00  0.00    +0.000 A 
ATOM     11  C   UNL     1       5.048   3.618  13.587  0.00  0.00    +0.000 A 
ATOM     12  C   UNL     1       5.519   4.362  14.675  0.00  0.00    +0.000 A 
ATOM     13  C   UNL     1       6.788   4.956  14.657  0.00  0.00    +0.000 A 
ATOM     14  C   UNL     1       7.543   4.824  13.486  0.00  0.00    +0.000 A 
ATOM     15  C   UNL     1       7.069   4.095  12.386  0.00  0.00    +0.000 A 
BRANCH  10  17
ATOM     16  C   UNL     1       3.872   2.996  11.181  0.00  0.00    +0.000 C 
ATOM     17  O   UNL     1       5.254   2.755  11.425  0.00  0.00    +0.000 OA
ENDBRANCH  10  17
ENDBRANCH   8  13
ENDBRANCH   7   8
ENDBRANCH   6   7
ENDBRANCH   2   6
ENDBRANCH   1   3
BRANCH   1  18
ATOM     18  N   UNL     1       2.522   7.818  18.782  0.00  0.00    +0.000 N 
ATOM     19  C   UNL     1       1.723   8.080  19.872  0.00  0.00    +0.000 C 
ATOM     20  O   UNL     1       1.528   7.271  20.770  0.00  0.00    +0.000 OA
ATOM     21  H   UNL     1       2.812   8.567  18.161  0.00  0.00    +0.000 HD
BRANCH  19  22
ATOM     22  C   UNL     1       1.080   9.419  19.913  0.00  0.00    +0.000 A 
ATOM     23  C   UNL     1       1.226  10.284  18.822  0.00  0.00    +0.000 A 
ATOM     24  C   UNL     1       0.680  11.567  18.872  0.00  0.00    +0.000 A 
ATOM     25  C   UNL     1       0.007  12.000  20.017  0.00  0.00    +0.000 A 
ATOM     26  C   UNL     1      -0.131  11.150  21.121  0.00  0.00    +0.000 A 
ATOM     27  C   UNL     1      -0.803  11.613  22.380  0.00  0.00    +0.000 C 
ATOM     28  C   UNL     1       0.402   9.855  21.060  0.00  0.00    +0.000 A 
ENDBRANCH  19  22
ENDBRANCH   1  18
BRANCH   1  29
ATOM     29  C   UNL     1       2.234   5.549  17.779  0.00  0.00    +0.000 C 
BRANCH  29  30
ATOM     30  C   UNL     1       2.073   4.182  18.408  0.00  0.00    +0.000 A 
ATOM     31  C   UNL     1       1.059   3.925  19.343  0.00  0.00    +0.000 A 
ATOM     32  C   UNL     1       1.008   2.701  20.013  0.00  0.00    +0.000 A 
ATOM     33  C   UNL     1       1.951   1.712  19.737  0.00  0.00    +0.000 A 
ATOM     34  C   UNL     1       2.921   1.938  18.763  0.00  0.00    +0.000 A 
ATOM     35 CL   UNL     1       4.066   0.709  18.393  0.00  0.00    +0.000 Cl
ATOM     36  C   UNL     1       2.983   3.161  18.099  0.00  0.00    +0.000 A 
ENDBRANCH  29  30
ENDBRANCH   1  29
TORSDOF 10
ENDMDL
MODEL 8
REMARK VINA RESULT:      -8.1      1.647      2.576
REMARK  Name = 
REMARK  12 active torsions:
REMARK  status: ('A' for Active; 'I' for Inactive)
REMARK    1  A    between atoms: C_1  and  O_2
REMARK    2  A    between atoms: O_2  and  C_3
REMARK    3  A    between atoms: C_6  and  N_7
REMARK    4  A    between atoms: N_7  and  C_8
REMARK    5  A    between atoms: C_8  and  C_9
REMARK    6  A    between atoms: C_9  and  N_10
REMARK    7  A    between atoms: C_11  and  C_13
REMARK    8  A    between atoms: C_13  and  C_14
REMARK    9  A    between atoms: C_13  and  N_22
REMARK   10  A    between atoms: C_14  and  C_15
REMARK   11  A    between atoms: C_23  and  C_25
REMARK   12  A    between atoms: C_29  and  C_30
REMARK                            x       y       z     vdW  Elec       q    Type
REMARK                         _______ _______ _______ _____ _____    ______ ____
ROOT
ATOM      1  C   UNL     1       6.994   5.750  18.316  0.00  0.00    +0.000 C 
ENDROOT
BRANCH   1   3
ATOM      2  N   UNL     1       8.119   7.943  18.387  0.00  0.00    +0.000 N 
ATOM      3  C   UNL     1       7.226   7.147  17.689  0.00  0.00    +0.000 C 
ATOM      4  O   UNL     1       6.638   7.534  16.684  0.00  0.00    +0.000 OA
ATOM      5  H   UNL     1       8.676   7.519  19.115  0.00  0.00    +0.000 HD
BRANCH   2   6
ATOM      6  C   UNL     1       8.426   9.308  17.995  0.00  0.00    +0.000 C 
BRANCH   6   7
ATOM      7  C   UNL     1       9.437   9.953  18.960  0.00  0.00    +0.000 C 
BRANCH   7   8
ATOM      8  N   UNL     1       9.065  11.326  19.299  0.00  0.00    +0.000 N 
ATOM      9  H   UNL     1       8.057  11.456  19.355  0.00  0.00    +0.000 HD
BRANCH   8  13
ATOM     10  C   UNL     1      10.956  14.545  17.290  0.00  0.00    +0.000 A 
ATOM     11  C   UNL     1       9.899  14.762  18.171  0.00  0.00    +0.000 A 
ATOM     12  C   UNL     1       9.282  13.687  18.821  0.00  0.00    +0.000 A 
ATOM     13  C   UNL     1       9.668  12.363  18.568  0.00  0.00    +0.000 A 
ATOM     14  C   UNL     1      10.732  12.162  17.681  0.00  0.00    +0.000 A 
ATOM     15  C   UNL     1      11.366  13.238  17.040  0.00  0.00    +0.000 A 
BRANCH  10  17
ATOM     16  C   UNL     1      10.831  16.888  17.025  0.00  0.00    +0.000 C 
ATOM     17  O   UNL     1      11.492  15.664  16.718  0.00  0.00    +0.000 OA
ENDBRANCH  10  17
ENDBRANCH   8  13
ENDBRANCH   7   8
ENDBRANCH   6   7
ENDBRANCH   2   6
ENDBRANCH   1   3
BRANCH   1  18
ATOM     18  N   UNL     1       5.580   5.592  18.659  0.00  0.00    +0.000 N 
ATOM     19  C   UNL     1       5.106   4.471  19.301  0.00  0.00    +0.000 C 
ATOM     20  O   UNL     1       5.831   3.562  19.685  0.00  0.00    +0.000 OA
ATOM     21  H   UNL     1       4.984   6.403  18.527  0.00  0.00    +0.000 HD
BRANCH  19  22
ATOM     22  C   UNL     1       3.637   4.399  19.510  0.00  0.00    +0.000 A 
ATOM     23  C   UNL     1       3.013   5.347  20.331  0.00  0.00    +0.000 A 
ATOM     24  C   UNL     1       1.644   5.256  20.585  0.00  0.00    +0.000 A 
ATOM     25  C   UNL     1       0.898   4.207  20.042  0.00  0.00    +0.000 A 
ATOM     26  C   UNL     1       1.513   3.244  19.234  0.00  0.00    +0.000 A 
ATOM     27  C   UNL     1       0.740   2.081  18.685  0.00  0.00    +0.000 C 
ATOM     28  C   UNL     1       2.885   3.350  18.965  0.00  0.00    +0.000 A 
ENDBRANCH  19  22
ENDBRANCH   1  18
BRANCH   1  29
ATOM     29  C   UNL     1       7.514   4.585  17.442  0.00  0.00    +0.000 C 
BRANCH  29  30
ATOM     30  C   UNL     1       6.861   4.491  16.080  0.00  0.00    +0.000 A 
ATOM     31  C   UNL     1       5.605   3.887  15.914  0.00  0.00    +0.000 A 
ATOM     32  C   UNL     1       5.078   3.688  14.636  0.00  0.00    +0.000 A 
ATOM     33  C   UNL     1       5.788   4.112  13.513  0.00  0.00    +0.000 A 
ATOM     34  C   UNL     1       7.005   4.770  13.675  0.00  0.00    +0.000 A 
ATOM     35 CL   UNL     1       7.868   5.327  12.296  0.00  0.00    +0.000 Cl
ATOM     36  C   UNL     1       7.539   4.963  14.947  0.00  0.00    +0.000 A 
ENDBRANCH  29  30
ENDBRANCH   1  29
TORSDOF 10
ENDMDL
MODEL 9
REMARK VINA RESULT:      -8.0      6.827     11.037
REMARK  Name = 
REMARK  12 active torsions:
REMARK  status: ('A' for Active; 'I' for Inactive)
REMARK    1  A    between atoms: C_1  and  O_2
REMARK    2  A    between atoms: O_2  and  C_3
REMARK    3  A    between atoms: C_6  and  N_7
REMARK    4  A    between atoms: N_7  and  C_8
REMARK    5  A    between atoms: C_8  and  C_9
REMARK    6  A    between atoms: C_9  and  N_10
REMARK    7  A    between atoms: C_11  and  C_13
REMARK    8  A    between atoms: C_13  and  C_14
REMARK    9  A    between atoms: C_13  and  N_22
REMARK   10  A    between atoms: C_14  and  C_15
REMARK   11  A    between atoms: C_23  and  C_25
REMARK   12  A    between atoms: C_29  and  C_30
REMARK                            x       y       z     vdW  Elec       q    Type
REMARK                         _______ _______ _______ _____ _____    ______ ____
ROOT
ATOM      1  C   UNL     1      -0.139  10.273  21.278  0.00  0.00    +0.000 C 
ENDROOT
BRANCH   1   3
ATOM      2  N   UNL     1       1.478   8.500  20.710  0.00  0.00    +0.000 N 
ATOM      3  C   UNL     1       0.251   8.774  21.290  0.00  0.00    +0.000 C 
ATOM      4  O   UNL     1      -0.483   7.897  21.735  0.00  0.00    +0.000 OA
ATOM      5  H   UNL     1       2.094   9.271  20.496  0.00  0.00    +0.000 HD
BRANCH   2   6
ATOM      6  C   UNL     1       1.996   7.150  20.570  0.00  0.00    +0.000 C 
BRANCH   6   7
ATOM      7  C   UNL     1       2.456   6.874  19.127  0.00  0.00    +0.000 C 
BRANCH   7   8
ATOM      8  N   UNL     1       3.242   5.645  19.033  0.00  0.00    +0.000 N 
ATOM      9  H   UNL     1       3.783   5.461  19.876  0.00  0.00    +0.000 HD
BRANCH   8  13
ATOM     10  C   UNL     1       5.761   5.217  15.650  0.00  0.00    +0.000 A 
ATOM     11  C   UNL     1       5.228   6.455  16.003  0.00  0.00    +0.000 A 
ATOM     12  C   UNL     1       4.392   6.577  17.120  0.00  0.00    +0.000 A 
ATOM     13  C   UNL     1       4.025   5.459  17.881  0.00  0.00    +0.000 A 
ATOM     14  C   UNL     1       4.571   4.223  17.515  0.00  0.00    +0.000 A 
ATOM     15  C   UNL     1       5.423   4.098  16.407  0.00  0.00    +0.000 A 
BRANCH  10  17
ATOM     16  C   UNL     1       6.347   4.151  13.626  0.00  0.00    +0.000 C 
ATOM     17  O   UNL     1       6.571   5.213  14.550  0.00  0.00    +0.000 OA
ENDBRANCH  10  17
ENDBRANCH   8  13
ENDBRANCH   7   8
ENDBRANCH   6   7
ENDBRANCH   2   6
ENDBRANCH   1   3
BRANCH   1  18
ATOM     18  N   UNL     1      -1.193  10.501  20.288  0.00  0.00    +0.000 N 
ATOM     19  C   UNL     1      -0.946  10.449  18.935  0.00  0.00    +0.000 C 
ATOM     20  O   UNL     1       0.144  10.151  18.464  0.00  0.00    +0.000 OA
ATOM     21  H   UNL     1      -2.144  10.564  20.638  0.00  0.00    +0.000 HD
BRANCH  19  22
ATOM     22  C   UNL     1      -2.084  10.787  18.041  0.00  0.00    +0.000 A 
ATOM     23  C   UNL     1      -3.179  11.488  18.561  0.00  0.00    +0.000 A 
ATOM     24  C   UNL     1      -4.282  11.759  17.750  0.00  0.00    +0.000 A 
ATOM     25  C   UNL     1      -4.306  11.313  16.426  0.00  0.00    +0.000 A 
ATOM     26  C   UNL     1      -3.225  10.596  15.900  0.00  0.00    +0.000 A 
ATOM     27  C   UNL     1      -3.254  10.062  14.499  0.00  0.00    +0.000 C 
ATOM     28  C   UNL     1      -2.110  10.343  16.713  0.00  0.00    +0.000 A 
ENDBRANCH  19  22
ENDBRANCH   1  18
BRANCH   1  29
ATOM     29  C   UNL     1      -0.520  10.826  22.671  0.00  0.00    +0.000 C 
BRANCH  29  30
ATOM     30  C   UNL     1      -1.380  12.071  22.630  0.00  0.00    +0.000 A 
ATOM     31  C   UNL     1      -0.879  13.286  22.137  0.00  0.00    +0.000 A 
ATOM     32  C   UNL     1      -1.638  14.455  22.231  0.00  0.00    +0.000 A 
ATOM     33  C   UNL     1      -2.913  14.418  22.795  0.00  0.00    +0.000 A 
ATOM     34  C   UNL     1      -3.439  13.203  23.227  0.00  0.00    +0.000 A 
ATOM     35 CL   UNL     1      -5.025  13.145  23.891  0.00  0.00    +0.000 Cl
ATOM     36  C   UNL     1      -2.684  12.036  23.144  0.00  0.00    +0.000 A 
ENDBRANCH  29  30
ENDBRANCH   1  29
TORSDOF 10
ENDMDL
