MODEL 1
REMARK VINA RESULT:      -7.8      0.000      0.000
REMARK  Name = 
REMARK  5 active torsions:
REMARK  status: ('A' for Active; 'I' for Inactive)
REMARK    1  A    between atoms: C_2  and  C_3
REMARK    2  A    between atoms: N_8  and  C_9
REMARK    3  A    between atoms: N_8  and  C_19
REMARK    4  A    between atoms: C_9  and  C_10
REMARK    5  A    between atoms: C_14  and  N_15
REMARK                            x       y       z     vdW  Elec       q    Type
REMARK                         _______ _______ _______ _____ _____    ______ ____
ROOT
ATOM      1  O   UNL     1       3.318   2.331  17.608  0.00  0.00    +0.000 OA
ATOM      2  C   UNL     1       3.456   3.240  18.426  0.00  0.00    +0.000 C 
ATOM      3  N   UNL     1       4.319   4.357  18.196  0.00  0.00    +0.000 N 
ENDROOT
BRANCH   3   4
ATOM      4  C   UNL     1       5.143   4.488  16.999  0.00  0.00    +0.000 A 
ATOM      5  C   UNL     1       4.631   4.401  15.696  0.00  0.00    +0.000 A 
ATOM      6  C   UNL     1       5.448   4.559  14.564  0.00  0.00    +0.000 A 
ATOM      7  C   UNL     1       6.803   4.813  14.711  0.00  0.00    +0.000 A 
ATOM      8 BR   UNL     1       7.900   5.047  13.192  0.00  0.00    +0.000 Br
ATOM      9  C   UNL     1       7.351   4.902  15.981  0.00  0.00    +0.000 A 
ATOM     10  C   UNL     1       6.529   4.734  17.105  0.00  0.00    +0.000 A 
ENDBRANCH   3   4
BRANCH   2  11
ATOM     11  C   UNL     1       2.706   3.120  19.684  0.00  0.00    +0.000 A 
ATOM     12  C   UNL     1       1.356   3.322  19.931  0.00  0.00    +0.000 A 
ATOM     13  C   UNL     1       1.114   2.987  21.282  0.00  0.00    +0.000 A 
ATOM     14  C   UNL     1       2.323   2.576  21.792  0.00  0.00    +0.000 A 
ATOM     15  O   UNL     1       3.279   2.650  20.836  0.00  0.00    +0.000 OA
ENDBRANCH   2  11
BRANCH   3  16
ATOM     16  C   UNL     1       4.345   5.495  19.132  0.00  0.00    +0.000 C 
BRANCH  16  17
ATOM     17  C   UNL     1       3.339   6.602  18.851  0.00  0.00    +0.000 A 
ATOM     18  C   UNL     1       3.319   7.322  17.642  0.00  0.00    +0.000 A 
ATOM     19  C   UNL     1       2.533   8.466  17.495  0.00  0.00    +0.000 A 
ATOM     20  C   UNL     1       1.729   8.900  18.545  0.00  0.00    +0.000 A 
ATOM     21  C   UNL     1       1.701   8.164  19.735  0.00  0.00    +0.000 A 
ATOM     22  C   UNL     1       2.490   7.014  19.889  0.00  0.00    +0.000 A 
BRANCH  21  23
ATOM     23  N   UNL     1       0.878   8.629  20.856  0.00  0.00    +0.000 N 
ATOM     24  O   UNL     1       1.227   8.307  22.001  0.00  0.00    +0.000 OA
ATOM     25  O   UNL     1      -0.124   9.309  20.591  0.00  0.00    +0.000 OA
ENDBRANCH  21  23
ENDBRANCH  16  17
ENDBRANCH   3  16
TORSDOF 5
ENDMDL
MODEL 2
REMARK VINA RESULT:      -7.8      0.092      1.142
REMARK  Name = 
REMARK  5 active torsions:
REMARK  status: ('A' for Active; 'I' for Inactive)
REMARK    1  A    between atoms: C_2  and  C_3
REMARK    2  A    between atoms: N_8  and  C_9
REMARK    3  A    between atoms: N_8  and  C_19
REMARK    4  A    between atoms: C_9  and  C_10
REMARK    5  A    between atoms: C_14  and  N_15
REMARK                            x       y       z     vdW  Elec       q    Type
REMARK                         _______ _______ _______ _____ _____    ______ ____
ROOT
ATOM      1  O   UNL     1       3.364   2.377  17.582  0.00  0.00    +0.000 OA
ATOM      2  C   UNL     1       3.476   3.273  18.420  0.00  0.00    +0.000 C 
ATOM      3  N   UNL     1       4.327   4.405  18.227  0.00  0.00    +0.000 N 
ENDROOT
BRANCH   3   4
ATOM      4  C   UNL     1       5.169   4.570  17.046  0.00  0.00    +0.000 A 
ATOM      5  C   UNL     1       6.551   4.800  17.110  0.00  0.00    +0.000 A 
ATOM      6  C   UNL     1       7.338   4.927  15.952  0.00  0.00    +0.000 A 
ATOM      7  C   UNL     1       6.756   4.822  14.698  0.00  0.00    +0.000 A 
ATOM      8 BR   UNL     1       7.814   4.971  13.141  0.00  0.00    +0.000 Br
ATOM      9  C   UNL     1       5.392   4.600  14.590  0.00  0.00    +0.000 A 
ATOM     10  C   UNL     1       4.614   4.484  15.750  0.00  0.00    +0.000 A 
ENDBRANCH   3   4
BRANCH   2  11
ATOM     11  C   UNL     1       2.707   3.118  19.663  0.00  0.00    +0.000 A 
ATOM     12  C   UNL     1       1.347   3.282  19.887  0.00  0.00    +0.000 A 
ATOM     13  C   UNL     1       1.090   2.925  21.229  0.00  0.00    +0.000 A 
ATOM     14  C   UNL     1       2.299   2.538  21.756  0.00  0.00    +0.000 A 
ATOM     15  O   UNL     1       3.270   2.648  20.819  0.00  0.00    +0.000 OA
ENDBRANCH   2  11
BRANCH   3  16
ATOM     16  C   UNL     1       4.322   5.525  19.185  0.00  0.00    +0.000 C 
BRANCH  16  17
ATOM     17  C   UNL     1       3.302   6.621  18.911  0.00  0.00    +0.000 A 
ATOM     18  C   UNL     1       3.257   7.331  17.697  0.00  0.00    +0.000 A 
ATOM     19  C   UNL     1       2.459   8.467  17.553  0.00  0.00    +0.000 A 
ATOM     20  C   UNL     1       1.667   8.903  18.612  0.00  0.00    +0.000 A 
ATOM     21  C   UNL     1       1.664   8.176  19.808  0.00  0.00    +0.000 A 
ATOM     22  C   UNL     1       2.466   7.034  19.959  0.00  0.00    +0.000 A 
BRANCH  21  23
ATOM     23  N   UNL     1       0.854   8.643  20.938  0.00  0.00    +0.000 N 
ATOM     24  O   UNL     1      -0.237   9.175  20.686  0.00  0.00    +0.000 OA
ATOM     25  O   UNL     1       1.314   8.487  22.078  0.00  0.00    +0.000 OA
ENDBRANCH  21  23
ENDBRANCH  16  17
ENDBRANCH   3  16
TORSDOF 5
ENDMDL
MODEL 3
REMARK VINA RESULT:      -7.4      3.427      6.518
REMARK  Name = 
REMARK  5 active torsions:
REMARK  status: ('A' for Active; 'I' for Inactive)
REMARK    1  A    between atoms: C_2  and  C_3
REMARK    2  A    between atoms: N_8  and  C_9
REMARK    3  A    between atoms: N_8  and  C_19
REMARK    4  A    between atoms: C_9  and  C_10
REMARK    5  A    between atoms: C_14  and  N_15
REMARK                            x       y       z     vdW  Elec       q    Type
REMARK                         _______ _______ _______ _____ _____    ______ ____
ROOT
ATOM      1  O   UNL     1       5.586   7.734  17.775  0.00  0.00    +0.000 OA
ATOM      2  C   UNL     1       5.068   6.695  17.364  0.00  0.00    +0.000 C 
ATOM      3  N   UNL     1       3.699   6.367  17.611  0.00  0.00    +0.000 N 
ENDROOT
BRANCH   3   4
ATOM      4  C   UNL     1       2.815   7.209  18.410  0.00  0.00    +0.000 A 
ATOM      5  C   UNL     1       2.507   6.948  19.753  0.00  0.00    +0.000 A 
ATOM      6  C   UNL     1       1.673   7.795  20.503  0.00  0.00    +0.000 A 
ATOM      7  C   UNL     1       1.130   8.931  19.923  0.00  0.00    +0.000 A 
ATOM      8 BR   UNL     1       0.026  10.082  20.934  0.00  0.00    +0.000 Br
ATOM      9  C   UNL     1       1.405   9.223  18.597  0.00  0.00    +0.000 A 
ATOM     10  C   UNL     1       2.230   8.367  17.853  0.00  0.00    +0.000 A 
ENDBRANCH   3   4
BRANCH   2  11
ATOM     11  C   UNL     1       5.936   5.774  16.616  0.00  0.00    +0.000 A 
ATOM     12  C   UNL     1       6.650   4.671  17.064  0.00  0.00    +0.000 A 
ATOM     13  C   UNL     1       7.252   4.066  15.939  0.00  0.00    +0.000 A 
ATOM     14  C   UNL     1       6.860   4.813  14.854  0.00  0.00    +0.000 A 
ATOM     15  O   UNL     1       6.068   5.836  15.254  0.00  0.00    +0.000 OA
ENDBRANCH   2  11
BRANCH   3  16
ATOM     16  C   UNL     1       3.080   5.188  16.978  0.00  0.00    +0.000 C 
BRANCH  16  17
ATOM     17  C   UNL     1       2.555   4.127  17.935  0.00  0.00    +0.000 A 
ATOM     18  C   UNL     1       1.188   3.812  18.044  0.00  0.00    +0.000 A 
ATOM     19  C   UNL     1       0.714   2.995  19.071  0.00  0.00    +0.000 A 
ATOM     20  C   UNL     1       1.601   2.453  19.998  0.00  0.00    +0.000 A 
ATOM     21  C   UNL     1       2.969   2.717  19.869  0.00  0.00    +0.000 A 
ATOM     22  C   UNL     1       3.451   3.539  18.839  0.00  0.00    +0.000 A 
BRANCH  21  23
ATOM     23  N   UNL     1       3.908   2.173  20.857  0.00  0.00    +0.000 N 
ATOM     24  O   UNL     1       5.061   1.920  20.478  0.00  0.00    +0.000 OA
ATOM     25  O   UNL     1       3.489   1.990  22.009  0.00  0.00    +0.000 OA
ENDBRANCH  21  23
ENDBRANCH  16  17
ENDBRANCH   3  16
TORSDOF 5
ENDMDL
MODEL 4
REMARK VINA RESULT:      -7.4      3.379      6.631
REMARK  Name = 
REMARK  5 active torsions:
REMARK  status: ('A' for Active; 'I' for Inactive)
REMARK    1  A    between atoms: C_2  and  C_3
REMARK    2  A    between atoms: N_8  and  C_9
REMARK    3  A    between atoms: N_8  and  C_19
REMARK    4  A    between atoms: C_9  and  C_10
REMARK    5  A    between atoms: C_14  and  N_15
REMARK                            x       y       z     vdW  Elec       q    Type
REMARK                         _______ _______ _______ _____ _____    ______ ____
ROOT
ATOM      1  O   UNL     1       5.054   7.694  17.602  0.00  0.00    +0.000 OA
ATOM      2  C   UNL     1       4.485   6.605  17.514  0.00  0.00    +0.000 C 
ATOM      3  N   UNL     1       3.148   6.397  17.975  0.00  0.00    +0.000 N 
ENDROOT
BRANCH   3   4
ATOM      4  C   UNL     1       2.365   7.439  18.630  0.00  0.00    +0.000 A 
ATOM      5  C   UNL     1       2.117   7.466  20.010  0.00  0.00    +0.000 A 
ATOM      6  C   UNL     1       1.382   8.500  20.614  0.00  0.00    +0.000 A 
ATOM      7  C   UNL     1       0.879   9.539  19.845  0.00  0.00    +0.000 A 
ATOM      8 BR   UNL     1      -0.092  10.942  20.656  0.00  0.00    +0.000 Br
ATOM      9  C   UNL     1       1.097   9.549  18.477  0.00  0.00    +0.000 A 
ATOM     10  C   UNL     1       1.824   8.508  17.882  0.00  0.00    +0.000 A 
ENDBRANCH   3   4
BRANCH   2  11
ATOM     11  C   UNL     1       5.257   5.499  16.930  0.00  0.00    +0.000 A 
ATOM     12  C   UNL     1       4.932   4.653  15.879  0.00  0.00    +0.000 A 
ATOM     13  C   UNL     1       6.048   3.819  15.642  0.00  0.00    +0.000 A 
ATOM     14  C   UNL     1       7.009   4.210  16.543  0.00  0.00    +0.000 A 
ATOM     15  O   UNL     1       6.541   5.219  17.315  0.00  0.00    +0.000 OA
ENDBRANCH   2  11
BRANCH   3  16
ATOM     16  C   UNL     1       2.452   5.123  17.719  0.00  0.00    +0.000 C 
BRANCH  16  17
ATOM     17  C   UNL     1       2.393   4.157  18.894  0.00  0.00    +0.000 A 
ATOM     18  C   UNL     1       1.383   4.210  19.871  0.00  0.00    +0.000 A 
ATOM     19  C   UNL     1       1.471   3.458  21.044  0.00  0.00    +0.000 A 
ATOM     20  C   UNL     1       2.559   2.616  21.253  0.00  0.00    +0.000 A 
ATOM     21  C   UNL     1       3.545   2.515  20.265  0.00  0.00    +0.000 A 
ATOM     22  C   UNL     1       3.463   3.270  19.085  0.00  0.00    +0.000 A 
BRANCH  21  23
ATOM     23  N   UNL     1       4.709   1.650  20.488  0.00  0.00    +0.000 N 
ATOM     24  O   UNL     1       5.064   0.909  19.560  0.00  0.00    +0.000 OA
ATOM     25  O   UNL     1       5.263   1.706  21.596  0.00  0.00    +0.000 OA
ENDBRANCH  21  23
ENDBRANCH  16  17
ENDBRANCH   3  16
TORSDOF 5
ENDMDL
MODEL 5
REMARK VINA RESULT:      -7.3      3.337      5.849
REMARK  Name = 
REMARK  5 active torsions:
REMARK  status: ('A' for Active; 'I' for Inactive)
REMARK    1  A    between atoms: C_2  and  C_3
REMARK    2  A    between atoms: N_8  and  C_9
REMARK    3  A    between atoms: N_8  and  C_19
REMARK    4  A    between atoms: C_9  and  C_10
REMARK    5  A    between atoms: C_14  and  N_15
REMARK                            x       y       z     vdW  Elec       q    Type
REMARK                         _______ _______ _______ _____ _____    ______ ____
ROOT
ATOM      1  O   UNL     1       2.481   5.166  21.017  0.00  0.00    +0.000 OA
ATOM      2  C   UNL     1       2.701   4.910  19.832  0.00  0.00    +0.000 C 
ATOM      3  N   UNL     1       2.575   5.888  18.797  0.00  0.00    +0.000 N 
ENDROOT
BRANCH   3   4
ATOM      4  C   UNL     1       2.128   7.254  19.050  0.00  0.00    +0.000 A 
ATOM      5  C   UNL     1       2.099   8.252  18.065  0.00  0.00    +0.000 A 
ATOM      6  C   UNL     1       1.637   9.551  18.335  0.00  0.00    +0.000 A 
ATOM      7  C   UNL     1       1.186   9.881  19.603  0.00  0.00    +0.000 A 
ATOM      8 BR   UNL     1       0.544  11.620  19.964  0.00  0.00    +0.000 Br
ATOM      9  C   UNL     1       1.201   8.927  20.608  0.00  0.00    +0.000 A 
ATOM     10  C   UNL     1       1.673   7.635  20.332  0.00  0.00    +0.000 A 
ENDBRANCH   3   4
BRANCH   2  11
ATOM     11  C   UNL     1       3.081   3.527  19.512  0.00  0.00    +0.000 A 
ATOM     12  C   UNL     1       2.405   2.574  18.762  0.00  0.00    +0.000 A 
ATOM     13  C   UNL     1       3.234   1.434  18.674  0.00  0.00    +0.000 A 
ATOM     14  C   UNL     1       4.386   1.750  19.354  0.00  0.00    +0.000 A 
ATOM     15  O   UNL     1       4.300   3.005  19.855  0.00  0.00    +0.000 OA
ENDBRANCH   2  11
BRANCH   3  16
ATOM     16  C   UNL     1       2.988   5.582  17.416  0.00  0.00    +0.000 C 
BRANCH  16  17
ATOM     17  C   UNL     1       4.476   5.337  17.212  0.00  0.00    +0.000 A 
ATOM     18  C   UNL     1       4.975   4.466  16.227  0.00  0.00    +0.000 A 
ATOM     19  C   UNL     1       6.321   4.097  16.202  0.00  0.00    +0.000 A 
ATOM     20  C   UNL     1       7.204   4.613  17.147  0.00  0.00    +0.000 A 
ATOM     21  C   UNL     1       6.730   5.521  18.101  0.00  0.00    +0.000 A 
ATOM     22  C   UNL     1       5.378   5.894  18.131  0.00  0.00    +0.000 A 
BRANCH  21  23
ATOM     23  N   UNL     1       7.647   6.050  19.117  0.00  0.00    +0.000 N 
ATOM     24  O   UNL     1       8.329   7.041  18.819  0.00  0.00    +0.000 OA
ATOM     25  O   UNL     1       7.691   5.467  20.210  0.00  0.00    +0.000 OA
ENDBRANCH  21  23
ENDBRANCH  16  17
ENDBRANCH   3  16
TORSDOF 5
ENDMDL
MODEL 6
REMARK VINA RESULT:      -7.3      3.356      5.910
REMARK  Name = 
REMARK  5 active torsions:
REMARK  status: ('A' for Active; 'I' for Inactive)
REMARK    1  A    between atoms: C_2  and  C_3
REMARK    2  A    between atoms: N_8  and  C_9
REMARK    3  A    between atoms: N_8  and  C_19
REMARK    4  A    between atoms: C_9  and  C_10
REMARK    5  A    between atoms: C_14  and  N_15
REMARK                            x       y       z     vdW  Elec       q    Type
REMARK                         _______ _______ _______ _____ _____    ______ ____
ROOT
ATOM      1  O   UNL     1       2.501   4.890  21.189  0.00  0.00    +0.000 OA
ATOM      2  C   UNL     1       2.688   4.729  19.983  0.00  0.00    +0.000 C 
ATOM      3  N   UNL     1       2.501   5.777  19.029  0.00  0.00    +0.000 N 
ENDROOT
BRANCH   3   4
ATOM      4  C   UNL     1       2.024   7.107  19.397  0.00  0.00    +0.000 A 
ATOM      5  C   UNL     1       1.570   7.436  20.682  0.00  0.00    +0.000 A 
ATOM      6  C   UNL     1       1.144   8.734  21.010  0.00  0.00    +0.000 A 
ATOM      7  C   UNL     1       1.167   9.738  20.055  0.00  0.00    +0.000 A 
ATOM      8 BR   UNL     1       0.614  11.489  20.499  0.00  0.00    +0.000 Br
ATOM      9  C   UNL     1       1.604   9.455  18.771  0.00  0.00    +0.000 A 
ATOM     10  C   UNL     1       2.019   8.155  18.450  0.00  0.00    +0.000 A 
ENDBRANCH   3   4
BRANCH   2  11
ATOM     11  C   UNL     1       3.097   3.386  19.549  0.00  0.00    +0.000 A 
ATOM     12  C   UNL     1       2.429   2.477  18.739  0.00  0.00    +0.000 A 
ATOM     13  C   UNL     1       3.284   1.369  18.546  0.00  0.00    +0.000 A 
ATOM     14  C   UNL     1       4.442   1.662  19.227  0.00  0.00    +0.000 A 
ATOM     15  O   UNL     1       4.335   2.871  19.826  0.00  0.00    +0.000 OA
ENDBRANCH   2  11
BRANCH   3  16
ATOM     16  C   UNL     1       2.877   5.588  17.617  0.00  0.00    +0.000 C 
BRANCH  16  17
ATOM     17  C   UNL     1       4.352   5.317  17.358  0.00  0.00    +0.000 A 
ATOM     18  C   UNL     1       4.799   4.423  16.368  0.00  0.00    +0.000 A 
ATOM     19  C   UNL     1       6.138   4.035  16.296  0.00  0.00    +0.000 A 
ATOM     20  C   UNL     1       7.065   4.553  17.196  0.00  0.00    +0.000 A 
ATOM     21  C   UNL     1       6.642   5.483  18.153  0.00  0.00    +0.000 A 
ATOM     22  C   UNL     1       5.297   5.876  18.231  0.00  0.00    +0.000 A 
BRANCH  21  23
ATOM     23  N   UNL     1       7.606   6.014  19.123  0.00  0.00    +0.000 N 
ATOM     24  O   UNL     1       7.684   5.452  20.225  0.00  0.00    +0.000 OA
ATOM     25  O   UNL     1       8.278   6.999  18.785  0.00  0.00    +0.000 OA
ENDBRANCH  21  23
ENDBRANCH  16  17
ENDBRANCH   3  16
TORSDOF 5
ENDMDL
MODEL 7
REMARK VINA RESULT:      -7.2      3.339      6.306
REMARK  Name = 
REMARK  5 active torsions:
REMARK  status: ('A' for Active; 'I' for Inactive)
REMARK    1  A    between atoms: C_2  and  C_3
REMARK    2  A    between atoms: N_8  and  C_9
REMARK    3  A    between atoms: N_8  and  C_19
REMARK    4  A    between atoms: C_9  and  C_10
REMARK    5  A    between atoms: C_14  and  N_15
REMARK                            x       y       z     vdW  Elec       q    Type
REMARK                         _______ _______ _______ _____ _____    ______ ____
ROOT
ATOM      1  O   UNL     1       2.369   5.008  21.132  0.00  0.00    +0.000 OA
ATOM      2  C   UNL     1       2.652   4.813  19.949  0.00  0.00    +0.000 C 
ATOM      3  N   UNL     1       2.551   5.836  18.956  0.00  0.00    +0.000 N 
ENDROOT
BRANCH   3   4
ATOM      4  C   UNL     1       2.057   7.178  19.248  0.00  0.00    +0.000 A 
ATOM      5  C   UNL     1       1.611   7.577  20.516  0.00  0.00    +0.000 A 
ATOM      6  C   UNL     1       1.168   8.886  20.770  0.00  0.00    +0.000 A 
ATOM      7  C   UNL     1       1.166   9.832  19.755  0.00  0.00    +0.000 A 
ATOM      8 BR   UNL     1       0.591  11.597  20.099  0.00  0.00    +0.000 Br
ATOM      9  C   UNL     1       1.594   9.478  18.486  0.00  0.00    +0.000 A 
ATOM     10  C   UNL     1       2.026   8.166  18.239  0.00  0.00    +0.000 A 
ENDBRANCH   3   4
BRANCH   2  11
ATOM     11  C   UNL     1       3.082   3.456  19.586  0.00  0.00    +0.000 A 
ATOM     12  C   UNL     1       2.457   2.516  18.778  0.00  0.00    +0.000 A 
ATOM     13  C   UNL     1       3.321   1.405  18.669  0.00  0.00    +0.000 A 
ATOM     14  C   UNL     1       4.443   1.725  19.396  0.00  0.00    +0.000 A 
ATOM     15  O   UNL     1       4.306   2.955  19.944  0.00  0.00    +0.000 OA
ENDBRANCH   2  11
BRANCH   3  16
ATOM     16  C   UNL     1       3.038   5.605  17.584  0.00  0.00    +0.000 C 
BRANCH  16  17
ATOM     17  C   UNL     1       4.551   5.569  17.420  0.00  0.00    +0.000 A 
ATOM     18  C   UNL     1       5.432   6.103  18.377  0.00  0.00    +0.000 A 
ATOM     19  C   UNL     1       6.793   6.248  18.104  0.00  0.00    +0.000 A 
ATOM     20  C   UNL     1       7.308   5.836  16.878  0.00  0.00    +0.000 A 
ATOM     21  C   UNL     1       6.450   5.255  15.938  0.00  0.00    +0.000 A 
ATOM     22  C   UNL     1       5.081   5.108  16.205  0.00  0.00    +0.000 A 
BRANCH  21  23
ATOM     23  N   UNL     1       6.978   4.842  14.633  0.00  0.00    +0.000 N 
ATOM     24  O   UNL     1       6.471   3.847  14.093  0.00  0.00    +0.000 OA
ATOM     25  O   UNL     1       7.906   5.508  14.151  0.00  0.00    +0.000 OA
ENDBRANCH  21  23
ENDBRANCH  16  17
ENDBRANCH   3  16
TORSDOF 5
ENDMDL
MODEL 8
REMARK VINA RESULT:      -7.1      3.352      6.261
REMARK  Name = 
REMARK  5 active torsions:
REMARK  status: ('A' for Active; 'I' for Inactive)
REMARK    1  A    between atoms: C_2  and  C_3
REMARK    2  A    between atoms: N_8  and  C_9
REMARK    3  A    between atoms: N_8  and  C_19
REMARK    4  A    between atoms: C_9  and  C_10
REMARK    5  A    between atoms: C_14  and  N_15
REMARK                            x       y       z     vdW  Elec       q    Type
REMARK                         _______ _______ _______ _____ _____    ______ ____
ROOT
ATOM      1  O   UNL     1       2.236   5.441  21.032  0.00  0.00    +0.000 OA
ATOM      2  C   UNL     1       2.532   5.133  19.877  0.00  0.00    +0.000 C 
ATOM      3  N   UNL     1       2.513   6.074  18.801  0.00  0.00    +0.000 N 
ENDROOT
BRANCH   3   4
ATOM      4  C   UNL     1       2.094   7.462  18.970  0.00  0.00    +0.000 A 
ATOM      5  C   UNL     1       2.117   8.407  17.935  0.00  0.00    +0.000 A 
ATOM      6  C   UNL     1       1.680   9.729  18.124  0.00  0.00    +0.000 A 
ATOM      7  C   UNL     1       1.204  10.135  19.362  0.00  0.00    +0.000 A 
ATOM      8 BR   UNL     1       0.597  11.906  19.615  0.00  0.00    +0.000 Br
ATOM      9  C   UNL     1       1.169   9.235  20.414  0.00  0.00    +0.000 A 
ATOM     10  C   UNL     1       1.616   7.920  20.218  0.00  0.00    +0.000 A 
ENDBRANCH   3   4
BRANCH   2  11
ATOM     11  C   UNL     1       2.889   3.728  19.637  0.00  0.00    +0.000 A 
ATOM     12  C   UNL     1       2.127   2.702  19.096  0.00  0.00    +0.000 A 
ATOM     13  C   UNL     1       2.957   1.564  18.990  0.00  0.00    +0.000 A 
ATOM     14  C   UNL     1       4.193   1.953  19.449  0.00  0.00    +0.000 A 
ATOM     15  O   UNL     1       4.158   3.251  19.834  0.00  0.00    +0.000 OA
ENDBRANCH   2  11
BRANCH   3  16
ATOM     16  C   UNL     1       3.016   5.703  17.466  0.00  0.00    +0.000 C 
BRANCH  16  17
ATOM     17  C   UNL     1       4.530   5.659  17.321  0.00  0.00    +0.000 A 
ATOM     18  C   UNL     1       5.402   6.205  18.280  0.00  0.00    +0.000 A 
ATOM     19  C   UNL     1       6.767   6.341  18.023  0.00  0.00    +0.000 A 
ATOM     20  C   UNL     1       7.295   5.908  16.810  0.00  0.00    +0.000 A 
ATOM     21  C   UNL     1       6.447   5.315  15.868  0.00  0.00    +0.000 A 
ATOM     22  C   UNL     1       5.074   5.177  16.121  0.00  0.00    +0.000 A 
BRANCH  21  23
ATOM     23  N   UNL     1       6.989   4.880  14.576  0.00  0.00    +0.000 N 
ATOM     24  O   UNL     1       6.477   3.887  14.040  0.00  0.00    +0.000 OA
ATOM     25  O   UNL     1       7.935   5.526  14.103  0.00  0.00    +0.000 OA
ENDBRANCH  21  23
ENDBRANCH  16  17
ENDBRANCH   3  16
TORSDOF 5
ENDMDL
MODEL 9
REMARK VINA RESULT:      -7.1      3.458      6.449
REMARK  Name = 
REMARK  5 active torsions:
REMARK  status: ('A' for Active; 'I' for Inactive)
REMARK    1  A    between atoms: C_2  and  C_3
REMARK    2  A    between atoms: N_8  and  C_9
REMARK    3  A    between atoms: N_8  and  C_19
REMARK    4  A    between atoms: C_9  and  C_10
REMARK    5  A    between atoms: C_14  and  N_15
REMARK                            x       y       z     vdW  Elec       q    Type
REMARK                         _______ _______ _______ _____ _____    ______ ____
ROOT
ATOM      1  O   UNL     1       5.126   7.942  17.717  0.00  0.00    +0.000 OA
ATOM      2  C   UNL     1       4.535   6.899  17.433  0.00  0.00    +0.000 C 
ATOM      3  N   UNL     1       3.174   6.662  17.801  0.00  0.00    +0.000 N 
ENDROOT
BRANCH   3   4
ATOM      4  C   UNL     1       2.389   7.610  18.584  0.00  0.00    +0.000 A 
ATOM      5  C   UNL     1       2.145   7.463  19.957  0.00  0.00    +0.000 A 
ATOM      6  C   UNL     1       1.406   8.410  20.687  0.00  0.00    +0.000 A 
ATOM      7  C   UNL     1       0.897   9.534  20.056  0.00  0.00    +0.000 A 
ATOM      8 BR   UNL     1      -0.078  10.820  21.038  0.00  0.00    +0.000 Br
ATOM      9  C   UNL     1       1.110   9.717  18.699  0.00  0.00    +0.000 A 
ATOM     10  C   UNL     1       1.840   8.762  17.976  0.00  0.00    +0.000 A 
ENDBRANCH   3   4
BRANCH   2  11
ATOM     11  C   UNL     1       5.305   5.877  16.710  0.00  0.00    +0.000 A 
ATOM     12  C   UNL     1       5.373   5.621  15.348  0.00  0.00    +0.000 A 
ATOM     13  C   UNL     1       6.326   4.596  15.154  0.00  0.00    +0.000 A 
ATOM     14  C   UNL     1       6.811   4.290  16.402  0.00  0.00    +0.000 A 
ATOM     15  O   UNL     1       6.205   5.059  17.338  0.00  0.00    +0.000 OA
ENDBRANCH   2  11
BRANCH   3  16
ATOM     16  C   UNL     1       2.460   5.467  17.317  0.00  0.00    +0.000 C 
BRANCH  16  17
ATOM     17  C   UNL     1       2.821   4.159  18.006  0.00  0.00    +0.000 A 
ATOM     18  C   UNL     1       3.350   3.055  17.313  0.00  0.00    +0.000 A 
ATOM     19  C   UNL     1       3.470   1.807  17.925  0.00  0.00    +0.000 A 
ATOM     20  C   UNL     1       3.089   1.641  19.254  0.00  0.00    +0.000 A 
ATOM     21  C   UNL     1       2.611   2.744  19.970  0.00  0.00    +0.000 A 
ATOM     22  C   UNL     1       2.486   4.001  19.359  0.00  0.00    +0.000 A 
BRANCH  21  23
ATOM     23  N   UNL     1       2.182   2.573  21.362  0.00  0.00    +0.000 N 
ATOM     24  O   UNL     1       3.029   2.199  22.186  0.00  0.00    +0.000 OA
ATOM     25  O   UNL     1       0.994   2.804  21.630  0.00  0.00    +0.000 OA
ENDBRANCH  21  23
ENDBRANCH  16  17
ENDBRANCH   3  16
TORSDOF 5
ENDMDL
