MODEL 1
REMARK VINA RESULT:      -7.2      0.000      0.000
REMARK  Name = 
REMARK  2 active torsions:
REMARK  status: ('A' for Active; 'I' for Inactive)
REMARK    1  A    between atoms: N_3  and  C_4
REMARK    2  A    between atoms: C_4  and  C_5
REMARK                            x       y       z     vdW  Elec       q    Type
REMARK                         _______ _______ _______ _____ _____    ______ ____
ROOT
ATOM      1  O   UNL     1      -1.631   9.951  18.111  0.00  0.00    +0.000 OA
ATOM      2  C   UNL     1      -0.715  10.544  18.658  0.00  0.00    +0.000 C 
ATOM      3  N   UNL     1      -0.742  11.857  19.098  0.00  0.00    +0.000 N 
ATOM      4  C   UNL     1       0.504  12.285  19.676  0.00  0.00    +0.000 C 
ATOM      5  C   UNL     1       1.490  11.218  19.231  0.00  0.00    +0.000 C 
ATOM      6  C   UNL     1       0.631   9.949  19.046  0.00  0.00    +0.000 C 
ATOM      7  C   UNL     1       1.169   9.033  17.934  0.00  0.00    +0.000 C 
ATOM      8  C   UNL     1       2.422   8.270  18.373  0.00  0.00    +0.000 C 
ATOM      9  N   UNL     1       2.103   7.568  19.609  0.00  0.00    +0.000 N 
ATOM     10  C   UNL     1       2.290   6.205  19.685  0.00  0.00    +0.000 A 
ATOM     11  C   UNL     1       1.524   5.412  20.538  0.00  0.00    +0.000 A 
ATOM     12  C   UNL     1       1.710   4.030  20.577  0.00  0.00    +0.000 A 
ATOM     13  C   UNL     1       2.670   3.457  19.763  0.00  0.00    +0.000 A 
ATOM     14  C   UNL     1       3.390   4.296  18.936  0.00  0.00    +0.000 A 
ATOM     15  N   UNL     1       3.214   5.635  18.877  0.00  0.00    +0.000 NA
ATOM     16  C   UNL     1       1.704   8.384  20.742  0.00  0.00    +0.000 C 
ATOM     17  C   UNL     1       0.449   9.166  20.365  0.00  0.00    +0.000 C 
ENDROOT
BRANCH   3  18
ATOM     18  C   UNL     1      -1.876  12.747  18.931  0.00  0.00    +0.000 C 
BRANCH  18  19
ATOM     19  C   UNL     1      -2.814  12.689  20.110  0.00  0.00    +0.000 A 
ATOM     20  C   UNL     1      -4.204  12.629  19.911  0.00  0.00    +0.000 A 
ATOM     21  C   UNL     1      -5.084  12.611  20.995  0.00  0.00    +0.000 A 
ATOM     22  C   UNL     1      -4.584  12.642  22.295  0.00  0.00    +0.000 A 
ATOM     23  C   UNL     1      -3.209  12.682  22.496  0.00  0.00    +0.000 A 
ATOM     24  F   UNL     1      -2.727  12.702  23.745  0.00  0.00    +0.000 F 
ATOM     25  C   UNL     1      -2.323  12.704  21.422  0.00  0.00    +0.000 A 
ENDBRANCH  18  19
ENDBRANCH   3  18
TORSDOF 2
ENDMDL
MODEL 2
REMARK VINA RESULT:      -7.2      2.876      8.033
REMARK  Name = 
REMARK  2 active torsions:
REMARK  status: ('A' for Active; 'I' for Inactive)
REMARK    1  A    between atoms: N_3  and  C_4
REMARK    2  A    between atoms: C_4  and  C_5
REMARK                            x       y       z     vdW  Elec       q    Type
REMARK                         _______ _______ _______ _____ _____    ______ ____
ROOT
ATOM      1  O   UNL     1      -0.411   8.869  21.307  0.00  0.00    +0.000 OA
ATOM      2  C   UNL     1       0.054   9.362  20.292  0.00  0.00    +0.000 C 
ATOM      3  N   UNL     1       1.278   9.055  19.724  0.00  0.00    +0.000 N 
ATOM      4  C   UNL     1       1.564   9.828  18.545  0.00  0.00    +0.000 C 
ATOM      5  C   UNL     1       0.549  10.957  18.602  0.00  0.00    +0.000 C 
ATOM      6  C   UNL     1      -0.643  10.367  19.385  0.00  0.00    +0.000 C 
ATOM      7  C   UNL     1      -1.387  11.431  20.211  0.00  0.00    +0.000 C 
ATOM      8  C   UNL     1      -2.253  12.338  19.333  0.00  0.00    +0.000 C 
ATOM      9  N   UNL     1      -3.133  11.484  18.546  0.00  0.00    +0.000 N 
ATOM     10  C   UNL     1      -4.496  11.676  18.601  0.00  0.00    +0.000 A 
ATOM     11  C   UNL     1      -5.389  10.629  18.378  0.00  0.00    +0.000 A 
ATOM     12  C   UNL     1      -6.765  10.840  18.468  0.00  0.00    +0.000 A 
ATOM     13  C   UNL     1      -7.233  12.105  18.777  0.00  0.00    +0.000 A 
ATOM     14  C   UNL     1      -6.297  13.097  18.993  0.00  0.00    +0.000 A 
ATOM     15  N   UNL     1      -4.961  12.906  18.922  0.00  0.00    +0.000 NA
ATOM     16  C   UNL     1      -2.497  10.535  17.649  0.00  0.00    +0.000 C 
ATOM     17  C   UNL     1      -1.620   9.595  18.472  0.00  0.00    +0.000 C 
ENDROOT
BRANCH   3  18
ATOM     18  C   UNL     1       2.223   8.110  20.291  0.00  0.00    +0.000 C 
BRANCH  18  19
ATOM     19  C   UNL     1       2.010   6.715  19.758  0.00  0.00    +0.000 A 
ATOM     20  C   UNL     1       2.323   6.408  18.423  0.00  0.00    +0.000 A 
ATOM     21  C   UNL     1       2.097   5.129  17.909  0.00  0.00    +0.000 A 
ATOM     22  C   UNL     1       1.565   4.137  18.729  0.00  0.00    +0.000 A 
ATOM     23  C   UNL     1       1.273   4.431  20.056  0.00  0.00    +0.000 A 
ATOM     24  F   UNL     1       0.769   3.475  20.846  0.00  0.00    +0.000 F 
ATOM     25  C   UNL     1       1.490   5.703  20.577  0.00  0.00    +0.000 A 
ENDBRANCH  18  19
ENDBRANCH   3  18
TORSDOF 2
ENDMDL
MODEL 3
REMARK VINA RESULT:      -7.2      0.899      1.317
REMARK  Name = 
REMARK  2 active torsions:
REMARK  status: ('A' for Active; 'I' for Inactive)
REMARK    1  A    between atoms: N_3  and  C_4
REMARK    2  A    between atoms: C_4  and  C_5
REMARK                            x       y       z     vdW  Elec       q    Type
REMARK                         _______ _______ _______ _____ _____    ______ ____
ROOT
ATOM      1  O   UNL     1      -1.789  10.059  18.563  0.00  0.00    +0.000 OA
ATOM      2  C   UNL     1      -0.820  10.637  19.029  0.00  0.00    +0.000 C 
ATOM      3  N   UNL     1      -0.800  11.935  19.511  0.00  0.00    +0.000 N 
ATOM      4  C   UNL     1       0.500  12.348  19.969  0.00  0.00    +0.000 C 
ATOM      5  C   UNL     1       1.433  11.298  19.390  0.00  0.00    +0.000 C 
ATOM      6  C   UNL     1       0.559  10.034  19.256  0.00  0.00    +0.000 C 
ATOM      7  C   UNL     1       0.977   9.154  18.066  0.00  0.00    +0.000 C 
ATOM      8  C   UNL     1       2.269   8.381  18.348  0.00  0.00    +0.000 C 
ATOM      9  N   UNL     1       2.080   7.639  19.587  0.00  0.00    +0.000 N 
ATOM     10  C   UNL     1       2.273   6.276  19.601  0.00  0.00    +0.000 A 
ATOM     11  C   UNL     1       1.599   5.454  20.504  0.00  0.00    +0.000 A 
ATOM     12  C   UNL     1       1.788   4.072  20.481  0.00  0.00    +0.000 A 
ATOM     13  C   UNL     1       2.657   3.527  19.552  0.00  0.00    +0.000 A 
ATOM     14  C   UNL     1       3.287   4.394  18.682  0.00  0.00    +0.000 A 
ATOM     15  N   UNL     1       3.106   5.733  18.683  0.00  0.00    +0.000 NA
ATOM     16  C   UNL     1       1.802   8.419  20.781  0.00  0.00    +0.000 C 
ATOM     17  C   UNL     1       0.515   9.209  20.562  0.00  0.00    +0.000 C 
ENDROOT
BRANCH   3  18
ATOM     18  C   UNL     1      -1.945  12.827  19.491  0.00  0.00    +0.000 C 
BRANCH  18  19
ATOM     19  C   UNL     1      -2.725  12.769  20.781  0.00  0.00    +0.000 A 
ATOM     20  C   UNL     1      -2.072  12.499  21.996  0.00  0.00    +0.000 A 
ATOM     21  C   UNL     1      -2.789  12.407  23.190  0.00  0.00    +0.000 A 
ATOM     22  C   UNL     1      -4.169  12.597  23.187  0.00  0.00    +0.000 A 
ATOM     23  C   UNL     1      -4.816  12.884  21.990  0.00  0.00    +0.000 A 
ATOM     24  F   UNL     1      -6.141  13.075  21.988  0.00  0.00    +0.000 F 
ATOM     25  C   UNL     1      -4.111  12.973  20.793  0.00  0.00    +0.000 A 
ENDBRANCH  18  19
ENDBRANCH   3  18
TORSDOF 2
ENDMDL
MODEL 4
REMARK VINA RESULT:      -7.1      0.911      1.178
REMARK  Name = 
REMARK  2 active torsions:
REMARK  status: ('A' for Active; 'I' for Inactive)
REMARK    1  A    between atoms: N_3  and  C_4
REMARK    2  A    between atoms: C_4  and  C_5
REMARK                            x       y       z     vdW  Elec       q    Type
REMARK                         _______ _______ _______ _____ _____    ______ ____
ROOT
ATOM      1  O   UNL     1      -1.935  10.009  18.567  0.00  0.00    +0.000 OA
ATOM      2  C   UNL     1      -1.047  10.616  19.143  0.00  0.00    +0.000 C 
ATOM      3  N   UNL     1      -1.153  11.877  19.703  0.00  0.00    +0.000 N 
ATOM      4  C   UNL     1       0.077  12.342  20.288  0.00  0.00    +0.000 C 
ATOM      5  C   UNL     1       1.122  11.394  19.722  0.00  0.00    +0.000 C 
ATOM      6  C   UNL     1       0.350  10.088  19.442  0.00  0.00    +0.000 C 
ATOM      7  C   UNL     1       0.916   9.318  18.237  0.00  0.00    +0.000 C 
ATOM      8  C   UNL     1       2.233   8.612  18.574  0.00  0.00    +0.000 C 
ATOM      9  N   UNL     1       2.003   7.780  19.747  0.00  0.00    +0.000 N 
ATOM     10  C   UNL     1       2.289   6.434  19.693  0.00  0.00    +0.000 A 
ATOM     11  C   UNL     1       1.607   5.512  20.487  0.00  0.00    +0.000 A 
ATOM     12  C   UNL     1       1.892   4.150  20.395  0.00  0.00    +0.000 A 
ATOM     13  C   UNL     1       2.865   3.725  19.507  0.00  0.00    +0.000 A 
ATOM     14  C   UNL     1       3.497   4.686  18.744  0.00  0.00    +0.000 A 
ATOM     15  N   UNL     1       3.224   6.008  18.813  0.00  0.00    +0.000 NA
ATOM     16  C   UNL     1       1.583   8.459  20.960  0.00  0.00    +0.000 C 
ATOM     17  C   UNL     1       0.265   9.178  20.687  0.00  0.00    +0.000 C 
ENDROOT
BRANCH   3  18
ATOM     18  C   UNL     1      -2.352  12.693  19.647  0.00  0.00    +0.000 C 
BRANCH  18  19
ATOM     19  C   UNL     1      -2.741  13.215  21.007  0.00  0.00    +0.000 A 
ATOM     20  C   UNL     1      -2.777  14.598  21.256  0.00  0.00    +0.000 A 
ATOM     21  C   UNL     1      -3.101  15.091  22.521  0.00  0.00    +0.000 A 
ATOM     22  C   UNL     1      -3.406  14.206  23.553  0.00  0.00    +0.000 A 
ATOM     23  C   UNL     1      -3.391  12.839  23.306  0.00  0.00    +0.000 A 
ATOM     24  F   UNL     1      -3.693  11.988  24.295  0.00  0.00    +0.000 F 
ATOM     25  C   UNL     1      -3.065  12.336  22.049  0.00  0.00    +0.000 A 
ENDBRANCH  18  19
ENDBRANCH   3  18
TORSDOF 2
ENDMDL
MODEL 5
REMARK VINA RESULT:      -6.9      1.300      1.636
REMARK  Name = 
REMARK  2 active torsions:
REMARK  status: ('A' for Active; 'I' for Inactive)
REMARK    1  A    between atoms: N_3  and  C_4
REMARK    2  A    between atoms: C_4  and  C_5
REMARK                            x       y       z     vdW  Elec       q    Type
REMARK                         _______ _______ _______ _____ _____    ______ ____
ROOT
ATOM      1  O   UNL     1      -1.210   9.644  17.512  0.00  0.00    +0.000 OA
ATOM      2  C   UNL     1      -0.371  10.248  18.160  0.00  0.00    +0.000 C 
ATOM      3  N   UNL     1      -0.424  11.584  18.519  0.00  0.00    +0.000 N 
ATOM      4  C   UNL     1       0.732  12.017  19.258  0.00  0.00    +0.000 C 
ATOM      5  C   UNL     1       1.741  10.905  19.029  0.00  0.00    +0.000 C 
ATOM      6  C   UNL     1       0.882   9.647  18.783  0.00  0.00    +0.000 C 
ATOM      7  C   UNL     1       1.555   8.655  17.818  0.00  0.00    +0.000 C 
ATOM      8  C   UNL     1       2.702   7.892  18.486  0.00  0.00    +0.000 C 
ATOM      9  N   UNL     1       2.176   7.270  19.694  0.00  0.00    +0.000 N 
ATOM     10  C   UNL     1       2.308   5.911  19.872  0.00  0.00    +0.000 A 
ATOM     11  C   UNL     1       1.396   5.186  20.639  0.00  0.00    +0.000 A 
ATOM     12  C   UNL     1       1.532   3.805  20.782  0.00  0.00    +0.000 A 
ATOM     13  C   UNL     1       2.587   3.164  20.157  0.00  0.00    +0.000 A 
ATOM     14  C   UNL     1       3.450   3.938  19.407  0.00  0.00    +0.000 A 
ATOM     15  N   UNL     1       3.326   5.274  19.248  0.00  0.00    +0.000 NA
ATOM     16  C   UNL     1       1.635   8.160  20.707  0.00  0.00    +0.000 C 
ATOM     17  C   UNL     1       0.476   8.946  20.099  0.00  0.00    +0.000 C 
ENDROOT
BRANCH   3  18
ATOM     18  C   UNL     1      -1.491  12.488  18.131  0.00  0.00    +0.000 C 
BRANCH  18  19
ATOM     19  C   UNL     1      -2.619  12.488  19.133  0.00  0.00    +0.000 A 
ATOM     20  C   UNL     1      -2.417  12.985  20.432  0.00  0.00    +0.000 A 
ATOM     21  C   UNL     1      -3.444  12.958  21.378  0.00  0.00    +0.000 A 
ATOM     22  C   UNL     1      -4.691  12.443  21.033  0.00  0.00    +0.000 A 
ATOM     23  C   UNL     1      -4.900  11.969  19.743  0.00  0.00    +0.000 A 
ATOM     24  F   UNL     1      -6.102  11.482  19.408  0.00  0.00    +0.000 F 
ATOM     25  C   UNL     1      -3.883  11.987  18.793  0.00  0.00    +0.000 A 
ENDBRANCH  18  19
ENDBRANCH   3  18
TORSDOF 2
ENDMDL
MODEL 6
REMARK VINA RESULT:      -6.9      1.140      1.402
REMARK  Name = 
REMARK  2 active torsions:
REMARK  status: ('A' for Active; 'I' for Inactive)
REMARK    1  A    between atoms: N_3  and  C_4
REMARK    2  A    between atoms: C_4  and  C_5
REMARK                            x       y       z     vdW  Elec       q    Type
REMARK                         _______ _______ _______ _____ _____    ______ ____
ROOT
ATOM      1  O   UNL     1      -1.925  10.041  18.654  0.00  0.00    +0.000 OA
ATOM      2  C   UNL     1      -1.001  10.640  19.180  0.00  0.00    +0.000 C 
ATOM      3  N   UNL     1      -1.060  11.910  19.728  0.00  0.00    +0.000 N 
ATOM      4  C   UNL     1       0.204  12.360  20.248  0.00  0.00    +0.000 C 
ATOM      5  C   UNL     1       1.205  11.389  19.645  0.00  0.00    +0.000 C 
ATOM      6  C   UNL     1       0.399  10.093  19.418  0.00  0.00    +0.000 C 
ATOM      7  C   UNL     1       0.895   9.299  18.197  0.00  0.00    +0.000 C 
ATOM      8  C   UNL     1       2.215   8.576  18.479  0.00  0.00    +0.000 C 
ATOM      9  N   UNL     1       2.028   7.761  19.672  0.00  0.00    +0.000 N 
ATOM     10  C   UNL     1       2.289   6.410  19.621  0.00  0.00    +0.000 A 
ATOM     11  C   UNL     1       1.632   5.509  20.459  0.00  0.00    +0.000 A 
ATOM     12  C   UNL     1       1.890   4.142  20.370  0.00  0.00    +0.000 A 
ATOM     13  C   UNL     1       2.812   3.690  19.442  0.00  0.00    +0.000 A 
ATOM     14  C   UNL     1       3.423   4.631  18.638  0.00  0.00    +0.000 A 
ATOM     15  N   UNL     1       3.175   5.958  18.703  0.00  0.00    +0.000 NA
ATOM     16  C   UNL     1       1.678   8.461  20.896  0.00  0.00    +0.000 C 
ATOM     17  C   UNL     1       0.359   9.199  20.677  0.00  0.00    +0.000 C 
ENDROOT
BRANCH   3  18
ATOM     18  C   UNL     1      -2.247  12.745  19.719  0.00  0.00    +0.000 C 
BRANCH  18  19
ATOM     19  C   UNL     1      -2.648  13.168  21.110  0.00  0.00    +0.000 A 
ATOM     20  C   UNL     1      -2.735  12.220  22.144  0.00  0.00    +0.000 A 
ATOM     21  C   UNL     1      -3.140  12.594  23.427  0.00  0.00    +0.000 A 
ATOM     22  C   UNL     1      -3.452  13.925  23.695  0.00  0.00    +0.000 A 
ATOM     23  C   UNL     1      -3.348  14.868  22.680  0.00  0.00    +0.000 A 
ATOM     24  F   UNL     1      -3.639  16.149  22.940  0.00  0.00    +0.000 F 
ATOM     25  C   UNL     1      -2.949  14.506  21.397  0.00  0.00    +0.000 A 
ENDBRANCH  18  19
ENDBRANCH   3  18
TORSDOF 2
ENDMDL
MODEL 7
REMARK VINA RESULT:      -6.8      2.659      8.026
REMARK  Name = 
REMARK  2 active torsions:
REMARK  status: ('A' for Active; 'I' for Inactive)
REMARK    1  A    between atoms: N_3  and  C_4
REMARK    2  A    between atoms: C_4  and  C_5
REMARK                            x       y       z     vdW  Elec       q    Type
REMARK                         _______ _______ _______ _____ _____    ______ ____
ROOT
ATOM      1  O   UNL     1       1.636   8.672  21.434  0.00  0.00    +0.000 OA
ATOM      2  C   UNL     1       1.625   8.836  20.225  0.00  0.00    +0.000 C 
ATOM      3  N   UNL     1       2.220   8.010  19.286  0.00  0.00    +0.000 N 
ATOM      4  C   UNL     1       2.062   8.484  17.936  0.00  0.00    +0.000 C 
ATOM      5  C   UNL     1       1.610   9.924  18.113  0.00  0.00    +0.000 C 
ATOM      6  C   UNL     1       0.891   9.940  19.477  0.00  0.00    +0.000 C 
ATOM      7  C   UNL     1       1.038  11.288  20.203  0.00  0.00    +0.000 C 
ATOM      8  C   UNL     1       0.153  12.374  19.585  0.00  0.00    +0.000 C 
ATOM      9  N   UNL     1      -1.213  11.869  19.556  0.00  0.00    +0.000 N 
ATOM     10  C   UNL     1      -2.220  12.594  20.155  0.00  0.00    +0.000 A 
ATOM     11  C   UNL     1      -3.360  11.974  20.665  0.00  0.00    +0.000 A 
ATOM     12  C   UNL     1      -4.353  12.725  21.294  0.00  0.00    +0.000 A 
ATOM     13  C   UNL     1      -4.195  14.096  21.400  0.00  0.00    +0.000 A 
ATOM     14  C   UNL     1      -3.040  14.647  20.881  0.00  0.00    +0.000 A 
ATOM     15  N   UNL     1      -2.063  13.933  20.280  0.00  0.00    +0.000 NA
ATOM     16  C   UNL     1      -1.450  10.662  18.784  0.00  0.00    +0.000 C 
ATOM     17  C   UNL     1      -0.596   9.536  19.361  0.00  0.00    +0.000 C 
ENDROOT
BRANCH   3  18
ATOM     18  C   UNL     1       2.994   6.828  19.617  0.00  0.00    +0.000 C 
BRANCH  18  19
ATOM     19  C   UNL     1       2.235   5.559  19.320  0.00  0.00    +0.000 A 
ATOM     20  C   UNL     1       2.052   5.132  17.994  0.00  0.00    +0.000 A 
ATOM     21  C   UNL     1       1.321   3.978  17.706  0.00  0.00    +0.000 A 
ATOM     22  C   UNL     1       0.772   3.228  18.744  0.00  0.00    +0.000 A 
ATOM     23  C   UNL     1       0.967   3.637  20.058  0.00  0.00    +0.000 A 
ATOM     24  F   UNL     1       0.446   2.911  21.056  0.00  0.00    +0.000 F 
ATOM     25  C   UNL     1       1.690   4.787  20.356  0.00  0.00    +0.000 A 
ENDBRANCH  18  19
ENDBRANCH   3  18
TORSDOF 2
ENDMDL
MODEL 8
REMARK VINA RESULT:      -6.8      3.320      4.702
REMARK  Name = 
REMARK  2 active torsions:
REMARK  status: ('A' for Active; 'I' for Inactive)
REMARK    1  A    between atoms: N_3  and  C_4
REMARK    2  A    between atoms: C_4  and  C_5
REMARK                            x       y       z     vdW  Elec       q    Type
REMARK                         _______ _______ _______ _____ _____    ______ ____
ROOT
ATOM      1  O   UNL     1       2.206  13.007  21.116  0.00  0.00    +0.000 OA
ATOM      2  C   UNL     1       1.079  12.739  20.730  0.00  0.00    +0.000 C 
ATOM      3  N   UNL     1       0.033  13.634  20.589  0.00  0.00    +0.000 N 
ATOM      4  C   UNL     1      -1.186  13.013  20.142  0.00  0.00    +0.000 C 
ATOM      5  C   UNL     1      -0.933  11.530  20.360  0.00  0.00    +0.000 C 
ATOM      6  C   UNL     1       0.599  11.378  20.246  0.00  0.00    +0.000 C 
ATOM      7  C   UNL     1       1.145  10.252  21.139  0.00  0.00    +0.000 C 
ATOM      8  C   UNL     1       0.840   8.865  20.567  0.00  0.00    +0.000 C 
ATOM      9  N   UNL     1       1.346   8.828  19.201  0.00  0.00    +0.000 N 
ATOM     10  C   UNL     1       2.235   7.843  18.830  0.00  0.00    +0.000 A 
ATOM     11  C   UNL     1       3.163   8.047  17.810  0.00  0.00    +0.000 A 
ATOM     12  C   UNL     1       4.073   7.045  17.471  0.00  0.00    +0.000 A 
ATOM     13  C   UNL     1       4.040   5.845  18.158  0.00  0.00    +0.000 A 
ATOM     14  C   UNL     1       3.102   5.710  19.162  0.00  0.00    +0.000 A 
ATOM     15  N   UNL     1       2.222   6.673  19.511  0.00  0.00    +0.000 NA
ATOM     16  C   UNL     1       0.782   9.787  18.267  0.00  0.00    +0.000 C 
ATOM     17  C   UNL     1       1.062  11.196  18.784  0.00  0.00    +0.000 C 
ENDROOT
BRANCH   3  18
ATOM     18  C   UNL     1       0.117  15.043  20.926  0.00  0.00    +0.000 C 
BRANCH  18  19
ATOM     19  C   UNL     1       0.483  15.887  19.731  0.00  0.00    +0.000 A 
ATOM     20  C   UNL     1       1.823  16.004  19.326  0.00  0.00    +0.000 A 
ATOM     21  C   UNL     1       2.178  16.811  18.243  0.00  0.00    +0.000 A 
ATOM     22  C   UNL     1       1.192  17.502  17.542  0.00  0.00    +0.000 A 
ATOM     23  C   UNL     1      -0.137  17.372  17.926  0.00  0.00    +0.000 A 
ATOM     24  F   UNL     1      -1.085  18.030  17.247  0.00  0.00    +0.000 F 
ATOM     25  C   UNL     1      -0.501  16.575  19.007  0.00  0.00    +0.000 A 
ENDBRANCH  18  19
ENDBRANCH   3  18
TORSDOF 2
ENDMDL
MODEL 9
REMARK VINA RESULT:      -6.8      4.093      6.695
REMARK  Name = 
REMARK  2 active torsions:
REMARK  status: ('A' for Active; 'I' for Inactive)
REMARK    1  A    between atoms: N_3  and  C_4
REMARK    2  A    between atoms: C_4  and  C_5
REMARK                            x       y       z     vdW  Elec       q    Type
REMARK                         _______ _______ _______ _____ _____    ______ ____
ROOT
ATOM      1  O   UNL     1       2.046   6.886  17.450  0.00  0.00    +0.000 OA
ATOM      2  C   UNL     1       2.768   6.283  18.227  0.00  0.00    +0.000 C 
ATOM      3  N   UNL     1       2.457   5.944  19.533  0.00  0.00    +0.000 N 
ATOM      4  C   UNL     1       3.527   5.260  20.210  0.00  0.00    +0.000 C 
ATOM      5  C   UNL     1       4.732   5.511  19.319  0.00  0.00    +0.000 C 
ATOM      6  C   UNL     1       4.138   5.701  17.908  0.00  0.00    +0.000 C 
ATOM      7  C   UNL     1       4.963   6.675  17.049  0.00  0.00    +0.000 C 
ATOM      8  C   UNL     1       6.265   6.041  16.551  0.00  0.00    +0.000 C 
ATOM      9  N   UNL     1       5.921   4.802  15.866  0.00  0.00    +0.000 N 
ATOM     10  C   UNL     1       6.332   4.606  14.566  0.00  0.00    +0.000 A 
ATOM     11  C   UNL     1       5.615   3.791  13.690  0.00  0.00    +0.000 A 
ATOM     12  C   UNL     1       6.033   3.631  12.369  0.00  0.00    +0.000 A 
ATOM     13  C   UNL     1       7.173   4.287  11.940  0.00  0.00    +0.000 A 
ATOM     14  C   UNL     1       7.833   5.084  12.854  0.00  0.00    +0.000 A 
ATOM     15  N   UNL     1       7.435   5.260  14.133  0.00  0.00    +0.000 NA
ATOM     16  C   UNL     1       5.246   3.784  16.652  0.00  0.00    +0.000 C 
ATOM     17  C   UNL     1       3.931   4.358  17.173  0.00  0.00    +0.000 C 
ENDROOT
BRANCH   3  18
ATOM     18  C   UNL     1       1.215   6.304  20.192  0.00  0.00    +0.000 C 
BRANCH  18  19
ATOM     19  C   UNL     1       1.167   7.772  20.537  0.00  0.00    +0.000 A 
ATOM     20  C   UNL     1       1.119   8.186  21.879  0.00  0.00    +0.000 A 
ATOM     21  C   UNL     1       1.039   9.540  22.210  0.00  0.00    +0.000 A 
ATOM     22  C   UNL     1       1.016  10.500  21.200  0.00  0.00    +0.000 A 
ATOM     23  C   UNL     1       1.083  10.095  19.872  0.00  0.00    +0.000 A 
ATOM     24  F   UNL     1       1.071  11.018  18.902  0.00  0.00    +0.000 F 
ATOM     25  C   UNL     1       1.160   8.748  19.532  0.00  0.00    +0.000 A 
ENDBRANCH  18  19
ENDBRANCH   3  18
TORSDOF 2
ENDMDL
