MODEL 1
REMARK VINA RESULT:      -6.9      0.000      0.000
REMARK  Name = 
REMARK  10 active torsions:
REMARK  status: ('A' for Active; 'I' for Inactive)
REMARK    1  A    between atoms: C_1  and  O_2
REMARK    2  A    between atoms: O_2  and  C_3
REMARK    3  A    between atoms: C_3  and  C_4
REMARK    4  A    between atoms: C_4  and  N_5
REMARK    5  A    between atoms: C_12  and  C_13
REMARK    6  A    between atoms: C_13  and  N_14
REMARK    7  A    between atoms: N_14  and  C_15
REMARK    8  A    between atoms: N_14  and  C_16
REMARK    9  A    between atoms: N_19  and  C_20
REMARK   10  A    between atoms: C_25  and  C_26
REMARK                            x       y       z     vdW  Elec       q    Type
REMARK                         _______ _______ _______ _____ _____    ______ ____
ROOT
ATOM      1  N   UNL     1      -4.417  10.729  15.937  0.00  0.00    +0.000 N 
ATOM      2  C   UNL     1      -4.482  11.166  17.255  0.00  0.00    +0.000 A 
ATOM      3  N   UNL     1      -3.387  11.609  17.868  0.00  0.00    +0.000 NA
ATOM      4  C   UNL     1      -3.385  12.087  19.153  0.00  0.00    +0.000 A 
ATOM      5  N   UNL     1      -2.162  12.512  19.641  0.00  0.00    +0.000 N 
ATOM      6  C   UNL     1      -1.067  12.755  18.704  0.00  0.00    +0.000 C 
ATOM      7  C   UNL     1      -0.060  11.606  18.803  0.00  0.00    +0.000 C 
ATOM      8  C   UNL     1       0.512  11.421  20.227  0.00  0.00    +0.000 C 
ATOM      9  C   UNL     1      -0.648  11.289  21.217  0.00  0.00    +0.000 C 
ATOM     10  C   UNL     1      -1.753  12.317  21.031  0.00  0.00    +0.000 C 
ATOM     11  C   UNL     1      -4.659  12.127  19.802  0.00  0.00    +0.000 A 
ATOM     12  C   UNL     1      -5.201  12.644  21.084  0.00  0.00    +0.000 A 
ATOM     13  C   UNL     1      -6.556  12.381  21.180  0.00  0.00    +0.000 A 
ATOM     14  S   UNL     1      -7.213  11.604  19.831  0.00  0.00    +0.000 S 
ATOM     15  C   UNL     1      -5.707  11.599  19.055  0.00  0.00    +0.000 A 
ATOM     16  N   UNL     1      -5.668  11.101  17.811  0.00  0.00    +0.000 NA
ATOM     17  H   UNL     1      -5.229  10.146  15.767  0.00  0.00    +0.000 HD
ENDROOT
BRANCH  12  18
ATOM     18  C   UNL     1      -4.609  13.432  22.185  0.00  0.00    +0.000 A 
ATOM     19  C   UNL     1      -4.343  12.866  23.437  0.00  0.00    +0.000 A 
ATOM     20  C   UNL     1      -3.714  13.603  24.445  0.00  0.00    +0.000 A 
ATOM     21  C   UNL     1      -3.235  14.881  24.180  0.00  0.00    +0.000 A 
ATOM     22  C   UNL     1      -3.469  15.459  22.937  0.00  0.00    +0.000 A 
ATOM     23  C   UNL     1      -4.188  14.758  21.968  0.00  0.00    +0.000 A 
ENDBRANCH  12  18
BRANCH   1  24
ATOM     24  C   UNL     1      -3.168  10.115  15.519  0.00  0.00    +0.000 C 
BRANCH  24  25
ATOM     25  C   UNL     1      -3.076  10.068  13.991  0.00  0.00    +0.000 C 
BRANCH  25  27
ATOM     26  C   UNL     1      -4.344   9.802  12.023  0.00  0.00    +0.000 C 
ATOM     27  O   UNL     1      -4.382   9.845  13.443  0.00  0.00    +0.000 OA
ENDBRANCH  25  27
ENDBRANCH  24  25
ENDBRANCH   1  24
BRANCH   8  28
ATOM     28  C   UNL     1       1.516  12.532  20.614  0.00  0.00    +0.000 C 
BRANCH  28  29
ATOM     29  N   UNL     1       1.033  13.935  20.479  0.00  0.00    +0.000 NA
ATOM     30  C   UNL     1       0.974  14.620  21.777  0.00  0.00    +0.000 C 
BRANCH  29  31
ATOM     31  C   UNL     1       1.869  14.677  19.500  0.00  0.00    +0.000 C 
ATOM     32  C   UNL     1       3.263  14.075  19.240  0.00  0.00    +0.000 C 
ATOM     33  C   UNL     1       4.259  15.102  19.744  0.00  0.00    +0.000 C 
ATOM     34  N   UNL     1       3.577  16.375  19.544  0.00  0.00    +0.000 NA
ATOM     35  C   UNL     1       4.193  17.424  20.349  0.00  0.00    +0.000 C 
ATOM     36  C   UNL     1       2.192  16.124  19.956  0.00  0.00    +0.000 C 
ENDBRANCH  29  31
ENDBRANCH  28  29
ENDBRANCH   8  28
TORSDOF 7
ENDMDL
MODEL 2
REMARK VINA RESULT:      -6.6      3.318      6.720
REMARK  Name = 
REMARK  10 active torsions:
REMARK  status: ('A' for Active; 'I' for Inactive)
REMARK    1  A    between atoms: C_1  and  O_2
REMARK    2  A    between atoms: O_2  and  C_3
REMARK    3  A    between atoms: C_3  and  C_4
REMARK    4  A    between atoms: C_4  and  N_5
REMARK    5  A    between atoms: C_12  and  C_13
REMARK    6  A    between atoms: C_13  and  N_14
REMARK    7  A    between atoms: N_14  and  C_15
REMARK    8  A    between atoms: N_14  and  C_16
REMARK    9  A    between atoms: N_19  and  C_20
REMARK   10  A    between atoms: C_25  and  C_26
REMARK                            x       y       z     vdW  Elec       q    Type
REMARK                         _______ _______ _______ _____ _____    ______ ____
ROOT
ATOM      1  N   UNL     1      -4.555  13.941  24.534  0.00  0.00    +0.000 N 
ATOM      2  C   UNL     1      -4.566  13.556  23.198  0.00  0.00    +0.000 A 
ATOM      3  N   UNL     1      -3.445  13.139  22.614  0.00  0.00    +0.000 NA
ATOM      4  C   UNL     1      -3.390  12.711  21.311  0.00  0.00    +0.000 A 
ATOM      5  N   UNL     1      -2.147  12.306  20.857  0.00  0.00    +0.000 N 
ATOM      6  C   UNL     1      -1.090  12.028  21.829  0.00  0.00    +0.000 C 
ATOM      7  C   UNL     1      -0.082  13.180  21.815  0.00  0.00    +0.000 C 
ATOM      8  C   UNL     1       0.546  13.421  20.424  0.00  0.00    +0.000 C 
ATOM      9  C   UNL     1      -0.573  13.591  19.394  0.00  0.00    +0.000 C 
ATOM     10  C   UNL     1      -1.683  12.556  19.494  0.00  0.00    +0.000 C 
ATOM     11  C   UNL     1      -4.637  12.696  20.611  0.00  0.00    +0.000 A 
ATOM     12  C   UNL     1      -5.124  12.228  19.289  0.00  0.00    +0.000 A 
ATOM     13  C   UNL     1      -6.476  12.494  19.148  0.00  0.00    +0.000 A 
ATOM     14  S   UNL     1      -7.188  13.217  20.498  0.00  0.00    +0.000 S 
ATOM     15  C   UNL     1      -5.715  13.192  21.335  0.00  0.00    +0.000 A 
ATOM     16  N   UNL     1      -5.727  13.642  22.597  0.00  0.00    +0.000 NA
ATOM     17  H   UNL     1      -5.374  14.517  24.693  0.00  0.00    +0.000 HD
ENDROOT
BRANCH  12  18
ATOM     18  C   UNL     1      -4.487  11.484  18.182  0.00  0.00    +0.000 A 
ATOM     19  C   UNL     1      -3.751  10.315  18.406  0.00  0.00    +0.000 A 
ATOM     20  C   UNL     1      -3.218   9.582  17.341  0.00  0.00    +0.000 A 
ATOM     21  C   UNL     1      -3.508   9.942  16.030  0.00  0.00    +0.000 A 
ATOM     22  C   UNL     1      -4.253  11.089  15.782  0.00  0.00    +0.000 A 
ATOM     23  C   UNL     1      -4.697  11.875  16.846  0.00  0.00    +0.000 A 
ENDBRANCH  12  18
BRANCH   1  24
ATOM     24  C   UNL     1      -3.325  14.540  25.025  0.00  0.00    +0.000 C 
BRANCH  24  25
ATOM     25  C   UNL     1      -3.487  16.056  25.174  0.00  0.00    +0.000 C 
BRANCH  25  27
ATOM     26  C   UNL     1      -5.273  17.592  25.137  0.00  0.00    +0.000 C 
ATOM     27  O   UNL     1      -4.674  16.478  24.490  0.00  0.00    +0.000 OA
ENDBRANCH  25  27
ENDBRANCH  24  25
ENDBRANCH   1  24
BRANCH   8  28
ATOM     28  C   UNL     1       1.568  12.328  20.035  0.00  0.00    +0.000 C 
BRANCH  28  29
ATOM     29  N   UNL     1       1.527  11.859  18.621  0.00  0.00    +0.000 NA
ATOM     30  C   UNL     1       2.841  11.958  17.974  0.00  0.00    +0.000 C 
BRANCH  29  31
ATOM     31  C   UNL     1       0.979  10.479  18.551  0.00  0.00    +0.000 C 
ATOM     32  C   UNL     1       0.814   9.769  19.908  0.00  0.00    +0.000 C 
ATOM     33  C   UNL     1       1.771   8.593  19.881  0.00  0.00    +0.000 C 
ATOM     34  N   UNL     1       1.831   8.227  18.470  0.00  0.00    +0.000 NA
ATOM     35  C   UNL     1       3.007   7.409  18.198  0.00  0.00    +0.000 C 
ATOM     36  C   UNL     1       1.891   9.507  17.756  0.00  0.00    +0.000 C 
ENDBRANCH  29  31
ENDBRANCH  28  29
ENDBRANCH   8  28
TORSDOF 7
ENDMDL
MODEL 3
REMARK VINA RESULT:      -6.5      2.771      5.796
REMARK  Name = 
REMARK  10 active torsions:
REMARK  status: ('A' for Active; 'I' for Inactive)
REMARK    1  A    between atoms: C_1  and  O_2
REMARK    2  A    between atoms: O_2  and  C_3
REMARK    3  A    between atoms: C_3  and  C_4
REMARK    4  A    between atoms: C_4  and  N_5
REMARK    5  A    between atoms: C_12  and  C_13
REMARK    6  A    between atoms: C_13  and  N_14
REMARK    7  A    between atoms: N_14  and  C_15
REMARK    8  A    between atoms: N_14  and  C_16
REMARK    9  A    between atoms: N_19  and  C_20
REMARK   10  A    between atoms: C_25  and  C_26
REMARK                            x       y       z     vdW  Elec       q    Type
REMARK                         _______ _______ _______ _____ _____    ______ ____
ROOT
ATOM      1  N   UNL     1      -4.960  13.744  24.123  0.00  0.00    +0.000 N 
ATOM      2  C   UNL     1      -4.864  13.332  22.799  0.00  0.00    +0.000 A 
ATOM      3  N   UNL     1      -3.675  13.046  22.273  0.00  0.00    +0.000 NA
ATOM      4  C   UNL     1      -3.510  12.601  20.986  0.00  0.00    +0.000 A 
ATOM      5  N   UNL     1      -2.207  12.346  20.594  0.00  0.00    +0.000 N 
ATOM      6  C   UNL     1      -1.168  12.225  21.615  0.00  0.00    +0.000 C 
ATOM      7  C   UNL     1      -0.312  13.494  21.612  0.00  0.00    +0.000 C 
ATOM      8  C   UNL     1       0.342  13.783  20.241  0.00  0.00    +0.000 C 
ATOM      9  C   UNL     1      -0.743  13.787  19.162  0.00  0.00    +0.000 C 
ATOM     10  C   UNL     1      -1.718  12.623  19.245  0.00  0.00    +0.000 C 
ATOM     11  C   UNL     1      -4.713  12.413  20.235  0.00  0.00    +0.000 A 
ATOM     12  C   UNL     1      -5.080  11.859  18.907  0.00  0.00    +0.000 A 
ATOM     13  C   UNL     1      -6.446  11.950  18.704  0.00  0.00    +0.000 A 
ATOM     14  S   UNL     1      -7.302  12.606  20.004  0.00  0.00    +0.000 S 
ATOM     15  C   UNL     1      -5.875  12.786  20.901  0.00  0.00    +0.000 A 
ATOM     16  N   UNL     1      -6.000  13.257  22.149  0.00  0.00    +0.000 NA
ATOM     17  H   UNL     1      -5.851  14.215  24.233  0.00  0.00    +0.000 HD
ENDROOT
BRANCH  12  18
ATOM     18  C   UNL     1      -4.306  11.179  17.848  0.00  0.00    +0.000 A 
ATOM     19  C   UNL     1      -4.299  11.639  16.527  0.00  0.00    +0.000 A 
ATOM     20  C   UNL     1      -3.503  11.029  15.552  0.00  0.00    +0.000 A 
ATOM     21  C   UNL     1      -2.612  10.023  15.908  0.00  0.00    +0.000 A 
ATOM     22  C   UNL     1      -2.585   9.561  17.220  0.00  0.00    +0.000 A 
ATOM     23  C   UNL     1      -3.455  10.103  18.167  0.00  0.00    +0.000 A 
ENDBRANCH  12  18
BRANCH   1  24
ATOM     24  C   UNL     1      -3.837  14.503  24.648  0.00  0.00    +0.000 C 
BRANCH  24  25
ATOM     25  C   UNL     1      -4.129  16.006  24.587  0.00  0.00    +0.000 C 
BRANCH  25  27
ATOM     26  C   UNL     1      -4.105  16.917  22.414  0.00  0.00    +0.000 C 
ATOM     27  O   UNL     1      -3.326  16.605  23.561  0.00  0.00    +0.000 OA
ENDBRANCH  25  27
ENDBRANCH  24  25
ENDBRANCH   1  24
BRANCH   8  28
ATOM     28  C   UNL     1       1.508  12.818  19.924  0.00  0.00    +0.000 C 
BRANCH  28  29
ATOM     29  N   UNL     1       2.712  13.425  19.289  0.00  0.00    +0.000 NA
ATOM     30  C   UNL     1       2.898  12.957  17.910  0.00  0.00    +0.000 C 
BRANCH  29  31
ATOM     31  C   UNL     1       2.643  14.908  19.365  0.00  0.00    +0.000 C 
ATOM     32  C   UNL     1       2.868  15.643  18.031  0.00  0.00    +0.000 C 
ATOM     33  C   UNL     1       4.150  16.436  18.205  0.00  0.00    +0.000 C 
ATOM     34  N   UNL     1       4.173  16.749  19.629  0.00  0.00    +0.000 NA
ATOM     35  C   UNL     1       5.516  17.130  20.053  0.00  0.00    +0.000 C 
ATOM     36  C   UNL     1       3.732  15.517  20.289  0.00  0.00    +0.000 C 
ENDBRANCH  29  31
ENDBRANCH  28  29
ENDBRANCH   8  28
TORSDOF 7
ENDMDL
MODEL 4
REMARK VINA RESULT:      -6.3      1.285      1.779
REMARK  Name = 
REMARK  10 active torsions:
REMARK  status: ('A' for Active; 'I' for Inactive)
REMARK    1  A    between atoms: C_1  and  O_2
REMARK    2  A    between atoms: O_2  and  C_3
REMARK    3  A    between atoms: C_3  and  C_4
REMARK    4  A    between atoms: C_4  and  N_5
REMARK    5  A    between atoms: C_12  and  C_13
REMARK    6  A    between atoms: C_13  and  N_14
REMARK    7  A    between atoms: N_14  and  C_15
REMARK    8  A    between atoms: N_14  and  C_16
REMARK    9  A    between atoms: N_19  and  C_20
REMARK   10  A    between atoms: C_25  and  C_26
REMARK                            x       y       z     vdW  Elec       q    Type
REMARK                         _______ _______ _______ _____ _____    ______ ____
ROOT
ATOM      1  N   UNL     1      -3.957  10.775  16.616  0.00  0.00    +0.000 N 
ATOM      2  C   UNL     1      -3.900  11.392  17.860  0.00  0.00    +0.000 A 
ATOM      3  N   UNL     1      -2.784  12.004  18.253  0.00  0.00    +0.000 NA
ATOM      4  C   UNL     1      -2.669  12.662  19.451  0.00  0.00    +0.000 A 
ATOM      5  N   UNL     1      -1.442  13.249  19.705  0.00  0.00    +0.000 N 
ATOM      6  C   UNL     1      -0.501  13.438  18.602  0.00  0.00    +0.000 C 
ATOM      7  C   UNL     1       0.618  12.400  18.715  0.00  0.00    +0.000 C 
ATOM      8  C   UNL     1       1.378  12.468  20.059  0.00  0.00    +0.000 C 
ATOM      9  C   UNL     1       0.369  12.390  21.207  0.00  0.00    +0.000 C 
ATOM     10  C   UNL     1      -0.846  13.289  21.039  0.00  0.00    +0.000 C 
ATOM     11  C   UNL     1      -3.850  12.694  20.257  0.00  0.00    +0.000 A 
ATOM     12  C   UNL     1      -4.275  13.348  21.520  0.00  0.00    +0.000 A 
ATOM     13  C   UNL     1      -5.576  12.995  21.836  0.00  0.00    +0.000 A 
ATOM     14  S   UNL     1      -6.317  11.982  20.705  0.00  0.00    +0.000 S 
ATOM     15  C   UNL     1      -4.926  11.983  19.737  0.00  0.00    +0.000 A 
ATOM     16  N   UNL     1      -4.994  11.315  18.578  0.00  0.00    +0.000 NA
ATOM     17  H   UNL     1      -4.723  10.111  16.638  0.00  0.00    +0.000 HD
ENDROOT
BRANCH  12  18
ATOM     18  C   UNL     1      -3.630  14.331  22.416  0.00  0.00    +0.000 A 
ATOM     19  C   UNL     1      -3.063  13.955  23.638  0.00  0.00    +0.000 A 
ATOM     20  C   UNL     1      -2.389  14.882  24.439  0.00  0.00    +0.000 A 
ATOM     21  C   UNL     1      -2.172  16.176  23.977  0.00  0.00    +0.000 A 
ATOM     22  C   UNL     1      -2.709  16.569  22.756  0.00  0.00    +0.000 A 
ATOM     23  C   UNL     1      -3.468  15.668  22.007  0.00  0.00    +0.000 A 
ENDBRANCH  12  18
BRANCH   1  24
ATOM     24  C   UNL     1      -2.715  10.208  16.117  0.00  0.00    +0.000 C 
BRANCH  24  25
ATOM     25  C   UNL     1      -2.773  10.044  14.594  0.00  0.00    +0.000 C 
BRANCH  25  27
ATOM     26  C   UNL     1      -4.242   9.844  12.763  0.00  0.00    +0.000 C 
ATOM     27  O   UNL     1      -4.143   9.996  14.172  0.00  0.00    +0.000 OA
ENDBRANCH  25  27
ENDBRANCH  24  25
ENDBRANCH   1  24
BRANCH   8  28
ATOM     28  C   UNL     1       2.310  13.699  20.153  0.00  0.00    +0.000 C 
BRANCH  28  29
ATOM     29  N   UNL     1       2.669  14.152  21.527  0.00  0.00    +0.000 NA
ATOM     30  C   UNL     1       4.045  13.784  21.882  0.00  0.00    +0.000 C 
BRANCH  29  31
ATOM     31  C   UNL     1       2.433  15.613  21.666  0.00  0.00    +0.000 C 
ATOM     32  C   UNL     1       1.002  16.010  22.074  0.00  0.00    +0.000 C 
ATOM     33  C   UNL     1       0.435  16.784  20.900  0.00  0.00    +0.000 C 
ATOM     34  N   UNL     1       1.605  17.420  20.306  0.00  0.00    +0.000 NA
ATOM     35  C   UNL     1       1.323  17.851  18.942  0.00  0.00    +0.000 C 
ATOM     36  C   UNL     1       2.647  16.389  20.340  0.00  0.00    +0.000 C 
ENDBRANCH  29  31
ENDBRANCH  28  29
ENDBRANCH   8  28
TORSDOF 7
ENDMDL
MODEL 5
REMARK VINA RESULT:      -6.3      1.452      2.118
REMARK  Name = 
REMARK  10 active torsions:
REMARK  status: ('A' for Active; 'I' for Inactive)
REMARK    1  A    between atoms: C_1  and  O_2
REMARK    2  A    between atoms: O_2  and  C_3
REMARK    3  A    between atoms: C_3  and  C_4
REMARK    4  A    between atoms: C_4  and  N_5
REMARK    5  A    between atoms: C_12  and  C_13
REMARK    6  A    between atoms: C_13  and  N_14
REMARK    7  A    between atoms: N_14  and  C_15
REMARK    8  A    between atoms: N_14  and  C_16
REMARK    9  A    between atoms: N_19  and  C_20
REMARK   10  A    between atoms: C_25  and  C_26
REMARK                            x       y       z     vdW  Elec       q    Type
REMARK                         _______ _______ _______ _____ _____    ______ ____
ROOT
ATOM      1  N   UNL     1      -5.359  11.227  17.860  0.00  0.00    +0.000 N 
ATOM      2  C   UNL     1      -5.037  11.833  19.069  0.00  0.00    +0.000 A 
ATOM      3  N   UNL     1      -3.781  12.193  19.323  0.00  0.00    +0.000 NA
ATOM      4  C   UNL     1      -3.399  12.827  20.478  0.00  0.00    +0.000 A 
ATOM      5  N   UNL     1      -2.054  13.136  20.585  0.00  0.00    +0.000 N 
ATOM      6  C   UNL     1      -1.219  13.102  19.385  0.00  0.00    +0.000 C 
ATOM      7  C   UNL     1      -0.344  11.846  19.421  0.00  0.00    +0.000 C 
ATOM      8  C   UNL     1       0.553  11.766  20.677  0.00  0.00    +0.000 C 
ATOM      9  C   UNL     1      -0.319  11.925  21.924  0.00  0.00    +0.000 C 
ATOM     10  C   UNL     1      -1.324  13.064  21.849  0.00  0.00    +0.000 C 
ATOM     11  C   UNL     1      -4.452  13.125  21.399  0.00  0.00    +0.000 A 
ATOM     12  C   UNL     1      -4.589  13.872  22.674  0.00  0.00    +0.000 A 
ATOM     13  C   UNL     1      -5.893  13.815  23.134  0.00  0.00    +0.000 A 
ATOM     14  S   UNL     1      -6.951  12.972  22.122  0.00  0.00    +0.000 S 
ATOM     15  C   UNL     1      -5.705  12.659  21.018  0.00  0.00    +0.000 A 
ATOM     16  N   UNL     1      -6.039  12.005  19.896  0.00  0.00    +0.000 NA
ATOM     17  H   UNL     1      -6.242  10.746  17.984  0.00  0.00    +0.000 HD
ENDROOT
BRANCH  12  18
ATOM     18  C   UNL     1      -3.655  14.703  23.463  0.00  0.00    +0.000 A 
ATOM     19  C   UNL     1      -3.235  15.963  23.021  0.00  0.00    +0.000 A 
ATOM     20  C   UNL     1      -2.411  16.769  23.814  0.00  0.00    +0.000 A 
ATOM     21  C   UNL     1      -2.089  16.379  25.109  0.00  0.00    +0.000 A 
ATOM     22  C   UNL     1      -2.511  15.140  25.578  0.00  0.00    +0.000 A 
ATOM     23  C   UNL     1      -3.247  14.295  24.747  0.00  0.00    +0.000 A 
ENDBRANCH  12  18
BRANCH   1  24
ATOM     24  C   UNL     1      -4.329  10.397  17.257  0.00  0.00    +0.000 C 
BRANCH  24  25
ATOM     25  C   UNL     1      -3.834  11.020  15.948  0.00  0.00    +0.000 C 
BRANCH  25  27
ATOM     26  C   UNL     1      -1.960   9.882  16.811  0.00  0.00    +0.000 C 
ATOM     27  O   UNL     1      -2.482  10.608  15.707  0.00  0.00    +0.000 OA
ENDBRANCH  25  27
ENDBRANCH  24  25
ENDBRANCH   1  24
BRANCH   8  28
ATOM     28  C   UNL     1       1.732  12.766  20.631  0.00  0.00    +0.000 C 
BRANCH  28  29
ATOM     29  N   UNL     1       1.371  14.209  20.545  0.00  0.00    +0.000 NA
ATOM     30  C   UNL     1       1.878  14.969  21.694  0.00  0.00    +0.000 C 
BRANCH  29  31
ATOM     31  C   UNL     1       1.836  14.782  19.255  0.00  0.00    +0.000 C 
ATOM     32  C   UNL     1       2.735  13.857  18.414  0.00  0.00    +0.000 C 
ATOM     33  C   UNL     1       4.089  14.539  18.351  0.00  0.00    +0.000 C 
ATOM     34  N   UNL     1       3.765  15.959  18.423  0.00  0.00    +0.000 NA
ATOM     35  C   UNL     1       4.939  16.738  18.800  0.00  0.00    +0.000 C 
ATOM     36  C   UNL     1       2.711  16.050  19.437  0.00  0.00    +0.000 C 
ENDBRANCH  29  31
ENDBRANCH  28  29
ENDBRANCH   8  28
TORSDOF 7
ENDMDL
MODEL 6
REMARK VINA RESULT:      -6.2      3.385      6.865
REMARK  Name = 
REMARK  10 active torsions:
REMARK  status: ('A' for Active; 'I' for Inactive)
REMARK    1  A    between atoms: C_1  and  O_2
REMARK    2  A    between atoms: O_2  and  C_3
REMARK    3  A    between atoms: C_3  and  C_4
REMARK    4  A    between atoms: C_4  and  N_5
REMARK    5  A    between atoms: C_12  and  C_13
REMARK    6  A    between atoms: C_13  and  N_14
REMARK    7  A    between atoms: N_14  and  C_15
REMARK    8  A    between atoms: N_14  and  C_16
REMARK    9  A    between atoms: N_19  and  C_20
REMARK   10  A    between atoms: C_25  and  C_26
REMARK                            x       y       z     vdW  Elec       q    Type
REMARK                         _______ _______ _______ _____ _____    ______ ____
ROOT
ATOM      1  N   UNL     1      -5.628  14.753  23.003  0.00  0.00    +0.000 N 
ATOM      2  C   UNL     1      -5.433  14.152  21.765  0.00  0.00    +0.000 A 
ATOM      3  N   UNL     1      -4.246  13.638  21.451  0.00  0.00    +0.000 NA
ATOM      4  C   UNL     1      -3.994  13.000  20.263  0.00  0.00    +0.000 A 
ATOM      5  N   UNL     1      -2.708  12.520  20.093  0.00  0.00    +0.000 N 
ATOM      6  C   UNL     1      -1.833  12.401  21.259  0.00  0.00    +0.000 C 
ATOM      7  C   UNL     1      -0.799  13.530  21.225  0.00  0.00    +0.000 C 
ATOM      8  C   UNL     1       0.055  13.534  19.937  0.00  0.00    +0.000 C 
ATOM      9  C   UNL     1      -0.875  13.536  18.722  0.00  0.00    +0.000 C 
ATOM     10  C   UNL     1      -2.020  12.538  18.804  0.00  0.00    +0.000 C 
ATOM     11  C   UNL     1      -5.110  12.876  19.376  0.00  0.00    +0.000 A 
ATOM     12  C   UNL     1      -5.391  12.198  18.086  0.00  0.00    +0.000 A 
ATOM     13  C   UNL     1      -6.691  12.444  17.681  0.00  0.00    +0.000 A 
ATOM     14  S   UNL     1      -7.590  13.384  18.758  0.00  0.00    +0.000 S 
ATOM     15  C   UNL     1      -6.275  13.491  19.821  0.00  0.00    +0.000 A 
ATOM     16  N   UNL     1      -6.478  14.144  20.974  0.00  0.00    +0.000 NA
ATOM     17  H   UNL     1      -6.443  15.352  22.929  0.00  0.00    +0.000 HD
ENDROOT
BRANCH  12  18
ATOM     18  C   UNL     1      -4.606  11.279  17.236  0.00  0.00    +0.000 A 
ATOM     19  C   UNL     1      -4.313  11.576  15.900  0.00  0.00    +0.000 A 
ATOM     20  C   UNL     1      -3.506  10.732  15.131  0.00  0.00    +0.000 A 
ATOM     21  C   UNL     1      -2.882   9.636  15.719  0.00  0.00    +0.000 A 
ATOM     22  C   UNL     1      -3.141   9.331  17.050  0.00  0.00    +0.000 A 
ATOM     23  C   UNL     1      -4.029  10.118  17.785  0.00  0.00    +0.000 A 
ENDBRANCH  12  18
BRANCH   1  24
ATOM     24  C   UNL     1      -4.475  15.419  23.589  0.00  0.00    +0.000 C 
BRANCH  24  25
ATOM     25  C   UNL     1      -4.901  16.281  24.781  0.00  0.00    +0.000 C 
BRANCH  25  27
ATOM     26  C   UNL     1      -4.865  18.629  24.977  0.00  0.00    +0.000 C 
ATOM     27  O   UNL     1      -4.078  17.454  24.838  0.00  0.00    +0.000 OA
ENDBRANCH  25  27
ENDBRANCH  24  25
ENDBRANCH   1  24
BRANCH   8  28
ATOM     28  C   UNL     1       1.090  12.385  19.907  0.00  0.00    +0.000 C 
BRANCH  28  29
ATOM     29  N   UNL     1       1.299  11.719  18.590  0.00  0.00    +0.000 NA
ATOM     30  C   UNL     1       2.701  11.785  18.160  0.00  0.00    +0.000 C 
BRANCH  29  31
ATOM     31  C   UNL     1       0.799  10.320  18.635  0.00  0.00    +0.000 C 
ATOM     32  C   UNL     1       0.677   9.713  20.045  0.00  0.00    +0.000 C 
ATOM     33  C   UNL     1       1.674   8.572  20.094  0.00  0.00    +0.000 C 
ATOM     34  N   UNL     1       1.729   8.100  18.715  0.00  0.00    +0.000 NA
ATOM     35  C   UNL     1       2.930   7.303  18.489  0.00  0.00    +0.000 C 
ATOM     36  C   UNL     1       1.734   9.321  17.904  0.00  0.00    +0.000 C 
ENDBRANCH  29  31
ENDBRANCH  28  29
ENDBRANCH   8  28
TORSDOF 7
ENDMDL
MODEL 7
REMARK VINA RESULT:      -6.2      1.839      2.936
REMARK  Name = 
REMARK  10 active torsions:
REMARK  status: ('A' for Active; 'I' for Inactive)
REMARK    1  A    between atoms: C_1  and  O_2
REMARK    2  A    between atoms: O_2  and  C_3
REMARK    3  A    between atoms: C_3  and  C_4
REMARK    4  A    between atoms: C_4  and  N_5
REMARK    5  A    between atoms: C_12  and  C_13
REMARK    6  A    between atoms: C_13  and  N_14
REMARK    7  A    between atoms: N_14  and  C_15
REMARK    8  A    between atoms: N_14  and  C_16
REMARK    9  A    between atoms: N_19  and  C_20
REMARK   10  A    between atoms: C_25  and  C_26
REMARK                            x       y       z     vdW  Elec       q    Type
REMARK                         _______ _______ _______ _____ _____    ______ ____
ROOT
ATOM      1  N   UNL     1      -5.230  11.433  18.449  0.00  0.00    +0.000 N 
ATOM      2  C   UNL     1      -4.728  12.093  19.565  0.00  0.00    +0.000 A 
ATOM      3  N   UNL     1      -3.472  12.534  19.572  0.00  0.00    +0.000 NA
ATOM      4  C   UNL     1      -2.924  13.224  20.623  0.00  0.00    +0.000 A 
ATOM      5  N   UNL     1      -1.605  13.615  20.470  0.00  0.00    +0.000 N 
ATOM      6  C   UNL     1      -1.007  13.595  19.136  0.00  0.00    +0.000 C 
ATOM      7  C   UNL     1      -0.062  12.395  19.029  0.00  0.00    +0.000 C 
ATOM      8  C   UNL     1       1.056  12.406  20.096  0.00  0.00    +0.000 C 
ATOM      9  C   UNL     1       0.423  12.549  21.482  0.00  0.00    +0.000 C 
ATOM     10  C   UNL     1      -0.649  13.624  21.575  0.00  0.00    +0.000 C 
ATOM     11  C   UNL     1      -3.803  13.487  21.719  0.00  0.00    +0.000 A 
ATOM     12  C   UNL     1      -3.748  14.262  22.984  0.00  0.00    +0.000 A 
ATOM     13  C   UNL     1      -4.938  14.141  23.681  0.00  0.00    +0.000 A 
ATOM     14  S   UNL     1      -6.109  13.207  22.902  0.00  0.00    +0.000 S 
ATOM     15  C   UNL     1      -5.073  12.935  21.589  0.00  0.00    +0.000 A 
ATOM     16  N   UNL     1      -5.568  12.230  20.562  0.00  0.00    +0.000 NA
ATOM     17  H   UNL     1      -6.043  10.904  18.746  0.00  0.00    +0.000 HD
ENDROOT
BRANCH  12  18
ATOM     18  C   UNL     1      -2.739  15.170  23.568  0.00  0.00    +0.000 A 
ATOM     19  C   UNL     1      -2.503  16.447  23.045  0.00  0.00    +0.000 A 
ATOM     20  C   UNL     1      -1.600  17.323  23.655  0.00  0.00    +0.000 A 
ATOM     21  C   UNL     1      -1.002  16.981  24.863  0.00  0.00    +0.000 A 
ATOM     22  C   UNL     1      -1.235  15.726  25.414  0.00  0.00    +0.000 A 
ATOM     23  C   UNL     1      -2.058  14.816  24.749  0.00  0.00    +0.000 A 
ENDBRANCH  12  18
BRANCH   1  24
ATOM     24  C   UNL     1      -4.280  10.647  17.679  0.00  0.00    +0.000 C 
BRANCH  24  25
ATOM     25  C   UNL     1      -4.090  11.250  16.283  0.00  0.00    +0.000 C 
BRANCH  25  27
ATOM     26  C   UNL     1      -2.055  10.158  16.750  0.00  0.00    +0.000 C 
ATOM     27  O   UNL     1      -2.783  10.919  15.796  0.00  0.00    +0.000 OA
ENDBRANCH  25  27
ENDBRANCH  24  25
ENDBRANCH   1  24
BRANCH   8  28
ATOM     28  C   UNL     1       2.140  13.472  19.811  0.00  0.00    +0.000 C 
BRANCH  28  29
ATOM     29  N   UNL     1       2.486  14.379  20.941  0.00  0.00    +0.000 NA
ATOM     30  C   UNL     1       3.830  14.110  21.467  0.00  0.00    +0.000 C 
BRANCH  29  31
ATOM     31  C   UNL     1       2.328  15.799  20.530  0.00  0.00    +0.000 C 
ATOM     32  C   UNL     1       1.359  16.627  21.395  0.00  0.00    +0.000 C 
ATOM     33  C   UNL     1       0.210  17.010  20.482  0.00  0.00    +0.000 C 
ATOM     34  N   UNL     1       0.830  17.100  19.164  0.00  0.00    +0.000 NA
ATOM     35  C   UNL     1      -0.180  17.038  18.113  0.00  0.00    +0.000 C 
ATOM     36  C   UNL     1       1.740  15.953  19.102  0.00  0.00    +0.000 C 
ENDBRANCH  29  31
ENDBRANCH  28  29
ENDBRANCH   8  28
TORSDOF 7
ENDMDL
MODEL 8
REMARK VINA RESULT:      -6.2      4.091      7.126
REMARK  Name = 
REMARK  10 active torsions:
REMARK  status: ('A' for Active; 'I' for Inactive)
REMARK    1  A    between atoms: C_1  and  O_2
REMARK    2  A    between atoms: O_2  and  C_3
REMARK    3  A    between atoms: C_3  and  C_4
REMARK    4  A    between atoms: C_4  and  N_5
REMARK    5  A    between atoms: C_12  and  C_13
REMARK    6  A    between atoms: C_13  and  N_14
REMARK    7  A    between atoms: N_14  and  C_15
REMARK    8  A    between atoms: N_14  and  C_16
REMARK    9  A    between atoms: N_19  and  C_20
REMARK   10  A    between atoms: C_25  and  C_26
REMARK                            x       y       z     vdW  Elec       q    Type
REMARK                         _______ _______ _______ _____ _____    ______ ____
ROOT
ATOM      1  N   UNL     1      -4.533  14.071  20.708  0.00  0.00    +0.000 N 
ATOM      2  C   UNL     1      -3.178  14.373  20.642  0.00  0.00    +0.000 A 
ATOM      3  N   UNL     1      -2.319  13.486  20.145  0.00  0.00    +0.000 NA
ATOM      4  C   UNL     1      -0.975  13.731  20.017  0.00  0.00    +0.000 A 
ATOM      5  N   UNL     1      -0.220  12.705  19.478  0.00  0.00    +0.000 N 
ATOM      6  C   UNL     1      -0.897  11.614  18.779  0.00  0.00    +0.000 C 
ATOM      7  C   UNL     1      -0.899  10.371  19.673  0.00  0.00    +0.000 C 
ATOM      8  C   UNL     1       0.520   9.918  20.085  0.00  0.00    +0.000 C 
ATOM      9  C   UNL     1       1.262  11.103  20.706  0.00  0.00    +0.000 C 
ATOM     10  C   UNL     1       1.138  12.402  19.926  0.00  0.00    +0.000 C 
ATOM     11  C   UNL     1      -0.541  15.035  20.416  0.00  0.00    +0.000 A 
ATOM     12  C   UNL     1       0.722  15.812  20.366  0.00  0.00    +0.000 A 
ATOM     13  C   UNL     1       0.545  17.064  20.928  0.00  0.00    +0.000 A 
ATOM     14  S   UNL     1      -1.028  17.372  21.462  0.00  0.00    +0.000 S 
ATOM     15  C   UNL     1      -1.541  15.841  20.948  0.00  0.00    +0.000 A 
ATOM     16  N   UNL     1      -2.843  15.556  21.097  0.00  0.00    +0.000 NA
ATOM     17  H   UNL     1      -4.953  14.694  21.389  0.00  0.00    +0.000 HD
ENDROOT
BRANCH  12  18
ATOM     18  C   UNL     1       2.050  15.545  19.774  0.00  0.00    +0.000 A 
ATOM     19  C   UNL     1       3.155  15.206  20.563  0.00  0.00    +0.000 A 
ATOM     20  C   UNL     1       4.386  14.882  19.983  0.00  0.00    +0.000 A 
ATOM     21  C   UNL     1       4.501  14.779  18.601  0.00  0.00    +0.000 A 
ATOM     22  C   UNL     1       3.411  15.091  17.796  0.00  0.00    +0.000 A 
ATOM     23  C   UNL     1       2.214  15.513  18.376  0.00  0.00    +0.000 A 
ENDBRANCH  12  18
BRANCH   1  24
ATOM     24  C   UNL     1      -4.876  12.674  20.916  0.00  0.00    +0.000 C 
BRANCH  24  25
ATOM     25  C   UNL     1      -5.975  12.542  21.974  0.00  0.00    +0.000 C 
BRANCH  25  27
ATOM     26  C   UNL     1      -7.229  11.645  20.192  0.00  0.00    +0.000 C 
ATOM     27  O   UNL     1      -6.905  11.527  21.571  0.00  0.00    +0.000 OA
ENDBRANCH  25  27
ENDBRANCH  24  25
ENDBRANCH   1  24
BRANCH   8  28
ATOM     28  C   UNL     1       1.296   9.260  18.920  0.00  0.00    +0.000 C 
BRANCH  28  29
ATOM     29  N   UNL     1       2.192   8.125  19.281  0.00  0.00    +0.000 NA
ATOM     30  C   UNL     1       1.670   7.356  20.417  0.00  0.00    +0.000 C 
BRANCH  29  31
ATOM     31  C   UNL     1       2.436   7.263  18.095  0.00  0.00    +0.000 C 
ATOM     32  C   UNL     1       2.290   5.750  18.344  0.00  0.00    +0.000 C 
ATOM     33  C   UNL     1       3.670   5.159  18.130  0.00  0.00    +0.000 C 
ATOM     34  N   UNL     1       4.273   6.037  17.133  0.00  0.00    +0.000 NA
ATOM     35  C   UNL     1       5.723   5.883  17.118  0.00  0.00    +0.000 C 
ATOM     36  C   UNL     1       3.881   7.389  17.543  0.00  0.00    +0.000 C 
ENDBRANCH  29  31
ENDBRANCH  28  29
ENDBRANCH   8  28
TORSDOF 7
ENDMDL
MODEL 9
REMARK VINA RESULT:      -6.1      1.361      1.811
REMARK  Name = 
REMARK  10 active torsions:
REMARK  status: ('A' for Active; 'I' for Inactive)
REMARK    1  A    between atoms: C_1  and  O_2
REMARK    2  A    between atoms: O_2  and  C_3
REMARK    3  A    between atoms: C_3  and  C_4
REMARK    4  A    between atoms: C_4  and  N_5
REMARK    5  A    between atoms: C_12  and  C_13
REMARK    6  A    between atoms: C_13  and  N_14
REMARK    7  A    between atoms: N_14  and  C_15
REMARK    8  A    between atoms: N_14  and  C_16
REMARK    9  A    between atoms: N_19  and  C_20
REMARK   10  A    between atoms: C_25  and  C_26
REMARK                            x       y       z     vdW  Elec       q    Type
REMARK                         _______ _______ _______ _____ _____    ______ ____
ROOT
ATOM      1  N   UNL     1      -4.760  11.047  17.372  0.00  0.00    +0.000 N 
ATOM      2  C   UNL     1      -4.699  11.615  18.639  0.00  0.00    +0.000 A 
ATOM      3  N   UNL     1      -3.575  12.189  19.062  0.00  0.00    +0.000 NA
ATOM      4  C   UNL     1      -3.456  12.799  20.285  0.00  0.00    +0.000 A 
ATOM      5  N   UNL     1      -2.219  13.351  20.569  0.00  0.00    +0.000 N 
ATOM      6  C   UNL     1      -1.267  13.564  19.481  0.00  0.00    +0.000 C 
ATOM      7  C   UNL     1      -0.169  12.500  19.561  0.00  0.00    +0.000 C 
ATOM      8  C   UNL     1       0.582  12.502  20.912  0.00  0.00    +0.000 C 
ATOM      9  C   UNL     1      -0.436  12.401  22.049  0.00  0.00    +0.000 C 
ATOM     10  C   UNL     1      -1.632  13.329  21.908  0.00  0.00    +0.000 C 
ATOM     11  C   UNL     1      -4.642  12.824  21.084  0.00  0.00    +0.000 A 
ATOM     12  C   UNL     1      -5.063  13.437  22.368  0.00  0.00    +0.000 A 
ATOM     13  C   UNL     1      -6.373  13.099  22.662  0.00  0.00    +0.000 A 
ATOM     14  S   UNL     1      -7.125  12.144  21.489  0.00  0.00    +0.000 S 
ATOM     15  C   UNL     1      -5.728  12.155  20.530  0.00  0.00    +0.000 A 
ATOM     16  N   UNL     1      -5.800  11.532  19.346  0.00  0.00    +0.000 NA
ATOM     17  H   UNL     1      -5.538  10.397  17.364  0.00  0.00    +0.000 HD
ENDROOT
BRANCH  12  18
ATOM     18  C   UNL     1      -4.405  14.373  23.305  0.00  0.00    +0.000 A 
ATOM     19  C   UNL     1      -3.763  13.926  24.465  0.00  0.00    +0.000 A 
ATOM     20  C   UNL     1      -3.081  14.815  25.301  0.00  0.00    +0.000 A 
ATOM     21  C   UNL     1      -2.931  16.147  24.931  0.00  0.00    +0.000 A 
ATOM     22  C   UNL     1      -3.543  16.611  23.772  0.00  0.00    +0.000 A 
ATOM     23  C   UNL     1      -4.309  15.743  22.994  0.00  0.00    +0.000 A 
ENDBRANCH  12  18
BRANCH   1  24
ATOM     24  C   UNL     1      -3.526  10.474  16.860  0.00  0.00    +0.000 C 
BRANCH  24  25
ATOM     25  C   UNL     1      -3.234  11.000  15.450  0.00  0.00    +0.000 C 
BRANCH  25  27
ATOM     26  C   UNL     1      -3.711   9.933  13.405  0.00  0.00    +0.000 C 
ATOM     27  O   UNL     1      -2.923   9.898  14.587  0.00  0.00    +0.000 OA
ENDBRANCH  25  27
ENDBRANCH  24  25
ENDBRANCH   1  24
BRANCH   8  28
ATOM     28  C   UNL     1       1.537  13.710  21.058  0.00  0.00    +0.000 C 
BRANCH  28  29
ATOM     29  N   UNL     1       2.904  13.544  20.488  0.00  0.00    +0.000 NA
ATOM     30  C   UNL     1       2.957  13.932  19.073  0.00  0.00    +0.000 C 
BRANCH  29  31
ATOM     31  C   UNL     1       3.898  14.290  21.304  0.00  0.00    +0.000 C 
ATOM     32  C   UNL     1       3.306  15.360  22.240  0.00  0.00    +0.000 C 
ATOM     33  C   UNL     1       3.830  16.690  21.734  0.00  0.00    +0.000 C 
ATOM     34  N   UNL     1       5.128  16.355  21.159  0.00  0.00    +0.000 NA
ATOM     35  C   UNL     1       5.583  17.410  20.260  0.00  0.00    +0.000 C 
ATOM     36  C   UNL     1       4.903  15.097  20.441  0.00  0.00    +0.000 C 
ENDBRANCH  29  31
ENDBRANCH  28  29
ENDBRANCH   8  28
TORSDOF 7
ENDMDL
