MODEL 1
REMARK VINA RESULT:      -7.1      0.000      0.000
REMARK  Name = 
REMARK  2 active torsions:
REMARK  status: ('A' for Active; 'I' for Inactive)
REMARK    1  A    between atoms: C_1  and  N_2
REMARK    2  A    between atoms: C_3  and  C_4
REMARK                            x       y       z     vdW  Elec       q    Type
REMARK                         _______ _______ _______ _____ _____    ______ ____
ROOT
ATOM      1  C   UNL     1       2.575   6.667  18.708  0.00  0.00    +0.000 A 
ATOM      2  C   UNL     1       1.945   5.524  18.413  0.00  0.00    +0.000 A 
ATOM      3  C   UNL     1       2.656   4.511  17.620  0.00  0.00    +0.000 A 
ATOM      4  O   UNL     1       2.128   3.444  17.339  0.00  0.00    +0.000 OA
ATOM      5  C   UNL     1       4.032   4.842  17.211  0.00  0.00    +0.000 A 
ATOM      6  C   UNL     1       4.805   3.924  16.495  0.00  0.00    +0.000 A 
ATOM      7  C   UNL     1       6.105   4.263  16.120  0.00  0.00    +0.000 A 
ATOM      8  C   UNL     1       6.622   5.518  16.453  0.00  0.00    +0.000 A 
ATOM      9  C   UNL     1       5.847   6.430  17.171  0.00  0.00    +0.000 A 
ATOM     10  C   UNL     1       4.552   6.087  17.558  0.00  0.00    +0.000 A 
ATOM     11  O   UNL     1       3.848   7.010  18.294  0.00  0.00    +0.000 OA
ENDROOT
BRANCH   1  14
ATOM     12  C   UNL     1       1.801   9.355  17.647  0.00  0.00    +0.000 C 
ATOM     13  N   UNL     1       1.589   8.877  18.999  0.00  0.00    +0.000 N 
ATOM     14  C   UNL     1       1.938   7.639  19.514  0.00  0.00    +0.000 A 
ATOM     15  C   UNL     1       1.545   7.615  20.841  0.00  0.00    +0.000 A 
ATOM     16  C   UNL     1       0.958   8.863  21.131  0.00  0.00    +0.000 A 
ATOM     17 BR   UNL     1       0.273   9.298  22.823  0.00  0.00    +0.000 Br
ATOM     18  C   UNL     1       0.995   9.625  19.992  0.00  0.00    +0.000 A 
ATOM     19 BR   UNL     1       0.350  11.376  19.821  0.00  0.00    +0.000 Br
ENDBRANCH   1  14
TORSDOF 1
ENDMDL
MODEL 2
REMARK VINA RESULT:      -6.7      2.899      4.454
REMARK  Name = 
REMARK  2 active torsions:
REMARK  status: ('A' for Active; 'I' for Inactive)
REMARK    1  A    between atoms: C_1  and  N_2
REMARK    2  A    between atoms: C_3  and  C_4
REMARK                            x       y       z     vdW  Elec       q    Type
REMARK                         _______ _______ _______ _____ _____    ______ ____
ROOT
ATOM      1  C   UNL     1       5.048   4.854  17.348  0.00  0.00    +0.000 A 
ATOM      2  C   UNL     1       6.075   5.703  17.466  0.00  0.00    +0.000 A 
ATOM      3  C   UNL     1       6.972   5.889  16.316  0.00  0.00    +0.000 A 
ATOM      4  O   UNL     1       7.916   6.666  16.369  0.00  0.00    +0.000 OA
ATOM      5  C   UNL     1       6.657   5.113  15.104  0.00  0.00    +0.000 A 
ATOM      6  C   UNL     1       7.424   5.257  13.944  0.00  0.00    +0.000 A 
ATOM      7  C   UNL     1       7.104   4.510  12.809  0.00  0.00    +0.000 A 
ATOM      8  C   UNL     1       6.028   3.619  12.842  0.00  0.00    +0.000 A 
ATOM      9  C   UNL     1       5.264   3.480  14.002  0.00  0.00    +0.000 A 
ATOM     10  C   UNL     1       5.574   4.237  15.132  0.00  0.00    +0.000 A 
ATOM     11  O   UNL     1       4.767   4.087  16.234  0.00  0.00    +0.000 OA
ENDROOT
BRANCH   1  14
ATOM     12  C   UNL     1       3.181   7.035  18.184  0.00  0.00    +0.000 C 
ATOM     13  N   UNL     1       3.281   5.720  18.786  0.00  0.00    +0.000 N 
ATOM     14  C   UNL     1       4.137   4.694  18.417  0.00  0.00    +0.000 A 
ATOM     15  C   UNL     1       3.889   3.623  19.259  0.00  0.00    +0.000 A 
ATOM     16  C   UNL     1       2.872   4.015  20.154  0.00  0.00    +0.000 A 
ATOM     17 BR   UNL     1       2.201   2.883  21.491  0.00  0.00    +0.000 Br
ATOM     18  C   UNL     1       2.514   5.303  19.851  0.00  0.00    +0.000 A 
ATOM     19 BR   UNL     1       1.207   6.314  20.735  0.00  0.00    +0.000 Br
ENDBRANCH   1  14
TORSDOF 1
ENDMDL
MODEL 3
REMARK VINA RESULT:      -6.7      0.707      1.866
REMARK  Name = 
REMARK  2 active torsions:
REMARK  status: ('A' for Active; 'I' for Inactive)
REMARK    1  A    between atoms: C_1  and  N_2
REMARK    2  A    between atoms: C_3  and  C_4
REMARK                            x       y       z     vdW  Elec       q    Type
REMARK                         _______ _______ _______ _____ _____    ______ ____
ROOT
ATOM      1  C   UNL     1       2.801   6.884  18.078  0.00  0.00    +0.000 A 
ATOM      2  C   UNL     1       2.226   5.678  17.991  0.00  0.00    +0.000 A 
ATOM      3  C   UNL     1       3.006   4.564  17.434  0.00  0.00    +0.000 A 
ATOM      4  O   UNL     1       2.531   3.441  17.348  0.00  0.00    +0.000 OA
ATOM      5  C   UNL     1       4.384   4.872  17.012  0.00  0.00    +0.000 A 
ATOM      6  C   UNL     1       5.219   3.868  16.513  0.00  0.00    +0.000 A 
ATOM      7  C   UNL     1       6.520   4.186  16.122  0.00  0.00    +0.000 A 
ATOM      8  C   UNL     1       6.976   5.503  16.221  0.00  0.00    +0.000 A 
ATOM      9  C   UNL     1       6.139   6.502  16.722  0.00  0.00    +0.000 A 
ATOM     10  C   UNL     1       4.843   6.182  17.128  0.00  0.00    +0.000 A 
ATOM     11  O   UNL     1       4.075   7.197  17.647  0.00  0.00    +0.000 OA
ENDROOT
BRANCH   1  14
ATOM     12  C   UNL     1       1.850   6.818  20.913  0.00  0.00    +0.000 C 
ATOM     13  N   UNL     1       1.665   7.909  19.975  0.00  0.00    +0.000 N 
ATOM     14  C   UNL     1       2.095   7.963  18.659  0.00  0.00    +0.000 A 
ATOM     15  C   UNL     1       1.704   9.187  18.145  0.00  0.00    +0.000 A 
ATOM     16  C   UNL     1       1.021   9.877  19.166  0.00  0.00    +0.000 A 
ATOM     17 BR   UNL     1       0.300  11.593  18.930  0.00  0.00    +0.000 Br
ATOM     18  C   UNL     1       1.004   9.078  20.281  0.00  0.00    +0.000 A 
ATOM     19 BR   UNL     1       0.219   9.507  21.927  0.00  0.00    +0.000 Br
ENDBRANCH   1  14
TORSDOF 1
ENDMDL
MODEL 4
REMARK VINA RESULT:      -6.7      2.867      4.558
REMARK  Name = 
REMARK  2 active torsions:
REMARK  status: ('A' for Active; 'I' for Inactive)
REMARK    1  A    between atoms: C_1  and  N_2
REMARK    2  A    between atoms: C_3  and  C_4
REMARK                            x       y       z     vdW  Elec       q    Type
REMARK                         _______ _______ _______ _____ _____    ______ ____
ROOT
ATOM      1  C   UNL     1       4.896   5.355  17.444  0.00  0.00    +0.000 A 
ATOM      2  C   UNL     1       5.993   6.116  17.530  0.00  0.00    +0.000 A 
ATOM      3  C   UNL     1       6.942   6.114  16.407  0.00  0.00    +0.000 A 
ATOM      4  O   UNL     1       7.951   6.804  16.431  0.00  0.00    +0.000 OA
ATOM      5  C   UNL     1       6.597   5.262  15.256  0.00  0.00    +0.000 A 
ATOM      6  C   UNL     1       7.412   5.229  14.121  0.00  0.00    +0.000 A 
ATOM      7  C   UNL     1       7.062   4.413  13.044  0.00  0.00    +0.000 A 
ATOM      8  C   UNL     1       5.907   3.629  13.110  0.00  0.00    +0.000 A 
ATOM      9  C   UNL     1       5.095   3.667  14.245  0.00  0.00    +0.000 A 
ATOM     10  C   UNL     1       5.436   4.493  15.316  0.00  0.00    +0.000 A 
ATOM     11  O   UNL     1       4.581   4.519  16.391  0.00  0.00    +0.000 OA
ENDROOT
BRANCH   1  14
ATOM     12  C   UNL     1       4.357   2.965  19.159  0.00  0.00    +0.000 C 
ATOM     13  N   UNL     1       3.706   4.256  19.265  0.00  0.00    +0.000 N 
ATOM     14  C   UNL     1       3.938   5.377  18.484  0.00  0.00    +0.000 A 
ATOM     15  C   UNL     1       3.099   6.380  18.938  0.00  0.00    +0.000 A 
ATOM     16  C   UNL     1       2.344   5.851  20.005  0.00  0.00    +0.000 A 
ATOM     17 BR   UNL     1       1.061   6.851  20.940  0.00  0.00    +0.000 Br
ATOM     18  C   UNL     1       2.727   4.547  20.190  0.00  0.00    +0.000 A 
ATOM     19 BR   UNL     1       2.038   3.373  21.477  0.00  0.00    +0.000 Br
ENDBRANCH   1  14
TORSDOF 1
ENDMDL
MODEL 5
REMARK VINA RESULT:      -6.7      1.485      2.544
REMARK  Name = 
REMARK  2 active torsions:
REMARK  status: ('A' for Active; 'I' for Inactive)
REMARK    1  A    between atoms: C_1  and  N_2
REMARK    2  A    between atoms: C_3  and  C_4
REMARK                            x       y       z     vdW  Elec       q    Type
REMARK                         _______ _______ _______ _____ _____    ______ ____
ROOT
ATOM      1  C   UNL     1       2.386   6.678  19.266  0.00  0.00    +0.000 A 
ATOM      2  C   UNL     1       3.321   6.923  18.341  0.00  0.00    +0.000 A 
ATOM      3  C   UNL     1       3.946   5.785  17.652  0.00  0.00    +0.000 A 
ATOM      4  O   UNL     1       4.795   5.958  16.788  0.00  0.00    +0.000 OA
ATOM      5  C   UNL     1       3.479   4.443  18.039  0.00  0.00    +0.000 A 
ATOM      6  C   UNL     1       3.979   3.302  17.407  0.00  0.00    +0.000 A 
ATOM      7  C   UNL     1       3.519   2.042  17.793  0.00  0.00    +0.000 A 
ATOM      8  C   UNL     1       2.570   1.929  18.813  0.00  0.00    +0.000 A 
ATOM      9  C   UNL     1       2.072   3.073  19.440  0.00  0.00    +0.000 A 
ATOM     10  C   UNL     1       2.520   4.333  19.045  0.00  0.00    +0.000 A 
ATOM     11  O   UNL     1       1.969   5.424  19.671  0.00  0.00    +0.000 OA
ENDROOT
BRANCH   1  14
ATOM     12  C   UNL     1       1.785   9.245  17.854  0.00  0.00    +0.000 C 
ATOM     13  N   UNL     1       1.460   8.932  19.232  0.00  0.00    +0.000 N 
ATOM     14  C   UNL     1       1.728   7.752  19.908  0.00  0.00    +0.000 A 
ATOM     15  C   UNL     1       1.241   7.892  21.196  0.00  0.00    +0.000 A 
ATOM     16  C   UNL     1       0.679   9.180  21.300  0.00  0.00    +0.000 A 
ATOM     17 BR   UNL     1      -0.107   9.825  22.876  0.00  0.00    +0.000 Br
ATOM     18  C   UNL     1       0.825   9.805  20.088  0.00  0.00    +0.000 A 
ATOM     19 BR   UNL     1       0.255  11.541  19.673  0.00  0.00    +0.000 Br
ENDBRANCH   1  14
TORSDOF 1
ENDMDL
MODEL 6
REMARK VINA RESULT:      -6.6      3.488      6.692
REMARK  Name = 
REMARK  2 active torsions:
REMARK  status: ('A' for Active; 'I' for Inactive)
REMARK    1  A    between atoms: C_1  and  N_2
REMARK    2  A    between atoms: C_3  and  C_4
REMARK                            x       y       z     vdW  Elec       q    Type
REMARK                         _______ _______ _______ _____ _____    ______ ____
ROOT
ATOM      1  C   UNL     1       2.140   7.895  18.726  0.00  0.00    +0.000 A 
ATOM      2  C   UNL     1       1.523   8.793  17.950  0.00  0.00    +0.000 A 
ATOM      3  C   UNL     1       0.655   9.796  18.583  0.00  0.00    +0.000 A 
ATOM      4  O   UNL     1       0.082  10.647  17.917  0.00  0.00    +0.000 OA
ATOM      5  C   UNL     1       0.536   9.731  20.050  0.00  0.00    +0.000 A 
ATOM      6  C   UNL     1      -0.229  10.670  20.747  0.00  0.00    +0.000 A 
ATOM      7  C   UNL     1      -0.324  10.585  22.137  0.00  0.00    +0.000 A 
ATOM      8  C   UNL     1       0.336   9.561  22.820  0.00  0.00    +0.000 A 
ATOM      9  C   UNL     1       1.101   8.626  22.119  0.00  0.00    +0.000 A 
ATOM     10  C   UNL     1       1.208   8.718  20.731  0.00  0.00    +0.000 A 
ATOM     11  O   UNL     1       2.003   7.794  20.097  0.00  0.00    +0.000 OA
ENDROOT
BRANCH   1  14
ATOM     12  C   UNL     1       1.732   4.947  19.027  0.00  0.00    +0.000 C 
ATOM     13  N   UNL     1       2.813   5.591  18.306  0.00  0.00    +0.000 N 
ATOM     14  C   UNL     1       3.023   6.952  18.153  0.00  0.00    +0.000 A 
ATOM     15  C   UNL     1       4.168   7.112  17.391  0.00  0.00    +0.000 A 
ATOM     16  C   UNL     1       4.659   5.826  17.088  0.00  0.00    +0.000 A 
ATOM     17 BR   UNL     1       6.208   5.541  16.068  0.00  0.00    +0.000 Br
ATOM     18  C   UNL     1       3.818   4.905  17.659  0.00  0.00    +0.000 A 
ATOM     19 BR   UNL     1       4.006   3.043  17.570  0.00  0.00    +0.000 Br
ENDBRANCH   1  14
TORSDOF 1
ENDMDL
MODEL 7
REMARK VINA RESULT:      -6.6      3.340      5.113
REMARK  Name = 
REMARK  2 active torsions:
REMARK  status: ('A' for Active; 'I' for Inactive)
REMARK    1  A    between atoms: C_1  and  N_2
REMARK    2  A    between atoms: C_3  and  C_4
REMARK                            x       y       z     vdW  Elec       q    Type
REMARK                         _______ _______ _______ _____ _____    ______ ____
ROOT
ATOM      1  C   UNL     1       4.872   4.460  16.440  0.00  0.00    +0.000 A 
ATOM      2  C   UNL     1       5.849   5.300  16.799  0.00  0.00    +0.000 A 
ATOM      3  C   UNL     1       6.900   5.619  15.822  0.00  0.00    +0.000 A 
ATOM      4  O   UNL     1       7.806   6.393  16.098  0.00  0.00    +0.000 OA
ATOM      5  C   UNL     1       6.786   4.978  14.500  0.00  0.00    +0.000 A 
ATOM      6  C   UNL     1       7.710   5.255  13.489  0.00  0.00    +0.000 A 
ATOM      7  C   UNL     1       7.579   4.635  12.246  0.00  0.00    +0.000 A 
ATOM      8  C   UNL     1       6.533   3.736  12.023  0.00  0.00    +0.000 A 
ATOM      9  C   UNL     1       5.610   3.464  13.035  0.00  0.00    +0.000 A 
ATOM     10  C   UNL     1       5.732   4.095  14.274  0.00  0.00    +0.000 A 
ATOM     11  O   UNL     1       4.776   3.818  15.220  0.00  0.00    +0.000 OA
ENDROOT
BRANCH   1  14
ATOM     12  C   UNL     1       4.160   6.300  18.687  0.00  0.00    +0.000 C 
ATOM     13  N   UNL     1       3.507   5.045  18.372  0.00  0.00    +0.000 N 
ATOM     14  C   UNL     1       3.818   4.176  17.338  0.00  0.00    +0.000 A 
ATOM     15  C   UNL     1       2.939   3.109  17.414  0.00  0.00    +0.000 A 
ATOM     16  C   UNL     1       2.090   3.337  18.516  0.00  0.00    +0.000 A 
ATOM     17 BR   UNL     1       0.728   2.147  19.016  0.00  0.00    +0.000 Br
ATOM     18  C   UNL     1       2.455   4.526  19.094  0.00  0.00    +0.000 A 
ATOM     19 BR   UNL     1       1.656   5.304  20.599  0.00  0.00    +0.000 Br
ENDBRANCH   1  14
TORSDOF 1
ENDMDL
MODEL 8
REMARK VINA RESULT:      -6.5      1.501      3.113
REMARK  Name = 
REMARK  2 active torsions:
REMARK  status: ('A' for Active; 'I' for Inactive)
REMARK    1  A    between atoms: C_1  and  N_2
REMARK    2  A    between atoms: C_3  and  C_4
REMARK                            x       y       z     vdW  Elec       q    Type
REMARK                         _______ _______ _______ _____ _____    ______ ____
ROOT
ATOM      1  C   UNL     1       2.492   7.380  18.332  0.00  0.00    +0.000 A 
ATOM      2  C   UNL     1       3.672   7.440  17.704  0.00  0.00    +0.000 A 
ATOM      3  C   UNL     1       4.286   6.189  17.236  0.00  0.00    +0.000 A 
ATOM      4  O   UNL     1       5.356   6.194  16.644  0.00  0.00    +0.000 OA
ATOM      5  C   UNL     1       3.534   4.950  17.497  0.00  0.00    +0.000 A 
ATOM      6  C   UNL     1       4.013   3.716  17.049  0.00  0.00    +0.000 A 
ATOM      7  C   UNL     1       3.281   2.556  17.309  0.00  0.00    +0.000 A 
ATOM      8  C   UNL     1       2.083   2.634  18.023  0.00  0.00    +0.000 A 
ATOM      9  C   UNL     1       1.607   3.870  18.466  0.00  0.00    +0.000 A 
ATOM     10  C   UNL     1       2.330   5.031  18.194  0.00  0.00    +0.000 A 
ATOM     11  O   UNL     1       1.797   6.222  18.622  0.00  0.00    +0.000 OA
ENDROOT
BRANCH   1  14
ATOM     12  C   UNL     1       1.413   7.723  21.100  0.00  0.00    +0.000 C 
ATOM     13  N   UNL     1       1.359   8.705  20.035  0.00  0.00    +0.000 N 
ATOM     14  C   UNL     1       1.850   8.570  18.746  0.00  0.00    +0.000 A 
ATOM     15  C   UNL     1       1.583   9.750  18.074  0.00  0.00    +0.000 A 
ATOM     16  C   UNL     1       0.912  10.607  18.971  0.00  0.00    +0.000 A 
ATOM     17 BR   UNL     1       0.343  12.331  18.500  0.00  0.00    +0.000 Br
ATOM     18  C   UNL     1       0.781   9.949  20.167  0.00  0.00    +0.000 A 
ATOM     19 BR   UNL     1      -0.040  10.628  21.708  0.00  0.00    +0.000 Br
ENDBRANCH   1  14
TORSDOF 1
ENDMDL
MODEL 9
REMARK VINA RESULT:      -6.4      3.639      6.447
REMARK  Name = 
REMARK  2 active torsions:
REMARK  status: ('A' for Active; 'I' for Inactive)
REMARK    1  A    between atoms: C_1  and  N_2
REMARK    2  A    between atoms: C_3  and  C_4
REMARK                            x       y       z     vdW  Elec       q    Type
REMARK                         _______ _______ _______ _____ _____    ______ ____
ROOT
ATOM      1  C   UNL     1       2.375   7.120  18.655  0.00  0.00    +0.000 A 
ATOM      2  C   UNL     1       2.309   8.124  17.773  0.00  0.00    +0.000 A 
ATOM      3  C   UNL     1       1.760   9.414  18.214  0.00  0.00    +0.000 A 
ATOM      4  O   UNL     1       1.693  10.367  17.449  0.00  0.00    +0.000 OA
ATOM      5  C   UNL     1       1.323   9.498  19.618  0.00  0.00    +0.000 A 
ATOM      6  C   UNL     1       0.831  10.696  20.143  0.00  0.00    +0.000 A 
ATOM      7  C   UNL     1       0.424  10.749  21.477  0.00  0.00    +0.000 A 
ATOM      8  C   UNL     1       0.502   9.605  22.275  0.00  0.00    +0.000 A 
ATOM      9  C   UNL     1       0.997   8.411  21.747  0.00  0.00    +0.000 A 
ATOM     10  C   UNL     1       1.417   8.361  20.418  0.00  0.00    +0.000 A 
ATOM     11  O   UNL     1       1.929   7.171  19.962  0.00  0.00    +0.000 OA
ENDROOT
BRANCH   1  14
ATOM     12  C   UNL     1       4.819   6.959  16.939  0.00  0.00    +0.000 C 
ATOM     13  N   UNL     1       4.081   5.835  17.481  0.00  0.00    +0.000 N 
ATOM     14  C   UNL     1       2.948   5.883  18.277  0.00  0.00    +0.000 A 
ATOM     15  C   UNL     1       2.585   4.578  18.562  0.00  0.00    +0.000 A 
ATOM     16  C   UNL     1       3.510   3.731  17.920  0.00  0.00    +0.000 A 
ATOM     17 BR   UNL     1       3.418   1.860  18.021  0.00  0.00    +0.000 Br
ATOM     18  C   UNL     1       4.419   4.518  17.260  0.00  0.00    +0.000 A 
ATOM     19 BR   UNL     1       5.865   3.903  16.239  0.00  0.00    +0.000 Br
ENDBRANCH   1  14
TORSDOF 1
ENDMDL
