MODEL 1
REMARK VINA RESULT:      -6.3      0.000      0.000
REMARK  Name = 
REMARK  6 active torsions:
REMARK  status: ('A' for Active; 'I' for Inactive)
REMARK    1  A    between atoms: C_1  and  C_2
REMARK    2  A    between atoms: C_2  and  O_3
REMARK    3  A    between atoms: O_3  and  C_4
REMARK    4  A    between atoms: C_9  and  C_10
REMARK    5  A    between atoms: C_16  and  S_17
REMARK    6  A    between atoms: S_17  and  C_18
REMARK                            x       y       z     vdW  Elec       q    Type
REMARK                         _______ _______ _______ _____ _____    ______ ____
ROOT
ATOM      1  C   UNL     1       6.399   5.336  17.449  0.00  0.00    +0.000 A 
ATOM      2  C   UNL     1       7.280   4.582  16.659  0.00  0.00    +0.000 A 
ATOM      3  C   UNL     1       6.885   4.102  15.414  0.00  0.00    +0.000 A 
ATOM      4  C   UNL     1       5.602   4.358  14.940  0.00  0.00    +0.000 A 
ATOM      5  C   UNL     1       4.689   5.026  15.756  0.00  0.00    +0.000 A 
ATOM      6  C   UNL     1       5.070   5.473  17.034  0.00  0.00    +0.000 A 
ENDROOT
BRANCH   6   7
ATOM      7  C   UNL     1       4.034   6.187  17.821  0.00  0.00    +0.000 C 
ATOM      8  O   UNL     1       3.734   7.325  17.437  0.00  0.00    +0.000 OA
ATOM      9  N   UNL     1       3.361   5.580  18.918  0.00  0.00    +0.000 N 
ATOM     10  C   UNL     1       2.476   6.435  19.655  0.00  0.00    +0.000 C 
ATOM     11  C   UNL     1       1.891   5.550  20.735  0.00  0.00    +0.000 C 
ATOM     12  N   UNL     1       2.419   4.195  20.493  0.00  0.00    +0.000 NA
ATOM     13  C   UNL     1       3.182   4.298  19.447  0.00  0.00    +0.000 C 
BRANCH  13  14
ATOM     14  S   UNL     1       3.860   2.885  18.714  0.00  0.00    +0.000 S 
ATOM     15  C   UNL     1       2.485   2.351  17.672  0.00  0.00    +0.000 C 
ENDBRANCH  13  14
ENDBRANCH   6   7
BRANCH   1  16
ATOM     16  O   UNL     1       6.757   5.966  18.613  0.00  0.00    +0.000 OA
BRANCH  16  18
ATOM     17  C   UNL     1       7.725   7.944  17.701  0.00  0.00    +0.000 C 
ATOM     18  C   UNL     1       7.961   6.734  18.583  0.00  0.00    +0.000 C 
ENDBRANCH  16  18
ENDBRANCH   1  16
TORSDOF 4
ENDMDL
MODEL 2
REMARK VINA RESULT:      -6.2      2.230      5.227
REMARK  Name = 
REMARK  6 active torsions:
REMARK  status: ('A' for Active; 'I' for Inactive)
REMARK    1  A    between atoms: C_1  and  C_2
REMARK    2  A    between atoms: C_2  and  O_3
REMARK    3  A    between atoms: O_3  and  C_4
REMARK    4  A    between atoms: C_9  and  C_10
REMARK    5  A    between atoms: C_16  and  S_17
REMARK    6  A    between atoms: S_17  and  C_18
REMARK                            x       y       z     vdW  Elec       q    Type
REMARK                         _______ _______ _______ _____ _____    ______ ____
ROOT
ATOM      1  C   UNL     1       2.215   4.755  19.440  0.00  0.00    +0.000 A 
ATOM      2  C   UNL     1       1.781   4.682  20.772  0.00  0.00    +0.000 A 
ATOM      3  C   UNL     1       2.164   3.621  21.587  0.00  0.00    +0.000 A 
ATOM      4  C   UNL     1       2.979   2.612  21.086  0.00  0.00    +0.000 A 
ATOM      5  C   UNL     1       3.340   2.626  19.738  0.00  0.00    +0.000 A 
ATOM      6  C   UNL     1       2.917   3.673  18.898  0.00  0.00    +0.000 A 
ENDROOT
BRANCH   6   7
ATOM      7  C   UNL     1       3.364   3.609  17.485  0.00  0.00    +0.000 C 
ATOM      8  O   UNL     1       2.501   3.325  16.644  0.00  0.00    +0.000 OA
ATOM      9  N   UNL     1       4.696   3.926  17.095  0.00  0.00    +0.000 N 
ATOM     10  C   UNL     1       5.010   3.700  15.713  0.00  0.00    +0.000 C 
ATOM     11  C   UNL     1       6.455   4.125  15.569  0.00  0.00    +0.000 C 
ATOM     12  N   UNL     1       6.863   4.662  16.880  0.00  0.00    +0.000 NA
ATOM     13  C   UNL     1       5.819   4.554  17.644  0.00  0.00    +0.000 C 
BRANCH  13  14
ATOM     14  S   UNL     1       5.818   5.242  19.231  0.00  0.00    +0.000 S 
ATOM     15  C   UNL     1       7.545   5.748  19.381  0.00  0.00    +0.000 C 
ENDBRANCH  13  14
ENDBRANCH   6   7
BRANCH   1  16
ATOM     16  O   UNL     1       2.007   5.834  18.620  0.00  0.00    +0.000 OA
BRANCH  16  18
ATOM     17  C   UNL     1       3.015   7.847  17.837  0.00  0.00    +0.000 C 
ATOM     18  C   UNL     1       2.537   7.086  19.059  0.00  0.00    +0.000 C 
ENDBRANCH  16  18
ENDBRANCH   1  16
TORSDOF 4
ENDMDL
MODEL 3
REMARK VINA RESULT:      -6.0      0.997      1.090
REMARK  Name = 
REMARK  6 active torsions:
REMARK  status: ('A' for Active; 'I' for Inactive)
REMARK    1  A    between atoms: C_1  and  C_2
REMARK    2  A    between atoms: C_2  and  O_3
REMARK    3  A    between atoms: O_3  and  C_4
REMARK    4  A    between atoms: C_9  and  C_10
REMARK    5  A    between atoms: C_16  and  S_17
REMARK    6  A    between atoms: S_17  and  C_18
REMARK                            x       y       z     vdW  Elec       q    Type
REMARK                         _______ _______ _______ _____ _____    ______ ____
ROOT
ATOM      1  C   UNL     1       6.301   4.824  17.991  0.00  0.00    +0.000 A 
ATOM      2  C   UNL     1       7.146   4.343  16.979  0.00  0.00    +0.000 A 
ATOM      3  C   UNL     1       6.684   4.209  15.673  0.00  0.00    +0.000 A 
ATOM      4  C   UNL     1       5.371   4.542  15.357  0.00  0.00    +0.000 A 
ATOM      5  C   UNL     1       4.497   4.931  16.373  0.00  0.00    +0.000 A 
ATOM      6  C   UNL     1       4.947   5.025  17.702  0.00  0.00    +0.000 A 
ENDROOT
BRANCH   6   7
ATOM      7  C   UNL     1       3.949   5.463  18.709  0.00  0.00    +0.000 C 
ATOM      8  O   UNL     1       3.583   6.644  18.648  0.00  0.00    +0.000 OA
ATOM      9  N   UNL     1       3.380   4.564  19.654  0.00  0.00    +0.000 N 
ATOM     10  C   UNL     1       2.523   5.159  20.641  0.00  0.00    +0.000 C 
ATOM     11  C   UNL     1       2.052   4.001  21.493  0.00  0.00    +0.000 C 
ATOM     12  N   UNL     1       2.606   2.780  20.880  0.00  0.00    +0.000 NA
ATOM     13  C   UNL     1       3.285   3.182  19.849  0.00  0.00    +0.000 C 
BRANCH  13  14
ATOM     14  S   UNL     1       3.955   2.038  18.739  0.00  0.00    +0.000 S 
ATOM     15  C   UNL     1       2.660   1.991  17.480  0.00  0.00    +0.000 C 
ENDBRANCH  13  14
ENDBRANCH   6   7
BRANCH   1  16
ATOM     16  O   UNL     1       6.718   5.125  19.263  0.00  0.00    +0.000 OA
BRANCH  16  18
ATOM     17  C   UNL     1       7.938   7.022  18.494  0.00  0.00    +0.000 C 
ATOM     18  C   UNL     1       7.973   5.796  19.385  0.00  0.00    +0.000 C 
ENDBRANCH  16  18
ENDBRANCH   1  16
TORSDOF 4
ENDMDL
MODEL 4
REMARK VINA RESULT:      -6.0      2.033      3.695
REMARK  Name = 
REMARK  6 active torsions:
REMARK  status: ('A' for Active; 'I' for Inactive)
REMARK    1  A    between atoms: C_1  and  C_2
REMARK    2  A    between atoms: C_2  and  O_3
REMARK    3  A    between atoms: O_3  and  C_4
REMARK    4  A    between atoms: C_9  and  C_10
REMARK    5  A    between atoms: C_16  and  S_17
REMARK    6  A    between atoms: S_17  and  C_18
REMARK                            x       y       z     vdW  Elec       q    Type
REMARK                         _______ _______ _______ _____ _____    ______ ____
ROOT
ATOM      1  C   UNL     1       6.220   4.803  17.114  0.00  0.00    +0.000 A 
ATOM      2  C   UNL     1       7.123   5.827  16.793  0.00  0.00    +0.000 A 
ATOM      3  C   UNL     1       7.766   6.548  17.795  0.00  0.00    +0.000 A 
ATOM      4  C   UNL     1       7.513   6.265  19.133  0.00  0.00    +0.000 A 
ATOM      5  C   UNL     1       6.548   5.313  19.463  0.00  0.00    +0.000 A 
ATOM      6  C   UNL     1       5.862   4.614  18.453  0.00  0.00    +0.000 A 
ENDROOT
BRANCH   6   7
ATOM      7  C   UNL     1       4.866   3.610  18.903  0.00  0.00    +0.000 C 
ATOM      8  O   UNL     1       5.295   2.676  19.592  0.00  0.00    +0.000 OA
ATOM      9  N   UNL     1       3.476   3.743  18.625  0.00  0.00    +0.000 N 
ATOM     10  C   UNL     1       2.655   2.633  19.018  0.00  0.00    +0.000 C 
ATOM     11  C   UNL     1       1.249   3.034  18.628  0.00  0.00    +0.000 C 
ATOM     12  N   UNL     1       1.338   4.409  18.106  0.00  0.00    +0.000 NA
ATOM     13  C   UNL     1       2.593   4.734  18.185  0.00  0.00    +0.000 C 
BRANCH  13  14
ATOM     14  S   UNL     1       3.106   6.349  17.837  0.00  0.00    +0.000 S 
ATOM     15  C   UNL     1       2.409   7.235  19.249  0.00  0.00    +0.000 C 
ENDBRANCH  13  14
ENDBRANCH   6   7
BRANCH   1  16
ATOM     16  O   UNL     1       5.662   3.953  16.194  0.00  0.00    +0.000 OA
BRANCH  16  18
ATOM     17  C   UNL     1       6.173   3.847  13.869  0.00  0.00    +0.000 C 
ATOM     18  C   UNL     1       5.316   4.515  14.927  0.00  0.00    +0.000 C 
ENDBRANCH  16  18
ENDBRANCH   1  16
TORSDOF 4
ENDMDL
MODEL 5
REMARK VINA RESULT:      -5.9      1.911      2.493
REMARK  Name = 
REMARK  6 active torsions:
REMARK  status: ('A' for Active; 'I' for Inactive)
REMARK    1  A    between atoms: C_1  and  C_2
REMARK    2  A    between atoms: C_2  and  O_3
REMARK    3  A    between atoms: O_3  and  C_4
REMARK    4  A    between atoms: C_9  and  C_10
REMARK    5  A    between atoms: C_16  and  S_17
REMARK    6  A    between atoms: S_17  and  C_18
REMARK                            x       y       z     vdW  Elec       q    Type
REMARK                         _______ _______ _______ _____ _____    ______ ____
ROOT
ATOM      1  C   UNL     1       6.751   4.458  17.423  0.00  0.00    +0.000 A 
ATOM      2  C   UNL     1       7.351   4.626  16.166  0.00  0.00    +0.000 A 
ATOM      3  C   UNL     1       6.587   4.585  15.003  0.00  0.00    +0.000 A 
ATOM      4  C   UNL     1       5.215   4.366  15.073  0.00  0.00    +0.000 A 
ATOM      5  C   UNL     1       4.624   4.105  16.310  0.00  0.00    +0.000 A 
ATOM      6  C   UNL     1       5.400   4.100  17.484  0.00  0.00    +0.000 A 
ENDROOT
BRANCH   6   7
ATOM      7  C   UNL     1       4.679   3.828  18.752  0.00  0.00    +0.000 C 
ATOM      8  O   UNL     1       5.069   2.856  19.411  0.00  0.00    +0.000 OA
ATOM      9  N   UNL     1       3.642   4.676  19.232  0.00  0.00    +0.000 N 
ATOM     10  C   UNL     1       2.957   4.216  20.407  0.00  0.00    +0.000 C 
ATOM     11  C   UNL     1       1.934   5.291  20.705  0.00  0.00    +0.000 C 
ATOM     12  N   UNL     1       2.157   6.362  19.718  0.00  0.00    +0.000 NA
ATOM     13  C   UNL     1       3.144   5.958  18.978  0.00  0.00    +0.000 C 
BRANCH  13  14
ATOM     14  S   UNL     1       3.846   7.011  17.798  0.00  0.00    +0.000 S 
ATOM     15  C   UNL     1       2.631   8.347  17.773  0.00  0.00    +0.000 C 
ENDBRANCH  13  14
ENDBRANCH   6   7
BRANCH   1  16
ATOM     16  O   UNL     1       7.404   4.631  18.616  0.00  0.00    +0.000 OA
BRANCH  16  18
ATOM     17  C   UNL     1       7.914   6.944  18.346  0.00  0.00    +0.000 C 
ATOM     18  C   UNL     1       7.266   5.907  19.244  0.00  0.00    +0.000 C 
ENDBRANCH  16  18
ENDBRANCH   1  16
TORSDOF 4
ENDMDL
MODEL 6
REMARK VINA RESULT:      -5.9      2.237      4.753
REMARK  Name = 
REMARK  6 active torsions:
REMARK  status: ('A' for Active; 'I' for Inactive)
REMARK    1  A    between atoms: C_1  and  C_2
REMARK    2  A    between atoms: C_2  and  O_3
REMARK    3  A    between atoms: O_3  and  C_4
REMARK    4  A    between atoms: C_9  and  C_10
REMARK    5  A    between atoms: C_16  and  S_17
REMARK    6  A    between atoms: S_17  and  C_18
REMARK                            x       y       z     vdW  Elec       q    Type
REMARK                         _______ _______ _______ _____ _____    ______ ____
ROOT
ATOM      1  C   UNL     1       3.007   5.155  18.385  0.00  0.00    +0.000 A 
ATOM      2  C   UNL     1       1.862   4.581  17.811  0.00  0.00    +0.000 A 
ATOM      3  C   UNL     1       1.839   3.233  17.468  0.00  0.00    +0.000 A 
ATOM      4  C   UNL     1       2.959   2.436  17.683  0.00  0.00    +0.000 A 
ATOM      5  C   UNL     1       4.132   3.016  18.166  0.00  0.00    +0.000 A 
ATOM      6  C   UNL     1       4.175   4.389  18.471  0.00  0.00    +0.000 A 
ENDROOT
BRANCH   6   7
ATOM      7  C   UNL     1       5.462   4.910  18.994  0.00  0.00    +0.000 C 
ATOM      8  O   UNL     1       5.811   4.502  20.109  0.00  0.00    +0.000 OA
ATOM      9  N   UNL     1       6.295   5.777  18.233  0.00  0.00    +0.000 N 
ATOM     10  C   UNL     1       7.445   6.294  18.918  0.00  0.00    +0.000 C 
ATOM     11  C   UNL     1       8.150   7.158  17.895  0.00  0.00    +0.000 C 
ATOM     12  N   UNL     1       7.396   7.011  16.636  0.00  0.00    +0.000 NA
ATOM     13  C   UNL     1       6.420   6.198  16.905  0.00  0.00    +0.000 C 
BRANCH  13  14
ATOM     14  S   UNL     1       5.392   5.613  15.642  0.00  0.00    +0.000 S 
ATOM     15  C   UNL     1       6.584   4.715  14.625  0.00  0.00    +0.000 C 
ENDBRANCH  13  14
ENDBRANCH   6   7
BRANCH   1  16
ATOM     16  O   UNL     1       3.061   6.430  18.885  0.00  0.00    +0.000 OA
BRANCH  16  18
ATOM     17  C   UNL     1       2.004   8.514  18.415  0.00  0.00    +0.000 C 
ATOM     18  C   UNL     1       3.018   7.495  17.933  0.00  0.00    +0.000 C 
ENDBRANCH  16  18
ENDBRANCH   1  16
TORSDOF 4
ENDMDL
MODEL 7
REMARK VINA RESULT:      -5.7      2.083      3.140
REMARK  Name = 
REMARK  6 active torsions:
REMARK  status: ('A' for Active; 'I' for Inactive)
REMARK    1  A    between atoms: C_1  and  C_2
REMARK    2  A    between atoms: C_2  and  O_3
REMARK    3  A    between atoms: O_3  and  C_4
REMARK    4  A    between atoms: C_9  and  C_10
REMARK    5  A    between atoms: C_16  and  S_17
REMARK    6  A    between atoms: S_17  and  C_18
REMARK                            x       y       z     vdW  Elec       q    Type
REMARK                         _______ _______ _______ _____ _____    ______ ____
ROOT
ATOM      1  C   UNL     1       3.926   6.036  17.578  0.00  0.00    +0.000 A 
ATOM      2  C   UNL     1       5.156   6.349  16.979  0.00  0.00    +0.000 A 
ATOM      3  C   UNL     1       5.784   5.443  16.130  0.00  0.00    +0.000 A 
ATOM      4  C   UNL     1       5.201   4.206  15.870  0.00  0.00    +0.000 A 
ATOM      5  C   UNL     1       4.027   3.848  16.533  0.00  0.00    +0.000 A 
ATOM      6  C   UNL     1       3.412   4.743  17.428  0.00  0.00    +0.000 A 
ENDROOT
BRANCH   6   7
ATOM      7  C   UNL     1       2.159   4.278  18.071  0.00  0.00    +0.000 C 
ATOM      8  O   UNL     1       1.127   4.356  17.392  0.00  0.00    +0.000 OA
ATOM      9  N   UNL     1       2.142   3.704  19.373  0.00  0.00    +0.000 N 
ATOM     10  C   UNL     1       0.842   3.417  19.909  0.00  0.00    +0.000 C 
ATOM     11  C   UNL     1       1.109   2.812  21.271  0.00  0.00    +0.000 C 
ATOM     12  N   UNL     1       2.573   2.706  21.399  0.00  0.00    +0.000 NA
ATOM     13  C   UNL     1       3.058   3.179  20.291  0.00  0.00    +0.000 C 
BRANCH  13  14
ATOM     14  S   UNL     1       4.751   3.070  19.956  0.00  0.00    +0.000 S 
ATOM     15  C   UNL     1       5.146   1.481  20.721  0.00  0.00    +0.000 C 
ENDBRANCH  13  14
ENDBRANCH   6   7
BRANCH   1  16
ATOM     16  O   UNL     1       3.175   6.924  18.303  0.00  0.00    +0.000 OA
BRANCH  16  18
ATOM     17  C   UNL     1       1.790   8.852  18.514  0.00  0.00    +0.000 C 
ATOM     18  C   UNL     1       2.817   8.144  17.652  0.00  0.00    +0.000 C 
ENDBRANCH  16  18
ENDBRANCH   1  16
TORSDOF 4
ENDMDL
MODEL 8
REMARK VINA RESULT:      -5.6      1.816      2.651
REMARK  Name = 
REMARK  6 active torsions:
REMARK  status: ('A' for Active; 'I' for Inactive)
REMARK    1  A    between atoms: C_1  and  C_2
REMARK    2  A    between atoms: C_2  and  O_3
REMARK    3  A    between atoms: O_3  and  C_4
REMARK    4  A    between atoms: C_9  and  C_10
REMARK    5  A    between atoms: C_16  and  S_17
REMARK    6  A    between atoms: S_17  and  C_18
REMARK                            x       y       z     vdW  Elec       q    Type
REMARK                         _______ _______ _______ _____ _____    ______ ____
ROOT
ATOM      1  C   UNL     1       6.074   4.882  18.046  0.00  0.00    +0.000 A 
ATOM      2  C   UNL     1       6.567   5.362  16.823  0.00  0.00    +0.000 A 
ATOM      3  C   UNL     1       5.964   4.999  15.622  0.00  0.00    +0.000 A 
ATOM      4  C   UNL     1       4.866   4.145  15.620  0.00  0.00    +0.000 A 
ATOM      5  C   UNL     1       4.426   3.588  16.821  0.00  0.00    +0.000 A 
ATOM      6  C   UNL     1       5.061   3.916  18.033  0.00  0.00    +0.000 A 
ENDROOT
BRANCH   6   7
ATOM      7  C   UNL     1       4.512   3.286  19.259  0.00  0.00    +0.000 C 
ATOM      8  O   UNL     1       5.229   2.447  19.819  0.00  0.00    +0.000 OA
ATOM      9  N   UNL     1       3.259   3.671  19.814  0.00  0.00    +0.000 N 
ATOM     10  C   UNL     1       2.806   2.888  20.929  0.00  0.00    +0.000 C 
ATOM     11  C   UNL     1       1.483   3.508  21.326  0.00  0.00    +0.000 C 
ATOM     12  N   UNL     1       1.297   4.683  20.456  0.00  0.00    +0.000 NA
ATOM     13  C   UNL     1       2.343   4.721  19.688  0.00  0.00    +0.000 C 
BRANCH  13  14
ATOM     14  S   UNL     1       2.608   6.064  18.631  0.00  0.00    +0.000 S 
ATOM     15  C   UNL     1       2.178   7.441  19.718  0.00  0.00    +0.000 C 
ENDBRANCH  13  14
ENDBRANCH   6   7
BRANCH   1  16
ATOM     16  O   UNL     1       6.514   5.306  19.273  0.00  0.00    +0.000 OA
BRANCH  16  18
ATOM     17  C   UNL     1       8.127   6.986  18.767  0.00  0.00    +0.000 C 
ATOM     18  C   UNL     1       7.904   5.619  19.384  0.00  0.00    +0.000 C 
ENDBRANCH  16  18
ENDBRANCH   1  16
TORSDOF 4
ENDMDL
MODEL 9
REMARK VINA RESULT:      -5.6      2.263      4.941
REMARK  Name = 
REMARK  6 active torsions:
REMARK  status: ('A' for Active; 'I' for Inactive)
REMARK    1  A    between atoms: C_1  and  C_2
REMARK    2  A    between atoms: C_2  and  O_3
REMARK    3  A    between atoms: O_3  and  C_4
REMARK    4  A    between atoms: C_9  and  C_10
REMARK    5  A    between atoms: C_16  and  S_17
REMARK    6  A    between atoms: S_17  and  C_18
REMARK                            x       y       z     vdW  Elec       q    Type
REMARK                         _______ _______ _______ _____ _____    ______ ____
ROOT
ATOM      1  C   UNL     1       2.907   4.846  18.838  0.00  0.00    +0.000 A 
ATOM      2  C   UNL     1       1.695   4.544  18.199  0.00  0.00    +0.000 A 
ATOM      3  C   UNL     1       1.643   3.588  17.189  0.00  0.00    +0.000 A 
ATOM      4  C   UNL     1       2.800   2.923  16.793  0.00  0.00    +0.000 A 
ATOM      5  C   UNL     1       4.025   3.282  17.357  0.00  0.00    +0.000 A 
ATOM      6  C   UNL     1       4.089   4.280  18.346  0.00  0.00    +0.000 A 
ENDROOT
BRANCH   6   7
ATOM      7  C   UNL     1       5.434   4.581  18.896  0.00  0.00    +0.000 C 
ATOM      8  O   UNL     1       5.866   3.802  19.756  0.00  0.00    +0.000 OA
ATOM      9  N   UNL     1       6.226   5.661  18.417  0.00  0.00    +0.000 N 
ATOM     10  C   UNL     1       7.449   5.900  19.129  0.00  0.00    +0.000 C 
ATOM     11  C   UNL     1       8.090   7.071  18.417  0.00  0.00    +0.000 C 
ATOM     12  N   UNL     1       7.225   7.382  17.265  0.00  0.00    +0.000 NA
ATOM     13  C   UNL     1       6.249   6.528  17.319  0.00  0.00    +0.000 C 
BRANCH  13  14
ATOM     14  S   UNL     1       5.095   6.432  16.034  0.00  0.00    +0.000 S 
ATOM     15  C   UNL     1       5.897   5.231  14.948  0.00  0.00    +0.000 C 
ENDBRANCH  13  14
ENDBRANCH   6   7
BRANCH   1  16
ATOM     16  O   UNL     1       3.017   5.661  19.934  0.00  0.00    +0.000 OA
BRANCH  16  18
ATOM     17  C   UNL     1       2.220   4.072  21.522  0.00  0.00    +0.000 C 
ATOM     18  C   UNL     1       2.052   5.475  20.972  0.00  0.00    +0.000 C 
ENDBRANCH  16  18
ENDBRANCH   1  16
TORSDOF 4
ENDMDL
