MODEL 1
REMARK VINA RESULT:      -8.2      0.000      0.000
REMARK  Name = 
REMARK  6 active torsions:
REMARK  status: ('A' for Active; 'I' for Inactive)
REMARK    1  A    between atoms: C_1  and  C_2
REMARK    2  A    between atoms: C_2  and  C_3
REMARK    3  A    between atoms: C_2  and  C_19
REMARK    4  A    between atoms: C_3  and  C_4
REMARK    5  A    between atoms: N_6  and  C_7
REMARK    6  A    between atoms: C_7  and  C_8
REMARK                            x       y       z     vdW  Elec       q    Type
REMARK                         _______ _______ _______ _____ _____    ______ ____
ROOT
ATOM      1  C   UNL     1       6.193   4.540  18.677  0.00  0.00    +0.000 C 
ATOM      2  O   UNL     1       6.121   5.133  19.748  0.00  0.00    +0.000 OA
ATOM      3  N   UNL     1       5.148   3.839  18.117  0.00  0.00    +0.000 N 
ATOM      4  H   UNL     1       5.287   3.458  17.184  0.00  0.00    +0.000 HD
ENDROOT
BRANCH   3   5
ATOM      5  C   UNL     1       3.809   3.696  18.782  0.00  0.00    +0.000 C 
ATOM      6  C   UNL     1       2.913   2.569  18.158  0.00  0.00    +0.000 C 
ATOM      7  O   UNL     1       2.684   1.979  19.467  0.00  0.00    +0.000 OA
ATOM      8  C   UNL     1       3.853   2.670  19.970  0.00  0.00    +0.000 C 
BRANCH   5   9
ATOM      9  C   UNL     1       3.139   5.111  19.091  0.00  0.00    +0.000 A 
ATOM     10  C   UNL     1       2.517   5.403  20.317  0.00  0.00    +0.000 A 
ATOM     11  F   UNL     1       2.489   4.471  21.279  0.00  0.00    +0.000 F 
ATOM     12  C   UNL     1       1.916   6.632  20.594  0.00  0.00    +0.000 A 
ATOM     13  C   UNL     1       1.919   7.639  19.636  0.00  0.00    +0.000 A 
ATOM     14  C   UNL     1       2.514   7.396  18.405  0.00  0.00    +0.000 A 
ATOM     15  C   UNL     1       3.097   6.153  18.147  0.00  0.00    +0.000 A 
ATOM     16  F   UNL     1       3.628   5.955  16.930  0.00  0.00    +0.000 F 
ENDBRANCH   5   9
ENDBRANCH   3   5
BRANCH   1  17
ATOM     17  C   UNL     1       7.453   4.562  17.838  0.00  0.00    +0.000 C 
BRANCH  17  19
ATOM     18  C   UNL     1       6.549   6.819  17.110  0.00  0.00    +0.000 C 
ATOM     19  C   UNL     1       7.410   5.613  16.722  0.00  0.00    +0.000 C 
BRANCH  19  20
ATOM     20  C   UNL     1       6.970   5.030  15.415  0.00  0.00    +0.000 A 
ATOM     21  C   UNL     1       5.963   4.161  15.050  0.00  0.00    +0.000 A 
ATOM     22  C   UNL     1       6.066   3.992  13.651  0.00  0.00    +0.000 A 
ATOM     23  C   UNL     1       7.135   4.757  13.247  0.00  0.00    +0.000 A 
ATOM     24  O   UNL     1       7.699   5.383  14.313  0.00  0.00    +0.000 OA
ENDBRANCH  19  20
ENDBRANCH  17  19
ENDBRANCH   1  17
TORSDOF 5
ENDMDL
MODEL 2
REMARK VINA RESULT:      -7.8      0.632      1.891
REMARK  Name = 
REMARK  6 active torsions:
REMARK  status: ('A' for Active; 'I' for Inactive)
REMARK    1  A    between atoms: C_1  and  C_2
REMARK    2  A    between atoms: C_2  and  C_3
REMARK    3  A    between atoms: C_2  and  C_19
REMARK    4  A    between atoms: C_3  and  C_4
REMARK    5  A    between atoms: N_6  and  C_7
REMARK    6  A    between atoms: C_7  and  C_8
REMARK                            x       y       z     vdW  Elec       q    Type
REMARK                         _______ _______ _______ _____ _____    ______ ____
ROOT
ATOM      1  C   UNL     1       6.190   4.538  18.651  0.00  0.00    +0.000 C 
ATOM      2  O   UNL     1       6.096   5.030  19.771  0.00  0.00    +0.000 OA
ATOM      3  N   UNL     1       5.165   3.872  18.018  0.00  0.00    +0.000 N 
ATOM      4  H   UNL     1       5.320   3.580  17.055  0.00  0.00    +0.000 HD
ENDROOT
BRANCH   3   5
ATOM      5  C   UNL     1       3.822   3.644  18.650  0.00  0.00    +0.000 C 
ATOM      6  C   UNL     1       2.958   2.556  17.922  0.00  0.00    +0.000 C 
ATOM      7  O   UNL     1       2.728   1.853  19.173  0.00  0.00    +0.000 OA
ATOM      8  C   UNL     1       3.876   2.523  19.748  0.00  0.00    +0.000 C 
BRANCH   5   9
ATOM      9  C   UNL     1       3.118   5.014  19.070  0.00  0.00    +0.000 A 
ATOM     10  C   UNL     1       3.043   6.121  18.208  0.00  0.00    +0.000 A 
ATOM     11  F   UNL     1       3.566   6.036  16.978  0.00  0.00    +0.000 F 
ATOM     12  C   UNL     1       2.441   7.329  18.568  0.00  0.00    +0.000 A 
ATOM     13  C   UNL     1       1.877   7.475  19.829  0.00  0.00    +0.000 A 
ATOM     14  C   UNL     1       1.933   6.411  20.721  0.00  0.00    +0.000 A 
ATOM     15  C   UNL     1       2.552   5.218  20.341  0.00  0.00    +0.000 A 
ATOM     16  F   UNL     1       2.612   4.232  21.250  0.00  0.00    +0.000 F 
ENDBRANCH   5   9
ENDBRANCH   3   5
BRANCH   1  17
ATOM     17  C   UNL     1       7.458   4.659  17.833  0.00  0.00    +0.000 C 
BRANCH  17  19
ATOM     18  C   UNL     1       6.474   6.880  17.099  0.00  0.00    +0.000 C 
ATOM     19  C   UNL     1       7.342   5.684  16.698  0.00  0.00    +0.000 C 
BRANCH  19  20
ATOM     20  C   UNL     1       6.855   5.064  15.425  0.00  0.00    +0.000 A 
ATOM     21  C   UNL     1       7.459   4.758  14.223  0.00  0.00    +0.000 A 
ATOM     22  C   UNL     1       6.460   4.183  13.407  0.00  0.00    +0.000 A 
ATOM     23  C   UNL     1       5.305   4.182  14.153  0.00  0.00    +0.000 A 
ATOM     24  O   UNL     1       5.532   4.727  15.377  0.00  0.00    +0.000 OA
ENDBRANCH  19  20
ENDBRANCH  17  19
ENDBRANCH   1  17
TORSDOF 5
ENDMDL
MODEL 3
REMARK VINA RESULT:      -7.6      2.153      2.702
REMARK  Name = 
REMARK  6 active torsions:
REMARK  status: ('A' for Active; 'I' for Inactive)
REMARK    1  A    between atoms: C_1  and  C_2
REMARK    2  A    between atoms: C_2  and  C_3
REMARK    3  A    between atoms: C_2  and  C_19
REMARK    4  A    between atoms: C_3  and  C_4
REMARK    5  A    between atoms: N_6  and  C_7
REMARK    6  A    between atoms: C_7  and  C_8
REMARK                            x       y       z     vdW  Elec       q    Type
REMARK                         _______ _______ _______ _____ _____    ______ ____
ROOT
ATOM      1  C   UNL     1       5.455   5.155  18.952  0.00  0.00    +0.000 C 
ATOM      2  O   UNL     1       4.579   5.986  19.172  0.00  0.00    +0.000 OA
ATOM      3  N   UNL     1       5.209   3.893  18.460  0.00  0.00    +0.000 N 
ATOM      4  H   UNL     1       6.014   3.315  18.229  0.00  0.00    +0.000 HD
ENDROOT
BRANCH   3   5
ATOM      5  C   UNL     1       3.826   3.382  18.171  0.00  0.00    +0.000 C 
ATOM      6  C   UNL     1       3.157   4.048  16.918  0.00  0.00    +0.000 C 
ATOM      7  O   UNL     1       2.844   2.746  16.351  0.00  0.00    +0.000 OA
ATOM      8  C   UNL     1       3.851   2.146  17.203  0.00  0.00    +0.000 C 
BRANCH   5   9
ATOM      9  C   UNL     1       2.956   3.225  19.500  0.00  0.00    +0.000 A 
ATOM     10  C   UNL     1       3.417   2.526  20.628  0.00  0.00    +0.000 A 
ATOM     11  F   UNL     1       4.638   1.974  20.609  0.00  0.00    +0.000 F 
ATOM     12  C   UNL     1       2.660   2.369  21.791  0.00  0.00    +0.000 A 
ATOM     13  C   UNL     1       1.388   2.924  21.872  0.00  0.00    +0.000 A 
ATOM     14  C   UNL     1       0.884   3.618  20.779  0.00  0.00    +0.000 A 
ATOM     15  C   UNL     1       1.657   3.748  19.622  0.00  0.00    +0.000 A 
ATOM     16  F   UNL     1       1.112   4.398  18.581  0.00  0.00    +0.000 F 
ENDBRANCH   5   9
ENDBRANCH   3   5
BRANCH   1  17
ATOM     17  C   UNL     1       6.920   5.468  19.169  0.00  0.00    +0.000 C 
BRANCH  17  19
ATOM     18  C   UNL     1       7.699   7.568  17.975  0.00  0.00    +0.000 C 
ATOM     19  C   UNL     1       7.601   6.040  17.919  0.00  0.00    +0.000 C 
BRANCH  19  20
ATOM     20  C   UNL     1       6.937   5.585  16.656  0.00  0.00    +0.000 A 
ATOM     21  C   UNL     1       5.966   6.129  15.841  0.00  0.00    +0.000 A 
ATOM     22  C   UNL     1       5.761   5.207  14.791  0.00  0.00    +0.000 A 
ATOM     23  C   UNL     1       6.609   4.151  15.033  0.00  0.00    +0.000 A 
ATOM     24  O   UNL     1       7.319   4.366  16.171  0.00  0.00    +0.000 OA
ENDBRANCH  19  20
ENDBRANCH  17  19
ENDBRANCH   1  17
TORSDOF 5
ENDMDL
MODEL 4
REMARK VINA RESULT:      -7.5      2.126      2.880
REMARK  Name = 
REMARK  6 active torsions:
REMARK  status: ('A' for Active; 'I' for Inactive)
REMARK    1  A    between atoms: C_1  and  C_2
REMARK    2  A    between atoms: C_2  and  C_3
REMARK    3  A    between atoms: C_2  and  C_19
REMARK    4  A    between atoms: C_3  and  C_4
REMARK    5  A    between atoms: N_6  and  C_7
REMARK    6  A    between atoms: C_7  and  C_8
REMARK                            x       y       z     vdW  Elec       q    Type
REMARK                         _______ _______ _______ _____ _____    ______ ____
ROOT
ATOM      1  C   UNL     1       5.444   5.159  18.904  0.00  0.00    +0.000 C 
ATOM      2  O   UNL     1       4.568   5.995  19.103  0.00  0.00    +0.000 OA
ATOM      3  N   UNL     1       5.197   3.886  18.443  0.00  0.00    +0.000 N 
ATOM      4  H   UNL     1       6.001   3.302  18.227  0.00  0.00    +0.000 HD
ENDROOT
BRANCH   3   5
ATOM      5  C   UNL     1       3.814   3.368  18.168  0.00  0.00    +0.000 C 
ATOM      6  C   UNL     1       3.132   4.026  16.917  0.00  0.00    +0.000 C 
ATOM      7  O   UNL     1       2.820   2.720  16.359  0.00  0.00    +0.000 OA
ATOM      8  C   UNL     1       3.835   2.128  17.205  0.00  0.00    +0.000 C 
BRANCH   5   9
ATOM      9  C   UNL     1       2.955   3.214  19.505  0.00  0.00    +0.000 A 
ATOM     10  C   UNL     1       1.697   3.817  19.670  0.00  0.00    +0.000 A 
ATOM     11  F   UNL     1       1.178   4.543  18.671  0.00  0.00    +0.000 F 
ATOM     12  C   UNL     1       0.942   3.701  20.839  0.00  0.00    +0.000 A 
ATOM     13  C   UNL     1       1.427   2.957  21.907  0.00  0.00    +0.000 A 
ATOM     14  C   UNL     1       2.671   2.348  21.796  0.00  0.00    +0.000 A 
ATOM     15  C   UNL     1       3.412   2.490  20.620  0.00  0.00    +0.000 A 
ATOM     16  F   UNL     1       4.622   1.912  20.575  0.00  0.00    +0.000 F 
ENDBRANCH   5   9
ENDBRANCH   3   5
BRANCH   1  17
ATOM     17  C   UNL     1       6.909   5.477  19.112  0.00  0.00    +0.000 C 
BRANCH  17  19
ATOM     18  C   UNL     1       7.655   7.584  17.909  0.00  0.00    +0.000 C 
ATOM     19  C   UNL     1       7.579   6.055  17.859  0.00  0.00    +0.000 C 
BRANCH  19  20
ATOM     20  C   UNL     1       6.921   5.585  16.599  0.00  0.00    +0.000 A 
ATOM     21  C   UNL     1       5.943   6.113  15.781  0.00  0.00    +0.000 A 
ATOM     22  C   UNL     1       5.750   5.183  14.736  0.00  0.00    +0.000 A 
ATOM     23  C   UNL     1       6.611   4.139  14.983  0.00  0.00    +0.000 A 
ATOM     24  O   UNL     1       7.318   4.368  16.119  0.00  0.00    +0.000 OA
ENDBRANCH  19  20
ENDBRANCH  17  19
ENDBRANCH   1  17
TORSDOF 5
ENDMDL
MODEL 5
REMARK VINA RESULT:      -7.5      1.799      2.317
REMARK  Name = 
REMARK  6 active torsions:
REMARK  status: ('A' for Active; 'I' for Inactive)
REMARK    1  A    between atoms: C_1  and  C_2
REMARK    2  A    between atoms: C_2  and  C_3
REMARK    3  A    between atoms: C_2  and  C_19
REMARK    4  A    between atoms: C_3  and  C_4
REMARK    5  A    between atoms: N_6  and  C_7
REMARK    6  A    between atoms: C_7  and  C_8
REMARK                            x       y       z     vdW  Elec       q    Type
REMARK                         _______ _______ _______ _____ _____    ______ ____
ROOT
ATOM      1  C   UNL     1       5.432   5.164  19.115  0.00  0.00    +0.000 C 
ATOM      2  O   UNL     1       5.071   4.038  18.789  0.00  0.00    +0.000 OA
ATOM      3  N   UNL     1       4.566   6.205  19.361  0.00  0.00    +0.000 N 
ATOM      4  H   UNL     1       4.965   7.073  19.712  0.00  0.00    +0.000 HD
ENDROOT
BRANCH   3   5
ATOM      5  C   UNL     1       3.076   6.082  19.221  0.00  0.00    +0.000 C 
ATOM      6  C   UNL     1       2.628   4.961  18.219  0.00  0.00    +0.000 C 
ATOM      7  O   UNL     1       1.736   4.383  19.211  0.00  0.00    +0.000 OA
ATOM      8  C   UNL     1       2.474   5.065  20.255  0.00  0.00    +0.000 C 
BRANCH   5   9
ATOM      9  C   UNL     1       2.363   7.507  19.131  0.00  0.00    +0.000 A 
ATOM     10  C   UNL     1       1.576   8.026  20.173  0.00  0.00    +0.000 A 
ATOM     11  F   UNL     1       1.418   7.316  21.298  0.00  0.00    +0.000 F 
ATOM     12  C   UNL     1       0.935   9.266  20.101  0.00  0.00    +0.000 A 
ATOM     13  C   UNL     1       1.066  10.049  18.961  0.00  0.00    +0.000 A 
ATOM     14  C   UNL     1       1.827   9.576  17.900  0.00  0.00    +0.000 A 
ATOM     15  C   UNL     1       2.446   8.327  17.992  0.00  0.00    +0.000 A 
ATOM     16  F   UNL     1       3.142   7.898  16.927  0.00  0.00    +0.000 F 
ENDBRANCH   5   9
ENDBRANCH   3   5
BRANCH   1  17
ATOM     17  C   UNL     1       6.893   5.503  19.319  0.00  0.00    +0.000 C 
BRANCH  17  19
ATOM     18  C   UNL     1       7.800   7.517  18.069  0.00  0.00    +0.000 C 
ATOM     19  C   UNL     1       7.576   6.003  18.040  0.00  0.00    +0.000 C 
BRANCH  19  20
ATOM     20  C   UNL     1       6.836   5.588  16.806  0.00  0.00    +0.000 A 
ATOM     21  C   UNL     1       6.913   4.491  15.972  0.00  0.00    +0.000 A 
ATOM     22  C   UNL     1       5.939   4.683  14.967  0.00  0.00    +0.000 A 
ATOM     23  C   UNL     1       5.335   5.888  15.239  0.00  0.00    +0.000 A 
ATOM     24  O   UNL     1       5.881   6.452  16.347  0.00  0.00    +0.000 OA
ENDBRANCH  19  20
ENDBRANCH  17  19
ENDBRANCH   1  17
TORSDOF 5
ENDMDL
MODEL 6
REMARK VINA RESULT:      -7.5      2.056      3.481
REMARK  Name = 
REMARK  6 active torsions:
REMARK  status: ('A' for Active; 'I' for Inactive)
REMARK    1  A    between atoms: C_1  and  C_2
REMARK    2  A    between atoms: C_2  and  C_3
REMARK    3  A    between atoms: C_2  and  C_19
REMARK    4  A    between atoms: C_3  and  C_4
REMARK    5  A    between atoms: N_6  and  C_7
REMARK    6  A    between atoms: C_7  and  C_8
REMARK                            x       y       z     vdW  Elec       q    Type
REMARK                         _______ _______ _______ _____ _____    ______ ____
ROOT
ATOM      1  C   UNL     1       5.158   4.984  18.969  0.00  0.00    +0.000 C 
ATOM      2  O   UNL     1       4.693   4.024  18.364  0.00  0.00    +0.000 OA
ATOM      3  N   UNL     1       4.403   6.043  19.423  0.00  0.00    +0.000 N 
ATOM      4  H   UNL     1       4.874   6.744  19.991  0.00  0.00    +0.000 HD
ENDROOT
BRANCH   3   5
ATOM      5  C   UNL     1       2.924   6.153  19.191  0.00  0.00    +0.000 C 
ATOM      6  C   UNL     1       2.292   7.472  19.761  0.00  0.00    +0.000 C 
ATOM      7  O   UNL     1       1.661   7.761  18.483  0.00  0.00    +0.000 OA
ATOM      8  C   UNL     1       2.596   6.867  17.832  0.00  0.00    +0.000 C 
BRANCH   5   9
ATOM      9  C   UNL     1       2.170   4.772  19.467  0.00  0.00    +0.000 A 
ATOM     10  C   UNL     1       1.564   4.024  18.445  0.00  0.00    +0.000 A 
ATOM     11  F   UNL     1       1.622   4.465  17.181  0.00  0.00    +0.000 F 
ATOM     12  C   UNL     1       0.890   2.822  18.675  0.00  0.00    +0.000 A 
ATOM     13  C   UNL     1       0.801   2.313  19.964  0.00  0.00    +0.000 A 
ATOM     14  C   UNL     1       1.377   3.021  21.011  0.00  0.00    +0.000 A 
ATOM     15  C   UNL     1       2.034   4.227  20.756  0.00  0.00    +0.000 A 
ATOM     16  F   UNL     1       2.544   4.891  21.805  0.00  0.00    +0.000 F 
ENDBRANCH   5   9
ENDBRANCH   3   5
BRANCH   1  17
ATOM     17  C   UNL     1       6.629   5.071  19.314  0.00  0.00    +0.000 C 
BRANCH  17  19
ATOM     18  C   UNL     1       7.924   7.057  18.409  0.00  0.00    +0.000 C 
ATOM     19  C   UNL     1       7.483   5.612  18.160  0.00  0.00    +0.000 C 
BRANCH  19  20
ATOM     20  C   UNL     1       6.797   5.473  16.837  0.00  0.00    +0.000 A 
ATOM     21  C   UNL     1       6.845   4.528  15.833  0.00  0.00    +0.000 A 
ATOM     22  C   UNL     1       5.958   4.967  14.826  0.00  0.00    +0.000 A 
ATOM     23  C   UNL     1       5.431   6.158  15.267  0.00  0.00    +0.000 A 
ATOM     24  O   UNL     1       5.943   6.481  16.483  0.00  0.00    +0.000 OA
ENDBRANCH  19  20
ENDBRANCH  17  19
ENDBRANCH   1  17
TORSDOF 5
ENDMDL
MODEL 7
REMARK VINA RESULT:      -7.5      1.998      3.094
REMARK  Name = 
REMARK  6 active torsions:
REMARK  status: ('A' for Active; 'I' for Inactive)
REMARK    1  A    between atoms: C_1  and  C_2
REMARK    2  A    between atoms: C_2  and  C_3
REMARK    3  A    between atoms: C_2  and  C_19
REMARK    4  A    between atoms: C_3  and  C_4
REMARK    5  A    between atoms: N_6  and  C_7
REMARK    6  A    between atoms: C_7  and  C_8
REMARK                            x       y       z     vdW  Elec       q    Type
REMARK                         _______ _______ _______ _____ _____    ______ ____
ROOT
ATOM      1  C   UNL     1       5.125   4.968  19.008  0.00  0.00    +0.000 C 
ATOM      2  O   UNL     1       4.645   4.008  18.415  0.00  0.00    +0.000 OA
ATOM      3  N   UNL     1       4.385   6.039  19.459  0.00  0.00    +0.000 N 
ATOM      4  H   UNL     1       4.868   6.740  20.017  0.00  0.00    +0.000 HD
ENDROOT
BRANCH   3   5
ATOM      5  C   UNL     1       2.905   6.162  19.239  0.00  0.00    +0.000 C 
ATOM      6  C   UNL     1       2.284   7.469  19.844  0.00  0.00    +0.000 C 
ATOM      7  O   UNL     1       1.647   7.793  18.577  0.00  0.00    +0.000 OA
ATOM      8  C   UNL     1       2.573   6.910  17.899  0.00  0.00    +0.000 C 
BRANCH   5   9
ATOM      9  C   UNL     1       2.146   4.779  19.485  0.00  0.00    +0.000 A 
ATOM     10  C   UNL     1       2.015   4.205  20.761  0.00  0.00    +0.000 A 
ATOM     11  F   UNL     1       2.531   4.836  21.824  0.00  0.00    +0.000 F 
ATOM     12  C   UNL     1       1.365   2.989  20.988  0.00  0.00    +0.000 A 
ATOM     13  C   UNL     1       0.806   2.292  19.924  0.00  0.00    +0.000 A 
ATOM     14  C   UNL     1       0.917   2.814  18.642  0.00  0.00    +0.000 A 
ATOM     15  C   UNL     1       1.583   4.026  18.440  0.00  0.00    +0.000 A 
ATOM     16  F   UNL     1       1.694   4.472  17.179  0.00  0.00    +0.000 F 
ENDBRANCH   5   9
ENDBRANCH   3   5
BRANCH   1  17
ATOM     17  C   UNL     1       6.600   5.043  19.340  0.00  0.00    +0.000 C 
BRANCH  17  19
ATOM     18  C   UNL     1       7.821   7.041  18.361  0.00  0.00    +0.000 C 
ATOM     19  C   UNL     1       7.449   5.567  18.175  0.00  0.00    +0.000 C 
BRANCH  19  20
ATOM     20  C   UNL     1       6.793   5.336  16.849  0.00  0.00    +0.000 A 
ATOM     21  C   UNL     1       5.911   6.069  16.083  0.00  0.00    +0.000 A 
ATOM     22  C   UNL     1       5.658   5.304  14.922  0.00  0.00    +0.000 A 
ATOM     23  C   UNL     1       6.390   4.148  15.054  0.00  0.00    +0.000 A 
ATOM     24  O   UNL     1       7.073   4.151  16.227  0.00  0.00    +0.000 OA
ENDBRANCH  19  20
ENDBRANCH  17  19
ENDBRANCH   1  17
TORSDOF 5
ENDMDL
MODEL 8
REMARK VINA RESULT:      -7.4      1.480      2.580
REMARK  Name = 
REMARK  6 active torsions:
REMARK  status: ('A' for Active; 'I' for Inactive)
REMARK    1  A    between atoms: C_1  and  C_2
REMARK    2  A    between atoms: C_2  and  C_3
REMARK    3  A    between atoms: C_2  and  C_19
REMARK    4  A    between atoms: C_3  and  C_4
REMARK    5  A    between atoms: N_6  and  C_7
REMARK    6  A    between atoms: C_7  and  C_8
REMARK                            x       y       z     vdW  Elec       q    Type
REMARK                         _______ _______ _______ _____ _____    ______ ____
ROOT
ATOM      1  C   UNL     1       5.215   4.479  18.694  0.00  0.00    +0.000 C 
ATOM      2  O   UNL     1       5.276   4.937  19.830  0.00  0.00    +0.000 OA
ATOM      3  N   UNL     1       4.045   4.076  18.091  0.00  0.00    +0.000 N 
ATOM      4  H   UNL     1       4.093   3.794  17.115  0.00  0.00    +0.000 HD
ENDROOT
BRANCH   3   5
ATOM      5  C   UNL     1       2.711   4.121  18.780  0.00  0.00    +0.000 C 
ATOM      6  C   UNL     1       1.602   3.275  18.062  0.00  0.00    +0.000 C 
ATOM      7  O   UNL     1       1.274   2.590  19.303  0.00  0.00    +0.000 OA
ATOM      8  C   UNL     1       2.563   2.973  19.841  0.00  0.00    +0.000 C 
BRANCH   5   9
ATOM      9  C   UNL     1       2.340   5.594  19.272  0.00  0.00    +0.000 A 
ATOM     10  C   UNL     1       1.790   5.852  20.539  0.00  0.00    +0.000 A 
ATOM     11  F   UNL     1       1.574   4.835  21.384  0.00  0.00    +0.000 F 
ATOM     12  C   UNL     1       1.448   7.134  20.975  0.00  0.00    +0.000 A 
ATOM     13  C   UNL     1       1.655   8.228  20.144  0.00  0.00    +0.000 A 
ATOM     14  C   UNL     1       2.188   8.023  18.878  0.00  0.00    +0.000 A 
ATOM     15  C   UNL     1       2.509   6.729  18.461  0.00  0.00    +0.000 A 
ATOM     16  F   UNL     1       2.990   6.579  17.216  0.00  0.00    +0.000 F 
ENDBRANCH   5   9
ENDBRANCH   3   5
BRANCH   1  17
ATOM     17  C   UNL     1       6.445   4.353  17.820  0.00  0.00    +0.000 C 
BRANCH  17  19
ATOM     18  C   UNL     1       7.290   5.094  15.544  0.00  0.00    +0.000 C 
ATOM     19  C   UNL     1       6.608   5.526  16.845  0.00  0.00    +0.000 C 
BRANCH  19  20
ATOM     20  C   UNL     1       7.318   6.686  17.471  0.00  0.00    +0.000 A 
ATOM     21  C   UNL     1       8.093   6.830  18.603  0.00  0.00    +0.000 A 
ATOM     22  C   UNL     1       8.477   8.188  18.656  0.00  0.00    +0.000 A 
ATOM     23  C   UNL     1       7.907   8.795  17.561  0.00  0.00    +0.000 A 
ATOM     24  O   UNL     1       7.190   7.893  16.841  0.00  0.00    +0.000 OA
ENDBRANCH  19  20
ENDBRANCH  17  19
ENDBRANCH   1  17
TORSDOF 5
ENDMDL
MODEL 9
REMARK VINA RESULT:      -7.4      4.174      5.627
REMARK  Name = 
REMARK  6 active torsions:
REMARK  status: ('A' for Active; 'I' for Inactive)
REMARK    1  A    between atoms: C_1  and  C_2
REMARK    2  A    between atoms: C_2  and  C_3
REMARK    3  A    between atoms: C_2  and  C_19
REMARK    4  A    between atoms: C_3  and  C_4
REMARK    5  A    between atoms: N_6  and  C_7
REMARK    6  A    between atoms: C_7  and  C_8
REMARK                            x       y       z     vdW  Elec       q    Type
REMARK                         _______ _______ _______ _____ _____    ______ ____
ROOT
ATOM      1  C   UNL     1       8.029   8.203  18.064  0.00  0.00    +0.000 C 
ATOM      2  O   UNL     1       8.567   7.534  18.941  0.00  0.00    +0.000 OA
ATOM      3  N   UNL     1       7.066   7.714  17.210  0.00  0.00    +0.000 N 
ATOM      4  H   UNL     1       6.621   8.377  16.578  0.00  0.00    +0.000 HD
ENDROOT
BRANCH   3   5
ATOM      5  C   UNL     1       6.594   6.289  17.237  0.00  0.00    +0.000 C 
ATOM      6  C   UNL     1       6.844   5.517  15.894  0.00  0.00    +0.000 C 
ATOM      7  O   UNL     1       7.498   4.429  16.602  0.00  0.00    +0.000 OA
ATOM      8  C   UNL     1       7.718   5.311  17.730  0.00  0.00    +0.000 C 
BRANCH   5   9
ATOM      9  C   UNL     1       5.168   6.143  17.940  0.00  0.00    +0.000 A 
ATOM     10  C   UNL     1       4.979   5.405  19.120  0.00  0.00    +0.000 A 
ATOM     11  F   UNL     1       6.028   4.806  19.699  0.00  0.00    +0.000 F 
ATOM     12  C   UNL     1       3.734   5.259  19.738  0.00  0.00    +0.000 A 
ATOM     13  C   UNL     1       2.611   5.863  19.186  0.00  0.00    +0.000 A 
ATOM     14  C   UNL     1       2.745   6.596  18.014  0.00  0.00    +0.000 A 
ATOM     15  C   UNL     1       3.999   6.716  17.409  0.00  0.00    +0.000 A 
ATOM     16  F   UNL     1       4.071   7.405  16.260  0.00  0.00    +0.000 F 
ENDBRANCH   5   9
ENDBRANCH   3   5
BRANCH   1  17
ATOM     17  C   UNL     1       8.354   9.668  17.869  0.00  0.00    +0.000 C 
BRANCH  17  19
ATOM     18  C   UNL     1       9.025  10.453  20.188  0.00  0.00    +0.000 C 
ATOM     19  C   UNL     1       9.502  10.150  18.765  0.00  0.00    +0.000 C 
BRANCH  19  20
ATOM     20  C   UNL     1      10.226  11.321  18.174  0.00  0.00    +0.000 A 
ATOM     21  C   UNL     1      11.557  11.602  17.948  0.00  0.00    +0.000 A 
ATOM     22  C   UNL     1      11.601  12.885  17.359  0.00  0.00    +0.000 A 
ATOM     23  C   UNL     1      10.298  13.315  17.271  0.00  0.00    +0.000 A 
ATOM     24  O   UNL     1       9.455  12.377  17.775  0.00  0.00    +0.000 OA
ENDBRANCH  19  20
ENDBRANCH  17  19
ENDBRANCH   1  17
TORSDOF 5
ENDMDL
