MODEL 1
REMARK VINA RESULT:      -7.6      0.000      0.000
REMARK  Name = 
REMARK  4 active torsions:
REMARK  status: ('A' for Active; 'I' for Inactive)
REMARK    1  A    between atoms: C_8  and  C_9
REMARK    2  A    between atoms: C_12  and  O_13
REMARK    3  A    between atoms: C_14  and  C_15
REMARK    4  A    between atoms: C_15  and  O_17
REMARK                            x       y       z     vdW  Elec       q    Type
REMARK                         _______ _______ _______ _____ _____    ______ ____
ROOT
ATOM      1  C   UNL     1       3.603   3.584  17.662  0.00  0.00    +0.000 A 
ATOM      2  C   UNL     1       2.293   3.842  17.249  0.00  0.00    +0.000 A 
ATOM      3  C   UNL     1       1.229   3.709  18.145  0.00  0.00    +0.000 A 
ATOM      4  C   UNL     1       1.476   3.307  19.459  0.00  0.00    +0.000 A 
ATOM      5  C   UNL     1       2.779   3.016  19.886  0.00  0.00    +0.000 A 
ATOM      6  C   UNL     1       3.840   3.160  18.974  0.00  0.00    +0.000 A 
ENDROOT
BRANCH   1  14
ATOM      7  O   UNL     1       6.901   4.240  14.852  0.00  0.00    +0.000 OA
ATOM      8  C   UNL     1       6.693   4.964  15.811  0.00  0.00    +0.000 C 
ATOM      9  N   UNL     1       7.425   6.076  16.122  0.00  0.00    +0.000 N 
ATOM     10  C   UNL     1       7.056   6.803  17.213  0.00  0.00    +0.000 C 
ATOM     11  S   UNL     1       7.833   8.178  17.706  0.00  0.00    +0.000 S 
ATOM     12  S   UNL     1       5.662   6.065  17.969  0.00  0.00    +0.000 S 
ATOM     13  C   UNL     1       5.598   4.792  16.804  0.00  0.00    +0.000 C 
ATOM     14  C   UNL     1       4.720   3.784  16.733  0.00  0.00    +0.000 C 
ATOM     15  H   UNL     1       8.205   6.349  15.543  0.00  0.00    +0.000 HD
ENDBRANCH   1  14
BRANCH   4  16
ATOM     16  O   UNL     1       0.424   3.203  20.335  0.00  0.00    +0.000 OA
ATOM     17  H   UNL     1       0.312   2.264  20.578  0.00  0.00    +0.000 HD
ENDBRANCH   4  16
BRANCH   5  18
ATOM     18  C   UNL     1       3.125   2.563  21.266  0.00  0.00    +0.000 C 
ATOM     19  O   UNL     1       2.419   2.810  22.230  0.00  0.00    +0.000 OA
BRANCH  18  20
ATOM     20  O   UNL     1       4.275   1.866  21.373  0.00  0.00    +0.000 OA
ATOM     21  H   UNL     1       4.481   1.622  22.301  0.00  0.00    +0.000 HD
ENDBRANCH  18  20
ENDBRANCH   5  18
TORSDOF 4
ENDMDL
MODEL 2
REMARK VINA RESULT:      -7.1      1.890      2.278
REMARK  Name = 
REMARK  4 active torsions:
REMARK  status: ('A' for Active; 'I' for Inactive)
REMARK    1  A    between atoms: C_8  and  C_9
REMARK    2  A    between atoms: C_12  and  O_13
REMARK    3  A    between atoms: C_14  and  C_15
REMARK    4  A    between atoms: C_15  and  O_17
REMARK                            x       y       z     vdW  Elec       q    Type
REMARK                         _______ _______ _______ _____ _____    ______ ____
ROOT
ATOM      1  C   UNL     1       3.600   4.791  18.658  0.00  0.00    +0.000 A 
ATOM      2  C   UNL     1       2.534   4.757  17.754  0.00  0.00    +0.000 A 
ATOM      3  C   UNL     1       1.366   4.057  18.063  0.00  0.00    +0.000 A 
ATOM      4  C   UNL     1       1.265   3.381  19.280  0.00  0.00    +0.000 A 
ATOM      5  C   UNL     1       2.332   3.379  20.189  0.00  0.00    +0.000 A 
ATOM      6  C   UNL     1       3.500   4.093  19.866  0.00  0.00    +0.000 A 
ENDROOT
BRANCH   1  14
ATOM      7  O   UNL     1       7.230   7.076  17.761  0.00  0.00    +0.000 OA
ATOM      8  C   UNL     1       6.752   6.261  16.989  0.00  0.00    +0.000 C 
ATOM      9  N   UNL     1       7.285   5.931  15.775  0.00  0.00    +0.000 N 
ATOM     10  C   UNL     1       6.652   4.981  15.033  0.00  0.00    +0.000 C 
ATOM     11  S   UNL     1       7.184   4.465  13.553  0.00  0.00    +0.000 S 
ATOM     12  S   UNL     1       5.236   4.412  15.888  0.00  0.00    +0.000 S 
ATOM     13  C   UNL     1       5.521   5.461  17.230  0.00  0.00    +0.000 C 
ATOM     14  C   UNL     1       4.799   5.577  18.352  0.00  0.00    +0.000 C 
ATOM     15  H   UNL     1       8.134   6.374  15.455  0.00  0.00    +0.000 HD
ENDBRANCH   1  14
BRANCH   4  16
ATOM     16  O   UNL     1       0.102   2.717  19.582  0.00  0.00    +0.000 OA
ATOM     17  H   UNL     1      -0.126   2.894  20.514  0.00  0.00    +0.000 HD
ENDBRANCH   4  16
BRANCH   5  18
ATOM     18  C   UNL     1       2.312   2.666  21.501  0.00  0.00    +0.000 C 
ATOM     19  O   UNL     1       3.301   2.118  21.962  0.00  0.00    +0.000 OA
BRANCH  18  20
ATOM     20  O   UNL     1       1.125   2.666  22.140  0.00  0.00    +0.000 OA
ATOM     21  H   UNL     1       1.087   3.328  22.863  0.00  0.00    +0.000 HD
ENDBRANCH  18  20
ENDBRANCH   5  18
TORSDOF 4
ENDMDL
MODEL 3
REMARK VINA RESULT:      -6.9      1.990      2.325
REMARK  Name = 
REMARK  4 active torsions:
REMARK  status: ('A' for Active; 'I' for Inactive)
REMARK    1  A    between atoms: C_8  and  C_9
REMARK    2  A    between atoms: C_12  and  O_13
REMARK    3  A    between atoms: C_14  and  C_15
REMARK    4  A    between atoms: C_15  and  O_17
REMARK                            x       y       z     vdW  Elec       q    Type
REMARK                         _______ _______ _______ _____ _____    ______ ____
ROOT
ATOM      1  C   UNL     1       4.024   5.165  18.550  0.00  0.00    +0.000 A 
ATOM      2  C   UNL     1       2.764   5.577  18.110  0.00  0.00    +0.000 A 
ATOM      3  C   UNL     1       1.606   5.068  18.702  0.00  0.00    +0.000 A 
ATOM      4  C   UNL     1       1.708   4.135  19.735  0.00  0.00    +0.000 A 
ATOM      5  C   UNL     1       2.962   3.687  20.174  0.00  0.00    +0.000 A 
ATOM      6  C   UNL     1       4.119   4.213  19.572  0.00  0.00    +0.000 A 
ENDROOT
BRANCH   1  14
ATOM      7  O   UNL     1       7.685   6.840  16.819  0.00  0.00    +0.000 OA
ATOM      8  C   UNL     1       6.998   6.012  16.244  0.00  0.00    +0.000 C 
ATOM      9  N   UNL     1       7.282   5.480  15.017  0.00  0.00    +0.000 N 
ATOM     10  C   UNL     1       6.433   4.542  14.512  0.00  0.00    +0.000 C 
ATOM     11  S   UNL     1       6.651   3.797  13.051  0.00  0.00    +0.000 S 
ATOM     12  S   UNL     1       5.124   4.264  15.640  0.00  0.00    +0.000 S 
ATOM     13  C   UNL     1       5.744   5.412  16.772  0.00  0.00    +0.000 C 
ATOM     14  C   UNL     1       5.236   5.748  17.965  0.00  0.00    +0.000 C 
ATOM     15  H   UNL     1       8.109   5.770  14.517  0.00  0.00    +0.000 HD
ENDBRANCH   1  14
BRANCH   4  16
ATOM     16  O   UNL     1       0.563   3.661  20.324  0.00  0.00    +0.000 OA
ATOM     17  H   UNL     1      -0.082   4.392  20.387  0.00  0.00    +0.000 HD
ENDBRANCH   4  16
BRANCH   5  18
ATOM     18  C   UNL     1       3.158   2.680  21.258  0.00  0.00    +0.000 C 
ATOM     19  O   UNL     1       2.336   2.505  22.144  0.00  0.00    +0.000 OA
BRANCH  18  20
ATOM     20  O   UNL     1       4.308   1.979  21.195  0.00  0.00    +0.000 OA
ATOM     21  H   UNL     1       5.065   2.461  21.593  0.00  0.00    +0.000 HD
ENDBRANCH  18  20
ENDBRANCH   5  18
TORSDOF 4
ENDMDL
MODEL 4
REMARK VINA RESULT:      -6.9      4.801      5.778
REMARK  Name = 
REMARK  4 active torsions:
REMARK  status: ('A' for Active; 'I' for Inactive)
REMARK    1  A    between atoms: C_8  and  C_9
REMARK    2  A    between atoms: C_12  and  O_13
REMARK    3  A    between atoms: C_14  and  C_15
REMARK    4  A    between atoms: C_15  and  O_17
REMARK                            x       y       z     vdW  Elec       q    Type
REMARK                         _______ _______ _______ _____ _____    ______ ____
ROOT
ATOM      1  C   UNL     1       2.901   6.432  18.177  0.00  0.00    +0.000 A 
ATOM      2  C   UNL     1       2.087   5.321  17.938  0.00  0.00    +0.000 A 
ATOM      3  C   UNL     1       2.614   4.029  18.013  0.00  0.00    +0.000 A 
ATOM      4  C   UNL     1       3.963   3.848  18.322  0.00  0.00    +0.000 A 
ATOM      5  C   UNL     1       4.803   4.950  18.539  0.00  0.00    +0.000 A 
ATOM      6  C   UNL     1       4.257   6.244  18.465  0.00  0.00    +0.000 A 
ENDROOT
BRANCH   1  14
ATOM      7  O   UNL     1       1.115  10.433  18.110  0.00  0.00    +0.000 OA
ATOM      8  C   UNL     1       1.144   9.738  19.110  0.00  0.00    +0.000 C 
ATOM      9  N   UNL     1       0.610  10.087  20.319  0.00  0.00    +0.000 N 
ATOM     10  C   UNL     1       0.696   9.192  21.342  0.00  0.00    +0.000 C 
ATOM     11  S   UNL     1       0.084   9.465  22.855  0.00  0.00    +0.000 S 
ATOM     12  S   UNL     1       1.526   7.751  20.797  0.00  0.00    +0.000 S 
ATOM     13  C   UNL     1       1.741   8.378  19.201  0.00  0.00    +0.000 C 
ATOM     14  C   UNL     1       2.328   7.781  18.155  0.00  0.00    +0.000 C 
ATOM     15  H   UNL     1       0.153  10.979  20.434  0.00  0.00    +0.000 HD
ENDBRANCH   1  14
BRANCH   4  16
ATOM     16  O   UNL     1       4.462   2.573  18.416  0.00  0.00    +0.000 OA
ATOM     17  H   UNL     1       4.732   2.410  19.340  0.00  0.00    +0.000 HD
ENDBRANCH   4  16
BRANCH   5  18
ATOM     18  C   UNL     1       6.258   4.843  18.854  0.00  0.00    +0.000 C 
ATOM     19  O   UNL     1       6.757   5.385  19.828  0.00  0.00    +0.000 OA
BRANCH  18  20
ATOM     20  O   UNL     1       6.985   4.110  17.986  0.00  0.00    +0.000 OA
ATOM     21  H   UNL     1       7.951   4.202  18.133  0.00  0.00    +0.000 HD
ENDBRANCH  18  20
ENDBRANCH   5  18
TORSDOF 4
ENDMDL
MODEL 5
REMARK VINA RESULT:      -6.8      4.425      5.252
REMARK  Name = 
REMARK  4 active torsions:
REMARK  status: ('A' for Active; 'I' for Inactive)
REMARK    1  A    between atoms: C_8  and  C_9
REMARK    2  A    between atoms: C_12  and  O_13
REMARK    3  A    between atoms: C_14  and  C_15
REMARK    4  A    between atoms: C_15  and  O_17
REMARK                            x       y       z     vdW  Elec       q    Type
REMARK                         _______ _______ _______ _____ _____    ______ ____
ROOT
ATOM      1  C   UNL     1       3.413   5.904  18.564  0.00  0.00    +0.000 A 
ATOM      2  C   UNL     1       4.757   5.749  18.912  0.00  0.00    +0.000 A 
ATOM      3  C   UNL     1       5.263   4.489  19.238  0.00  0.00    +0.000 A 
ATOM      4  C   UNL     1       4.418   3.378  19.223  0.00  0.00    +0.000 A 
ATOM      5  C   UNL     1       3.060   3.516  18.904  0.00  0.00    +0.000 A 
ATOM      6  C   UNL     1       2.566   4.790  18.573  0.00  0.00    +0.000 A 
ENDROOT
BRANCH   1  14
ATOM      7  O   UNL     1       1.815   9.804  17.363  0.00  0.00    +0.000 OA
ATOM      8  C   UNL     1       1.640   9.330  18.472  0.00  0.00    +0.000 C 
ATOM      9  N   UNL     1       0.913   9.920  19.468  0.00  0.00    +0.000 N 
ATOM     10  C   UNL     1       0.784   9.256  20.649  0.00  0.00    +0.000 C 
ATOM     11  S   UNL     1      -0.077   9.834  21.939  0.00  0.00    +0.000 S 
ATOM     12  S   UNL     1       1.644   7.734  20.568  0.00  0.00    +0.000 S 
ATOM     13  C   UNL     1       2.161   8.018  18.944  0.00  0.00    +0.000 C 
ATOM     14  C   UNL     1       2.902   7.220  18.165  0.00  0.00    +0.000 C 
ATOM     15  H   UNL     1       0.476  10.817  19.314  0.00  0.00    +0.000 HD
ENDBRANCH   1  14
BRANCH   4  16
ATOM     16  O   UNL     1       4.934   2.142  19.523  0.00  0.00    +0.000 OA
ATOM     17  H   UNL     1       5.578   2.240  20.250  0.00  0.00    +0.000 HD
ENDBRANCH   4  16
BRANCH   5  18
ATOM     18  C   UNL     1       2.087   2.383  18.884  0.00  0.00    +0.000 C 
ATOM     19  O   UNL     1       0.929   2.511  19.250  0.00  0.00    +0.000 OA
BRANCH  18  20
ATOM     20  O   UNL     1       2.576   1.209  18.439  0.00  0.00    +0.000 OA
ATOM     21  H   UNL     1       1.868   0.569  18.209  0.00  0.00    +0.000 HD
ENDBRANCH  18  20
ENDBRANCH   5  18
TORSDOF 4
ENDMDL
MODEL 6
REMARK VINA RESULT:      -6.7      2.316      2.890
REMARK  Name = 
REMARK  4 active torsions:
REMARK  status: ('A' for Active; 'I' for Inactive)
REMARK    1  A    between atoms: C_8  and  C_9
REMARK    2  A    between atoms: C_12  and  O_13
REMARK    3  A    between atoms: C_14  and  C_15
REMARK    4  A    between atoms: C_15  and  O_17
REMARK                            x       y       z     vdW  Elec       q    Type
REMARK                         _______ _______ _______ _____ _____    ______ ____
ROOT
ATOM      1  C   UNL     1       4.032   5.333  18.634  0.00  0.00    +0.000 A 
ATOM      2  C   UNL     1       3.202   6.147  19.409  0.00  0.00    +0.000 A 
ATOM      3  C   UNL     1       2.059   5.619  20.015  0.00  0.00    +0.000 A 
ATOM      4  C   UNL     1       1.741   4.272  19.839  0.00  0.00    +0.000 A 
ATOM      5  C   UNL     1       2.545   3.444  19.043  0.00  0.00    +0.000 A 
ATOM      6  C   UNL     1       3.695   3.988  18.444  0.00  0.00    +0.000 A 
ENDROOT
BRANCH   1  14
ATOM      7  O   UNL     1       7.744   6.896  16.907  0.00  0.00    +0.000 OA
ATOM      8  C   UNL     1       7.030   6.093  16.329  0.00  0.00    +0.000 C 
ATOM      9  N   UNL     1       7.296   5.556  15.101  0.00  0.00    +0.000 N 
ATOM     10  C   UNL     1       6.417   4.649  14.592  0.00  0.00    +0.000 C 
ATOM     11  S   UNL     1       6.610   3.903  13.128  0.00  0.00    +0.000 S 
ATOM     12  S   UNL     1       5.101   4.408  15.720  0.00  0.00    +0.000 S 
ATOM     13  C   UNL     1       5.757   5.531  16.856  0.00  0.00    +0.000 C 
ATOM     14  C   UNL     1       5.261   5.879  18.050  0.00  0.00    +0.000 C 
ATOM     15  H   UNL     1       8.132   5.821  14.600  0.00  0.00    +0.000 HD
ENDBRANCH   1  14
BRANCH   4  16
ATOM     16  O   UNL     1       0.628   3.761  20.460  0.00  0.00    +0.000 OA
ATOM     17  H   UNL     1       0.080   4.504  20.780  0.00  0.00    +0.000 HD
ENDBRANCH   4  16
BRANCH   5  18
ATOM     18  C   UNL     1       2.264   2.000  18.789  0.00  0.00    +0.000 C 
ATOM     19  O   UNL     1       3.153   1.168  18.700  0.00  0.00    +0.000 OA
BRANCH  18  20
ATOM     20  O   UNL     1       0.961   1.679  18.660  0.00  0.00    +0.000 OA
ATOM     21  H   UNL     1       0.461   1.789  19.497  0.00  0.00    +0.000 HD
ENDBRANCH  18  20
ENDBRANCH   5  18
TORSDOF 4
ENDMDL
MODEL 7
REMARK VINA RESULT:      -6.6      2.415      2.896
REMARK  Name = 
REMARK  4 active torsions:
REMARK  status: ('A' for Active; 'I' for Inactive)
REMARK    1  A    between atoms: C_8  and  C_9
REMARK    2  A    between atoms: C_12  and  O_13
REMARK    3  A    between atoms: C_14  and  C_15
REMARK    4  A    between atoms: C_15  and  O_17
REMARK                            x       y       z     vdW  Elec       q    Type
REMARK                         _______ _______ _______ _____ _____    ______ ____
ROOT
ATOM      1  C   UNL     1       4.292   5.218  19.405  0.00  0.00    +0.000 A 
ATOM      2  C   UNL     1       3.700   6.471  19.228  0.00  0.00    +0.000 A 
ATOM      3  C   UNL     1       2.406   6.715  19.695  0.00  0.00    +0.000 A 
ATOM      4  C   UNL     1       1.698   5.697  20.335  0.00  0.00    +0.000 A 
ATOM      5  C   UNL     1       2.262   4.424  20.498  0.00  0.00    +0.000 A 
ATOM      6  C   UNL     1       3.568   4.195  20.028  0.00  0.00    +0.000 A 
ENDROOT
BRANCH   1  14
ATOM      7  O   UNL     1       8.400   4.450  18.087  0.00  0.00    +0.000 OA
ATOM      8  C   UNL     1       7.452   4.469  17.321  0.00  0.00    +0.000 C 
ATOM      9  N   UNL     1       7.529   4.230  15.978  0.00  0.00    +0.000 N 
ATOM     10  C   UNL     1       6.376   4.260  15.253  0.00  0.00    +0.000 C 
ATOM     11  S   UNL     1       6.307   3.976  13.625  0.00  0.00    +0.000 S 
ATOM     12  S   UNL     1       5.027   4.626  16.306  0.00  0.00    +0.000 S 
ATOM     13  C   UNL     1       6.038   4.730  17.703  0.00  0.00    +0.000 C 
ATOM     14  C   UNL     1       5.672   4.987  18.966  0.00  0.00    +0.000 C 
ATOM     15  H   UNL     1       8.418   4.023  15.549  0.00  0.00    +0.000 HD
ENDBRANCH   1  14
BRANCH   4  16
ATOM     16  O   UNL     1       0.436   5.957  20.809  0.00  0.00    +0.000 OA
ATOM     17  H   UNL     1       0.491   6.681  21.462  0.00  0.00    +0.000 HD
ENDBRANCH   4  16
BRANCH   5  18
ATOM     18  C   UNL     1       1.565   3.277  21.152  0.00  0.00    +0.000 C 
ATOM     19  O   UNL     1       1.998   2.738  22.158  0.00  0.00    +0.000 OA
BRANCH  18  20
ATOM     20  O   UNL     1       0.426   2.875  20.552  0.00  0.00    +0.000 OA
ATOM     21  H   UNL     1      -0.218   2.493  21.186  0.00  0.00    +0.000 HD
ENDBRANCH  18  20
ENDBRANCH   5  18
TORSDOF 4
ENDMDL
MODEL 8
REMARK VINA RESULT:      -6.6      4.287      5.124
REMARK  Name = 
REMARK  4 active torsions:
REMARK  status: ('A' for Active; 'I' for Inactive)
REMARK    1  A    between atoms: C_8  and  C_9
REMARK    2  A    between atoms: C_12  and  O_13
REMARK    3  A    between atoms: C_14  and  C_15
REMARK    4  A    between atoms: C_15  and  O_17
REMARK                            x       y       z     vdW  Elec       q    Type
REMARK                         _______ _______ _______ _____ _____    ______ ____
ROOT
ATOM      1  C   UNL     1       3.371   5.785  18.811  0.00  0.00    +0.000 A 
ATOM      2  C   UNL     1       4.609   5.321  18.357  0.00  0.00    +0.000 A 
ATOM      3  C   UNL     1       5.088   4.073  18.762  0.00  0.00    +0.000 A 
ATOM      4  C   UNL     1       4.329   3.288  19.631  0.00  0.00    +0.000 A 
ATOM      5  C   UNL     1       3.098   3.746  20.120  0.00  0.00    +0.000 A 
ATOM      6  C   UNL     1       2.626   5.002  19.699  0.00  0.00    +0.000 A 
ENDROOT
BRANCH   1  14
ATOM      7  O   UNL     1       1.732   9.590  17.384  0.00  0.00    +0.000 OA
ATOM      8  C   UNL     1       1.585   9.193  18.527  0.00  0.00    +0.000 C 
ATOM      9  N   UNL     1       0.880   9.849  19.496  0.00  0.00    +0.000 N 
ATOM     10  C   UNL     1       0.781   9.267  20.724  0.00  0.00    +0.000 C 
ATOM     11  S   UNL     1      -0.050   9.931  21.991  0.00  0.00    +0.000 S 
ATOM     12  S   UNL     1       1.645   7.745  20.726  0.00  0.00    +0.000 S 
ATOM     13  C   UNL     1       2.122   7.918  19.075  0.00  0.00    +0.000 C 
ATOM     14  C   UNL     1       2.847   7.069  18.335  0.00  0.00    +0.000 C 
ATOM     15  H   UNL     1       0.437  10.732  19.292  0.00  0.00    +0.000 HD
ENDBRANCH   1  14
BRANCH   4  16
ATOM     16  O   UNL     1       4.802   2.054  20.002  0.00  0.00    +0.000 OA
ATOM     17  H   UNL     1       5.051   1.559  19.197  0.00  0.00    +0.000 HD
ENDBRANCH   4  16
BRANCH   5  18
ATOM     18  C   UNL     1       2.236   2.978  21.066  0.00  0.00    +0.000 C 
ATOM     19  O   UNL     1       2.684   2.433  22.062  0.00  0.00    +0.000 OA
BRANCH  18  20
ATOM     20  O   UNL     1       0.928   2.923  20.742  0.00  0.00    +0.000 OA
ATOM     21  H   UNL     1       0.741   2.261  20.042  0.00  0.00    +0.000 HD
ENDBRANCH  18  20
ENDBRANCH   5  18
TORSDOF 4
ENDMDL
MODEL 9
REMARK VINA RESULT:      -6.5      4.705      5.746
REMARK  Name = 
REMARK  4 active torsions:
REMARK  status: ('A' for Active; 'I' for Inactive)
REMARK    1  A    between atoms: C_8  and  C_9
REMARK    2  A    between atoms: C_12  and  O_13
REMARK    3  A    between atoms: C_14  and  C_15
REMARK    4  A    between atoms: C_15  and  O_17
REMARK                            x       y       z     vdW  Elec       q    Type
REMARK                         _______ _______ _______ _____ _____    ______ ____
ROOT
ATOM      1  C   UNL     1       2.896   6.520  18.098  0.00  0.00    +0.000 A 
ATOM      2  C   UNL     1       4.284   6.399  17.987  0.00  0.00    +0.000 A 
ATOM      3  C   UNL     1       4.882   5.138  17.930  0.00  0.00    +0.000 A 
ATOM      4  C   UNL     1       4.089   3.991  17.993  0.00  0.00    +0.000 A 
ATOM      5  C   UNL     1       2.698   4.089  18.132  0.00  0.00    +0.000 A 
ATOM      6  C   UNL     1       2.109   5.365  18.182  0.00  0.00    +0.000 A 
ENDROOT
BRANCH   1  14
ATOM      7  O   UNL     1       0.952  10.447  18.094  0.00  0.00    +0.000 OA
ATOM      8  C   UNL     1       1.047   9.755  19.094  0.00  0.00    +0.000 C 
ATOM      9  N   UNL     1       0.546  10.086  20.322  0.00  0.00    +0.000 N 
ATOM     10  C   UNL     1       0.706   9.198  21.342  0.00  0.00    +0.000 C 
ATOM     11  S   UNL     1       0.142   9.450  22.877  0.00  0.00    +0.000 S 
ATOM     12  S   UNL     1       1.571   7.790  20.767  0.00  0.00    +0.000 S 
ATOM     13  C   UNL     1       1.700   8.420  19.163  0.00  0.00    +0.000 C 
ATOM     14  C   UNL     1       2.270   7.845  18.096  0.00  0.00    +0.000 C 
ATOM     15  H   UNL     1       0.058  10.960  20.453  0.00  0.00    +0.000 HD
ENDBRANCH   1  14
BRANCH   4  16
ATOM     16  O   UNL     1       4.689   2.759  17.913  0.00  0.00    +0.000 OA
ATOM     17  H   UNL     1       5.497   2.768  18.461  0.00  0.00    +0.000 HD
ENDBRANCH   4  16
BRANCH   5  18
ATOM     18  C   UNL     1       1.782   2.914  18.225  0.00  0.00    +0.000 C 
ATOM     19  O   UNL     1       0.818   2.895  18.974  0.00  0.00    +0.000 OA
BRANCH  18  20
ATOM     20  O   UNL     1       2.096   1.872  17.428  0.00  0.00    +0.000 OA
ATOM     21  H   UNL     1       2.387   1.085  17.936  0.00  0.00    +0.000 HD
ENDBRANCH  18  20
ENDBRANCH   5  18
TORSDOF 4
ENDMDL
