MODEL 1
REMARK VINA RESULT:      -8.2      0.000      0.000
REMARK  Name = 
REMARK  9 active torsions:
REMARK  status: ('A' for Active; 'I' for Inactive)
REMARK    1  A    between atoms: C_1  and  C_2
REMARK    2  A    between atoms: C_2  and  N_3
REMARK    3  A    between atoms: C_4  and  C_5
REMARK    4  A    between atoms: C_5  and  O_6
REMARK    5  A    between atoms: C_5  and  C_7
REMARK    6  A    between atoms: C_5  and  C_13
REMARK    7  A    between atoms: C_23  and  C_24
REMARK    8  A    between atoms: C_24  and  O_25
REMARK    9  A    between atoms: O_25  and  C_26
REMARK                            x       y       z     vdW  Elec       q    Type
REMARK                         _______ _______ _______ _____ _____    ______ ____
ROOT
ATOM      1  N   UNL     1       2.780   6.534  19.593  0.00  0.00    +0.000 N 
ATOM      2  C   UNL     1       3.624   6.233  18.529  0.00  0.00    +0.000 A 
ATOM      3  N   UNL     1       3.598   7.242  17.661  0.00  0.00    +0.000 NA
ATOM      4  C   UNL     1       2.719   8.168  18.134  0.00  0.00    +0.000 A 
ATOM      5  C   UNL     1       2.344   9.399  17.580  0.00  0.00    +0.000 A 
ATOM      6  C   UNL     1       1.400  10.180  18.254  0.00  0.00    +0.000 A 
ATOM      7  C   UNL     1       0.838   9.751  19.465  0.00  0.00    +0.000 A 
ATOM      8  C   UNL     1       1.205   8.508  20.015  0.00  0.00    +0.000 A 
ATOM      9  C   UNL     1       2.165   7.747  19.330  0.00  0.00    +0.000 A 
ENDROOT
BRANCH   1  11
ATOM     10  C   UNL     1       1.296   4.930  20.758  0.00  0.00    +0.000 C 
ATOM     11  C   UNL     1       2.547   5.794  20.821  0.00  0.00    +0.000 C 
ENDBRANCH   1  11
BRANCH   2  12
ATOM     12  C   UNL     1       4.481   4.951  18.315  0.00  0.00    +0.000 C 
BRANCH  12  13
ATOM     13  C   UNL     1       3.581   3.685  18.417  0.00  0.00    +0.000 A 
ATOM     14  C   UNL     1       2.326   3.658  17.774  0.00  0.00    +0.000 A 
ATOM     15  C   UNL     1       1.439   2.593  17.945  0.00  0.00    +0.000 A 
ATOM     16  C   UNL     1       1.786   1.516  18.754  0.00  0.00    +0.000 A 
ATOM     17  C   UNL     1       3.033   1.492  19.367  0.00  0.00    +0.000 A 
ATOM     18  C   UNL     1       3.927   2.553  19.186  0.00  0.00    +0.000 A 
ENDBRANCH  12  13
BRANCH  12  19
ATOM     19  C   UNL     1       5.317   4.992  17.020  0.00  0.00    +0.000 A 
ATOM     20  C   UNL     1       4.842   4.367  15.848  0.00  0.00    +0.000 A 
ATOM     21  C   UNL     1       5.612   4.315  14.682  0.00  0.00    +0.000 A 
ATOM     22  C   UNL     1       6.870   4.909  14.651  0.00  0.00    +0.000 A 
ATOM     23  C   UNL     1       7.346   5.573  15.776  0.00  0.00    +0.000 A 
ATOM     24  C   UNL     1       6.575   5.621  16.943  0.00  0.00    +0.000 A 
ENDBRANCH  12  19
BRANCH  12  25
ATOM     25  O   UNL     1       5.446   4.921  19.378  0.00  0.00    +0.000 OA
ATOM     26  H   UNL     1       6.107   5.587  19.156  0.00  0.00    +0.000 HD
ENDBRANCH  12  25
ENDBRANCH   2  12
BRANCH   7  27
ATOM     27  C   UNL     1      -0.151  10.631  20.193  0.00  0.00    +0.000 C 
BRANCH  27  28
ATOM     28  O   UNL     1      -0.710  11.582  19.289  0.00  0.00    +0.000 OA
BRANCH  28  29
ATOM     29  C   UNL     1      -1.950  11.276  18.789  0.00  0.00    +0.000 A 
ATOM     30  C   UNL     1      -2.234  10.257  17.875  0.00  0.00    +0.000 A 
ATOM     31  C   UNL     1      -3.544  10.046  17.438  0.00  0.00    +0.000 A 
ATOM     32  C   UNL     1      -4.579  10.850  17.906  0.00  0.00    +0.000 A 
ATOM     33  C   UNL     1      -4.305  11.866  18.820  0.00  0.00    +0.000 A 
ATOM     34  C   UNL     1      -2.995  12.078  19.257  0.00  0.00    +0.000 A 
ENDBRANCH  28  29
ENDBRANCH  27  28
ENDBRANCH   7  27
TORSDOF 8
ENDMDL
MODEL 2
REMARK VINA RESULT:      -8.1      2.424      4.176
REMARK  Name = 
REMARK  9 active torsions:
REMARK  status: ('A' for Active; 'I' for Inactive)
REMARK    1  A    between atoms: C_1  and  C_2
REMARK    2  A    between atoms: C_2  and  N_3
REMARK    3  A    between atoms: C_4  and  C_5
REMARK    4  A    between atoms: C_5  and  O_6
REMARK    5  A    between atoms: C_5  and  C_7
REMARK    6  A    between atoms: C_5  and  C_13
REMARK    7  A    between atoms: C_23  and  C_24
REMARK    8  A    between atoms: C_24  and  O_25
REMARK    9  A    between atoms: O_25  and  C_26
REMARK                            x       y       z     vdW  Elec       q    Type
REMARK                         _______ _______ _______ _____ _____    ______ ____
ROOT
ATOM      1  N   UNL     1       2.595   6.449  19.787  0.00  0.00    +0.000 N 
ATOM      2  C   UNL     1       3.194   6.638  18.546  0.00  0.00    +0.000 A 
ATOM      3  N   UNL     1       2.851   7.836  18.081  0.00  0.00    +0.000 NA
ATOM      4  C   UNL     1       2.008   8.403  18.988  0.00  0.00    +0.000 A 
ATOM      5  C   UNL     1       1.376   9.653  18.953  0.00  0.00    +0.000 A 
ATOM      6  C   UNL     1       0.535  10.012  20.011  0.00  0.00    +0.000 A 
ATOM      7  C   UNL     1       0.326   9.146  21.094  0.00  0.00    +0.000 A 
ATOM      8  C   UNL     1       0.951   7.885  21.124  0.00  0.00    +0.000 A 
ATOM      9  C   UNL     1       1.802   7.552  20.060  0.00  0.00    +0.000 A 
ENDROOT
BRANCH   1  11
ATOM     10  C   UNL     1       1.517   4.447  20.768  0.00  0.00    +0.000 C 
ATOM     11  C   UNL     1       2.743   5.347  20.722  0.00  0.00    +0.000 C 
ENDBRANCH   1  11
BRANCH   2  12
ATOM     12  C   UNL     1       4.117   5.657  17.765  0.00  0.00    +0.000 C 
BRANCH  12  13
ATOM     13  C   UNL     1       5.611   5.991  18.047  0.00  0.00    +0.000 A 
ATOM     14  C   UNL     1       6.263   5.421  19.161  0.00  0.00    +0.000 A 
ATOM     15  C   UNL     1       7.561   5.792  19.518  0.00  0.00    +0.000 A 
ATOM     16  C   UNL     1       8.251   6.736  18.764  0.00  0.00    +0.000 A 
ATOM     17  C   UNL     1       7.653   7.284  17.636  0.00  0.00    +0.000 A 
ATOM     18  C   UNL     1       6.357   6.903  17.270  0.00  0.00    +0.000 A 
ENDBRANCH  12  13
BRANCH  12  19
ATOM     19  C   UNL     1       3.774   4.174  18.017  0.00  0.00    +0.000 A 
ATOM     20  C   UNL     1       2.648   3.591  17.399  0.00  0.00    +0.000 A 
ATOM     21  C   UNL     1       2.263   2.274  17.671  0.00  0.00    +0.000 A 
ATOM     22  C   UNL     1       3.009   1.499  18.552  0.00  0.00    +0.000 A 
ATOM     23  C   UNL     1       4.152   2.031  19.141  0.00  0.00    +0.000 A 
ATOM     24  C   UNL     1       4.533   3.350  18.869  0.00  0.00    +0.000 A 
ENDBRANCH  12  19
BRANCH  12  25
ATOM     25  O   UNL     1       3.850   5.867  16.370  0.00  0.00    +0.000 OA
ATOM     26  H   UNL     1       3.429   6.732  16.307  0.00  0.00    +0.000 HD
ENDBRANCH  12  25
ENDBRANCH   2  12
BRANCH   7  27
ATOM     27  C   UNL     1      -0.558   9.573  22.242  0.00  0.00    +0.000 C 
BRANCH  27  28
ATOM     28  O   UNL     1      -0.064  10.785  22.809  0.00  0.00    +0.000 OA
BRANCH  28  29
ATOM     29  C   UNL     1      -0.916  11.858  22.765  0.00  0.00    +0.000 A 
ATOM     30  C   UNL     1      -0.612  13.123  22.254  0.00  0.00    +0.000 A 
ATOM     31  C   UNL     1      -1.570  14.140  22.268  0.00  0.00    +0.000 A 
ATOM     32  C   UNL     1      -2.838  13.903  22.791  0.00  0.00    +0.000 A 
ATOM     33  C   UNL     1      -3.152  12.643  23.299  0.00  0.00    +0.000 A 
ATOM     34  C   UNL     1      -2.193  11.627  23.286  0.00  0.00    +0.000 A 
ENDBRANCH  28  29
ENDBRANCH  27  28
ENDBRANCH   7  27
TORSDOF 8
ENDMDL
MODEL 3
REMARK VINA RESULT:      -7.9      2.597      9.706
REMARK  Name = 
REMARK  9 active torsions:
REMARK  status: ('A' for Active; 'I' for Inactive)
REMARK    1  A    between atoms: C_1  and  C_2
REMARK    2  A    between atoms: C_2  and  N_3
REMARK    3  A    between atoms: C_4  and  C_5
REMARK    4  A    between atoms: C_5  and  O_6
REMARK    5  A    between atoms: C_5  and  C_7
REMARK    6  A    between atoms: C_5  and  C_13
REMARK    7  A    between atoms: C_23  and  C_24
REMARK    8  A    between atoms: C_24  and  O_25
REMARK    9  A    between atoms: O_25  and  C_26
REMARK                            x       y       z     vdW  Elec       q    Type
REMARK                         _______ _______ _______ _____ _____    ______ ____
ROOT
ATOM      1  N   UNL     1       0.911   9.816  20.916  0.00  0.00    +0.000 N 
ATOM      2  C   UNL     1       0.619  10.945  20.157  0.00  0.00    +0.000 A 
ATOM      3  N   UNL     1       0.914  10.694  18.884  0.00  0.00    +0.000 NA
ATOM      4  C   UNL     1       1.426   9.434  18.821  0.00  0.00    +0.000 A 
ATOM      5  C   UNL     1       1.885   8.718  17.708  0.00  0.00    +0.000 A 
ATOM      6  C   UNL     1       2.386   7.426  17.899  0.00  0.00    +0.000 A 
ATOM      7  C   UNL     1       2.428   6.848  19.176  0.00  0.00    +0.000 A 
ATOM      8  C   UNL     1       1.979   7.573  20.296  0.00  0.00    +0.000 A 
ATOM      9  C   UNL     1       1.467   8.861  20.080  0.00  0.00    +0.000 A 
ENDROOT
BRANCH   1  11
ATOM     10  C   UNL     1      -0.748   9.117  22.617  0.00  0.00    +0.000 C 
ATOM     11  C   UNL     1       0.676   9.570  22.328  0.00  0.00    +0.000 C 
ENDBRANCH   1  11
BRANCH   2  12
ATOM     12  C   UNL     1       0.050  12.309  20.644  0.00  0.00    +0.000 C 
BRANCH  12  13
ATOM     13  C   UNL     1       0.756  13.479  19.897  0.00  0.00    +0.000 A 
ATOM     14  C   UNL     1       2.163  13.572  19.904  0.00  0.00    +0.000 A 
ATOM     15  C   UNL     1       2.827  14.671  19.354  0.00  0.00    +0.000 A 
ATOM     16  C   UNL     1       2.102  15.704  18.768  0.00  0.00    +0.000 A 
ATOM     17  C   UNL     1       0.716  15.622  18.707  0.00  0.00    +0.000 A 
ATOM     18  C   UNL     1       0.052  14.515  19.247  0.00  0.00    +0.000 A 
ENDBRANCH  12  13
BRANCH  12  19
ATOM     19  C   UNL     1      -1.489  12.386  20.563  0.00  0.00    +0.000 A 
ATOM     20  C   UNL     1      -2.161  11.951  19.402  0.00  0.00    +0.000 A 
ATOM     21  C   UNL     1      -3.547  12.084  19.266  0.00  0.00    +0.000 A 
ATOM     22  C   UNL     1      -4.299  12.634  20.298  0.00  0.00    +0.000 A 
ATOM     23  C   UNL     1      -3.670  13.028  21.474  0.00  0.00    +0.000 A 
ATOM     24  C   UNL     1      -2.283  12.898  21.608  0.00  0.00    +0.000 A 
ENDBRANCH  12  19
BRANCH  12  25
ATOM     25  O   UNL     1       0.353  12.403  22.044  0.00  0.00    +0.000 OA
ATOM     26  H   UNL     1      -0.463  12.685  22.475  0.00  0.00    +0.000 HD
ENDBRANCH  12  25
ENDBRANCH   2  12
BRANCH   7  27
ATOM     27  C   UNL     1       2.939   5.437  19.351  0.00  0.00    +0.000 C 
BRANCH  27  28
ATOM     28  O   UNL     1       4.316   5.463  19.720  0.00  0.00    +0.000 OA
BRANCH  28  29
ATOM     29  C   UNL     1       5.208   5.148  18.727  0.00  0.00    +0.000 A 
ATOM     30  C   UNL     1       4.885   4.606  17.480  0.00  0.00    +0.000 A 
ATOM     31  C   UNL     1       5.890   4.324  16.551  0.00  0.00    +0.000 A 
ATOM     32  C   UNL     1       7.223   4.581  16.858  0.00  0.00    +0.000 A 
ATOM     33  C   UNL     1       7.553   5.126  18.098  0.00  0.00    +0.000 A 
ATOM     34  C   UNL     1       6.549   5.405  19.028  0.00  0.00    +0.000 A 
ENDBRANCH  28  29
ENDBRANCH  27  28
ENDBRANCH   7  27
TORSDOF 8
ENDMDL
MODEL 4
REMARK VINA RESULT:      -7.9      2.351      4.219
REMARK  Name = 
REMARK  9 active torsions:
REMARK  status: ('A' for Active; 'I' for Inactive)
REMARK    1  A    between atoms: C_1  and  C_2
REMARK    2  A    between atoms: C_2  and  N_3
REMARK    3  A    between atoms: C_4  and  C_5
REMARK    4  A    between atoms: C_5  and  O_6
REMARK    5  A    between atoms: C_5  and  C_7
REMARK    6  A    between atoms: C_5  and  C_13
REMARK    7  A    between atoms: C_23  and  C_24
REMARK    8  A    between atoms: C_24  and  O_25
REMARK    9  A    between atoms: O_25  and  C_26
REMARK                            x       y       z     vdW  Elec       q    Type
REMARK                         _______ _______ _______ _____ _____    ______ ____
ROOT
ATOM      1  N   UNL     1       2.493   6.915  19.674  0.00  0.00    +0.000 N 
ATOM      2  C   UNL     1       3.075   6.985  18.412  0.00  0.00    +0.000 A 
ATOM      3  N   UNL     1       2.723   8.134  17.841  0.00  0.00    +0.000 NA
ATOM      4  C   UNL     1       1.894   8.785  18.702  0.00  0.00    +0.000 A 
ATOM      5  C   UNL     1       1.260  10.026  18.556  0.00  0.00    +0.000 A 
ATOM      6  C   UNL     1       0.433  10.485  19.587  0.00  0.00    +0.000 A 
ATOM      7  C   UNL     1       0.240   9.726  20.750  0.00  0.00    +0.000 A 
ATOM      8  C   UNL     1       0.866   8.473  20.891  0.00  0.00    +0.000 A 
ATOM      9  C   UNL     1       1.703   8.039  19.852  0.00  0.00    +0.000 A 
ENDROOT
BRANCH   1  11
ATOM     10  C   UNL     1       1.478   4.945  20.780  0.00  0.00    +0.000 C 
ATOM     11  C   UNL     1       2.655   5.907  20.708  0.00  0.00    +0.000 C 
ENDBRANCH   1  11
BRANCH   2  12
ATOM     12  C   UNL     1       3.987   5.934  17.715  0.00  0.00    +0.000 C 
BRANCH  12  13
ATOM     13  C   UNL     1       5.464   6.123  18.171  0.00  0.00    +0.000 A 
ATOM     14  C   UNL     1       6.332   6.947  17.425  0.00  0.00    +0.000 A 
ATOM     15  C   UNL     1       7.692   7.043  17.730  0.00  0.00    +0.000 A 
ATOM     16  C   UNL     1       8.221   6.326  18.798  0.00  0.00    +0.000 A 
ATOM     17  C   UNL     1       7.384   5.539  19.579  0.00  0.00    +0.000 A 
ATOM     18  C   UNL     1       6.019   5.453  19.282  0.00  0.00    +0.000 A 
ENDBRANCH  12  13
BRANCH  12  19
ATOM     19  C   UNL     1       3.484   4.486  17.890  0.00  0.00    +0.000 A 
ATOM     20  C   UNL     1       2.166   4.143  17.523  0.00  0.00    +0.000 A 
ATOM     21  C   UNL     1       1.655   2.861  17.745  0.00  0.00    +0.000 A 
ATOM     22  C   UNL     1       2.456   1.881  18.321  0.00  0.00    +0.000 A 
ATOM     23  C   UNL     1       3.775   2.176  18.650  0.00  0.00    +0.000 A 
ATOM     24  C   UNL     1       4.284   3.461  18.430  0.00  0.00    +0.000 A 
ENDBRANCH  12  19
BRANCH  12  25
ATOM     25  O   UNL     1       3.901   6.188  16.305  0.00  0.00    +0.000 OA
ATOM     26  H   UNL     1       3.991   5.330  15.874  0.00  0.00    +0.000 HD
ENDBRANCH  12  25
ENDBRANCH   2  12
BRANCH   7  27
ATOM     27  C   UNL     1      -0.628  10.261  21.866  0.00  0.00    +0.000 C 
BRANCH  27  28
ATOM     28  O   UNL     1      -0.160  11.546  22.269  0.00  0.00    +0.000 OA
BRANCH  28  29
ATOM     29  C   UNL     1      -1.096  12.372  22.838  0.00  0.00    +0.000 A 
ATOM     30  C   UNL     1      -0.927  13.732  23.112  0.00  0.00    +0.000 A 
ATOM     31  C   UNL     1      -1.960  14.468  23.699  0.00  0.00    +0.000 A 
ATOM     32  C   UNL     1      -3.167  13.854  24.017  0.00  0.00    +0.000 A 
ATOM     33  C   UNL     1      -3.346  12.498  23.743  0.00  0.00    +0.000 A 
ATOM     34  C   UNL     1      -2.313  11.762  23.158  0.00  0.00    +0.000 A 
ENDBRANCH  28  29
ENDBRANCH  27  28
ENDBRANCH   7  27
TORSDOF 8
ENDMDL
MODEL 5
REMARK VINA RESULT:      -7.8      2.786      9.842
REMARK  Name = 
REMARK  9 active torsions:
REMARK  status: ('A' for Active; 'I' for Inactive)
REMARK    1  A    between atoms: C_1  and  C_2
REMARK    2  A    between atoms: C_2  and  N_3
REMARK    3  A    between atoms: C_4  and  C_5
REMARK    4  A    between atoms: C_5  and  O_6
REMARK    5  A    between atoms: C_5  and  C_7
REMARK    6  A    between atoms: C_5  and  C_13
REMARK    7  A    between atoms: C_23  and  C_24
REMARK    8  A    between atoms: C_24  and  O_25
REMARK    9  A    between atoms: O_25  and  C_26
REMARK                            x       y       z     vdW  Elec       q    Type
REMARK                         _______ _______ _______ _____ _____    ______ ____
ROOT
ATOM      1  N   UNL     1       0.781  10.126  20.916  0.00  0.00    +0.000 N 
ATOM      2  C   UNL     1       0.420  11.268  20.208  0.00  0.00    +0.000 A 
ATOM      3  N   UNL     1       0.667  11.069  18.916  0.00  0.00    +0.000 NA
ATOM      4  C   UNL     1       1.217   9.830  18.789  0.00  0.00    +0.000 A 
ATOM      5  C   UNL     1       1.650   9.166  17.634  0.00  0.00    +0.000 A 
ATOM      6  C   UNL     1       2.201   7.886  17.760  0.00  0.00    +0.000 A 
ATOM      7  C   UNL     1       2.317   7.270  19.014  0.00  0.00    +0.000 A 
ATOM      8  C   UNL     1       1.894   7.942  20.176  0.00  0.00    +0.000 A 
ATOM      9  C   UNL     1       1.331   9.218  20.025  0.00  0.00    +0.000 A 
ENDROOT
BRANCH   1  11
ATOM     10  C   UNL     1      -0.698   9.121  22.629  0.00  0.00    +0.000 C 
ATOM     11  C   UNL     1       0.616   9.827  22.328  0.00  0.00    +0.000 C 
ENDBRANCH   1  11
BRANCH   2  12
ATOM     12  C   UNL     1      -0.172  12.596  20.765  0.00  0.00    +0.000 C 
BRANCH  12  13
ATOM     13  C   UNL     1       0.377  13.806  19.953  0.00  0.00    +0.000 A 
ATOM     14  C   UNL     1       1.762  14.071  19.932  0.00  0.00    +0.000 A 
ATOM     15  C   UNL     1       2.279  15.215  19.320  0.00  0.00    +0.000 A 
ATOM     16  C   UNL     1       1.427  16.123  18.700  0.00  0.00    +0.000 A 
ATOM     17  C   UNL     1       0.061  15.869  18.666  0.00  0.00    +0.000 A 
ATOM     18  C   UNL     1      -0.456  14.716  19.268  0.00  0.00    +0.000 A 
ENDBRANCH  12  13
BRANCH  12  19
ATOM     19  C   UNL     1      -1.711  12.581  20.855  0.00  0.00    +0.000 A 
ATOM     20  C   UNL     1      -2.486  12.261  19.720  0.00  0.00    +0.000 A 
ATOM     21  C   UNL     1      -3.883  12.318  19.747  0.00  0.00    +0.000 A 
ATOM     22  C   UNL     1      -4.543  12.676  20.918  0.00  0.00    +0.000 A 
ATOM     23  C   UNL     1      -3.808  12.951  22.066  0.00  0.00    +0.000 A 
ATOM     24  C   UNL     1      -2.410  12.896  22.036  0.00  0.00    +0.000 A 
ENDBRANCH  12  19
BRANCH  12  25
ATOM     25  O   UNL     1       0.278  12.707  22.124  0.00  0.00    +0.000 OA
ATOM     26  H   UNL     1       1.178  13.051  22.079  0.00  0.00    +0.000 HD
ENDBRANCH  12  25
ENDBRANCH   2  12
BRANCH   7  27
ATOM     27  C   UNL     1       2.881   5.872  19.119  0.00  0.00    +0.000 C 
BRANCH  27  28
ATOM     28  O   UNL     1       3.732   5.608  18.005  0.00  0.00    +0.000 OA
BRANCH  28  29
ATOM     29  C   UNL     1       5.069   5.838  18.206  0.00  0.00    +0.000 A 
ATOM     30  C   UNL     1       5.849   5.287  19.227  0.00  0.00    +0.000 A 
ATOM     31  C   UNL     1       7.206   5.603  19.327  0.00  0.00    +0.000 A 
ATOM     32  C   UNL     1       7.795   6.470  18.411  0.00  0.00    +0.000 A 
ATOM     33  C   UNL     1       7.025   7.021  17.387  0.00  0.00    +0.000 A 
ATOM     34  C   UNL     1       5.668   6.706  17.288  0.00  0.00    +0.000 A 
ENDBRANCH  28  29
ENDBRANCH  27  28
ENDBRANCH   7  27
TORSDOF 8
ENDMDL
MODEL 6
REMARK VINA RESULT:      -7.8      2.234      9.421
REMARK  Name = 
REMARK  9 active torsions:
REMARK  status: ('A' for Active; 'I' for Inactive)
REMARK    1  A    between atoms: C_1  and  C_2
REMARK    2  A    between atoms: C_2  and  N_3
REMARK    3  A    between atoms: C_4  and  C_5
REMARK    4  A    between atoms: C_5  and  O_6
REMARK    5  A    between atoms: C_5  and  C_7
REMARK    6  A    between atoms: C_5  and  C_13
REMARK    7  A    between atoms: C_23  and  C_24
REMARK    8  A    between atoms: C_24  and  O_25
REMARK    9  A    between atoms: O_25  and  C_26
REMARK                            x       y       z     vdW  Elec       q    Type
REMARK                         _______ _______ _______ _____ _____    ______ ____
ROOT
ATOM      1  N   UNL     1       0.431   9.344  20.252  0.00  0.00    +0.000 N 
ATOM      2  C   UNL     1       0.247  10.420  19.390  0.00  0.00    +0.000 A 
ATOM      3  N   UNL     1       0.993  10.232  18.304  0.00  0.00    +0.000 NA
ATOM      4  C   UNL     1       1.682   9.070  18.474  0.00  0.00    +0.000 A 
ATOM      5  C   UNL     1       2.596   8.446  17.615  0.00  0.00    +0.000 A 
ATOM      6  C   UNL     1       3.192   7.248  18.021  0.00  0.00    +0.000 A 
ATOM      7  C   UNL     1       2.883   6.671  19.261  0.00  0.00    +0.000 A 
ATOM      8  C   UNL     1       1.974   7.304  20.131  0.00  0.00    +0.000 A 
ATOM      9  C   UNL     1       1.377   8.497  19.697  0.00  0.00    +0.000 A 
ENDROOT
BRANCH   1  11
ATOM     10  C   UNL     1       0.631   9.383  22.720  0.00  0.00    +0.000 C 
ATOM     11  C   UNL     1      -0.231   9.050  21.511  0.00  0.00    +0.000 C 
ENDBRANCH   1  11
BRANCH   2  12
ATOM     12  C   UNL     1      -0.654  11.672  19.594  0.00  0.00    +0.000 C 
BRANCH  12  13
ATOM     13  C   UNL     1       0.175  12.970  19.364  0.00  0.00    +0.000 A 
ATOM     14  C   UNL     1       1.555  12.985  19.654  0.00  0.00    +0.000 A 
ATOM     15  C   UNL     1       2.306  14.161  19.579  0.00  0.00    +0.000 A 
ATOM     16  C   UNL     1       1.700  15.355  19.200  0.00  0.00    +0.000 A 
ATOM     17  C   UNL     1       0.351  15.364  18.866  0.00  0.00    +0.000 A 
ATOM     18  C   UNL     1      -0.398  14.184  18.929  0.00  0.00    +0.000 A 
ENDBRANCH  12  13
BRANCH  12  19
ATOM     19  C   UNL     1      -1.948  11.629  18.756  0.00  0.00    +0.000 A 
ATOM     20  C   UNL     1      -3.186  11.967  19.344  0.00  0.00    +0.000 A 
ATOM     21  C   UNL     1      -4.386  11.859  18.634  0.00  0.00    +0.000 A 
ATOM     22  C   UNL     1      -4.378  11.430  17.311  0.00  0.00    +0.000 A 
ATOM     23  C   UNL     1      -3.168  11.134  16.691  0.00  0.00    +0.000 A 
ATOM     24  C   UNL     1      -1.968  11.240  17.403  0.00  0.00    +0.000 A 
ENDBRANCH  12  19
BRANCH  12  25
ATOM     25  O   UNL     1      -1.095  11.641  20.960  0.00  0.00    +0.000 OA
ATOM     26  H   UNL     1      -1.909  12.159  20.989  0.00  0.00    +0.000 HD
ENDBRANCH  12  25
ENDBRANCH   2  12
BRANCH   7  27
ATOM     27  C   UNL     1       3.512   5.357  19.661  0.00  0.00    +0.000 C 
BRANCH  27  28
ATOM     28  O   UNL     1       3.584   4.490  18.530  0.00  0.00    +0.000 OA
BRANCH  28  29
ATOM     29  C   UNL     1       4.781   4.477  17.862  0.00  0.00    +0.000 A 
ATOM     30  C   UNL     1       6.036   4.714  18.430  0.00  0.00    +0.000 A 
ATOM     31  C   UNL     1       7.187   4.675  17.638  0.00  0.00    +0.000 A 
ATOM     32  C   UNL     1       7.096   4.399  16.277  0.00  0.00    +0.000 A 
ATOM     33  C   UNL     1       5.848   4.157  15.704  0.00  0.00    +0.000 A 
ATOM     34  C   UNL     1       4.697   4.198  16.495  0.00  0.00    +0.000 A 
ENDBRANCH  28  29
ENDBRANCH  27  28
ENDBRANCH   7  27
TORSDOF 8
ENDMDL
MODEL 7
REMARK VINA RESULT:      -7.8      2.204      9.368
REMARK  Name = 
REMARK  9 active torsions:
REMARK  status: ('A' for Active; 'I' for Inactive)
REMARK    1  A    between atoms: C_1  and  C_2
REMARK    2  A    between atoms: C_2  and  N_3
REMARK    3  A    between atoms: C_4  and  C_5
REMARK    4  A    between atoms: C_5  and  O_6
REMARK    5  A    between atoms: C_5  and  C_7
REMARK    6  A    between atoms: C_5  and  C_13
REMARK    7  A    between atoms: C_23  and  C_24
REMARK    8  A    between atoms: C_24  and  O_25
REMARK    9  A    between atoms: O_25  and  C_26
REMARK                            x       y       z     vdW  Elec       q    Type
REMARK                         _______ _______ _______ _____ _____    ______ ____
ROOT
ATOM      1  N   UNL     1       0.416   9.295  20.353  0.00  0.00    +0.000 N 
ATOM      2  C   UNL     1       0.168  10.364  19.498  0.00  0.00    +0.000 A 
ATOM      3  N   UNL     1       0.874  10.195  18.382  0.00  0.00    +0.000 NA
ATOM      4  C   UNL     1       1.602   9.053  18.526  0.00  0.00    +0.000 A 
ATOM      5  C   UNL     1       2.498   8.453  17.631  0.00  0.00    +0.000 A 
ATOM      6  C   UNL     1       3.143   7.273  18.015  0.00  0.00    +0.000 A 
ATOM      7  C   UNL     1       2.900   6.691  19.267  0.00  0.00    +0.000 A 
ATOM      8  C   UNL     1       2.010   7.300  20.171  0.00  0.00    +0.000 A 
ATOM      9  C   UNL     1       1.362   8.475  19.760  0.00  0.00    +0.000 A 
ENDROOT
BRANCH   1  11
ATOM     10  C   UNL     1       0.690   9.395  22.812  0.00  0.00    +0.000 C 
ATOM     11  C   UNL     1      -0.187   8.985  21.637  0.00  0.00    +0.000 C 
ENDBRANCH   1  11
BRANCH   2  12
ATOM     12  C   UNL     1      -0.760  11.591  19.737  0.00  0.00    +0.000 C 
BRANCH  12  13
ATOM     13  C   UNL     1       0.060  12.910  19.622  0.00  0.00    +0.000 A 
ATOM     14  C   UNL     1      -0.513  14.046  19.013  0.00  0.00    +0.000 A 
ATOM     15  C   UNL     1       0.230  15.205  18.780  0.00  0.00    +0.000 A 
ATOM     16  C   UNL     1       1.567  15.267  19.160  0.00  0.00    +0.000 A 
ATOM     17  C   UNL     1       2.149  14.180  19.801  0.00  0.00    +0.000 A 
ATOM     18  C   UNL     1       1.401  13.023  20.046  0.00  0.00    +0.000 A 
ENDBRANCH  12  13
BRANCH  12  19
ATOM     19  C   UNL     1      -2.016  11.583  18.841  0.00  0.00    +0.000 A 
ATOM     20  C   UNL     1      -3.265  11.975  19.367  0.00  0.00    +0.000 A 
ATOM     21  C   UNL     1      -4.435  11.901  18.605  0.00  0.00    +0.000 A 
ATOM     22  C   UNL     1      -4.383  11.454  17.289  0.00  0.00    +0.000 A 
ATOM     23  C   UNL     1      -3.159  11.106  16.729  0.00  0.00    +0.000 A 
ATOM     24  C   UNL     1      -1.989  11.177  17.493  0.00  0.00    +0.000 A 
ENDBRANCH  12  19
BRANCH  12  25
ATOM     25  O   UNL     1      -1.260  11.471  21.077  0.00  0.00    +0.000 OA
ATOM     26  H   UNL     1      -2.209  11.322  20.995  0.00  0.00    +0.000 HD
ENDBRANCH  12  25
ENDBRANCH   2  12
BRANCH   7  27
ATOM     27  C   UNL     1       3.581   5.395  19.642  0.00  0.00    +0.000 C 
BRANCH  27  28
ATOM     28  O   UNL     1       3.571   4.503  18.530  0.00  0.00    +0.000 OA
BRANCH  28  29
ATOM     29  C   UNL     1       4.718   4.468  17.779  0.00  0.00    +0.000 A 
ATOM     30  C   UNL     1       4.791   4.201  16.409  0.00  0.00    +0.000 A 
ATOM     31  C   UNL     1       6.026   4.191  15.757  0.00  0.00    +0.000 A 
ATOM     32  C   UNL     1       7.197   4.447  16.464  0.00  0.00    +0.000 A 
ATOM     33  C   UNL     1       7.133   4.720  17.830  0.00  0.00    +0.000 A 
ATOM     34  C   UNL     1       5.898   4.727  18.483  0.00  0.00    +0.000 A 
ENDBRANCH  28  29
ENDBRANCH  27  28
ENDBRANCH   7  27
TORSDOF 8
ENDMDL
MODEL 8
REMARK VINA RESULT:      -7.8      2.208      9.462
REMARK  Name = 
REMARK  9 active torsions:
REMARK  status: ('A' for Active; 'I' for Inactive)
REMARK    1  A    between atoms: C_1  and  C_2
REMARK    2  A    between atoms: C_2  and  N_3
REMARK    3  A    between atoms: C_4  and  C_5
REMARK    4  A    between atoms: C_5  and  O_6
REMARK    5  A    between atoms: C_5  and  C_7
REMARK    6  A    between atoms: C_5  and  C_13
REMARK    7  A    between atoms: C_23  and  C_24
REMARK    8  A    between atoms: C_24  and  O_25
REMARK    9  A    between atoms: O_25  and  C_26
REMARK                            x       y       z     vdW  Elec       q    Type
REMARK                         _______ _______ _______ _____ _____    ______ ____
ROOT
ATOM      1  N   UNL     1       0.347   9.286  20.434  0.00  0.00    +0.000 N 
ATOM      2  C   UNL     1       0.100  10.386  19.618  0.00  0.00    +0.000 A 
ATOM      3  N   UNL     1       0.818  10.264  18.505  0.00  0.00    +0.000 NA
ATOM      4  C   UNL     1       1.552   9.123  18.611  0.00  0.00    +0.000 A 
ATOM      5  C   UNL     1       2.461   8.564  17.703  0.00  0.00    +0.000 A 
ATOM      6  C   UNL     1       3.111   7.374  18.047  0.00  0.00    +0.000 A 
ATOM      7  C   UNL     1       2.860   6.742  19.274  0.00  0.00    +0.000 A 
ATOM      8  C   UNL     1       1.957   7.310  20.192  0.00  0.00    +0.000 A 
ATOM      9  C   UNL     1       1.305   8.495  19.820  0.00  0.00    +0.000 A 
ENDROOT
BRANCH   1  11
ATOM     10  C   UNL     1       0.536   9.406  22.901  0.00  0.00    +0.000 C 
ATOM     11  C   UNL     1      -0.265   8.923  21.700  0.00  0.00    +0.000 C 
ENDBRANCH   1  11
BRANCH   2  12
ATOM     12  C   UNL     1      -0.839  11.596  19.896  0.00  0.00    +0.000 C 
BRANCH  12  13
ATOM     13  C   UNL     1      -0.059  12.930  19.703  0.00  0.00    +0.000 A 
ATOM     14  C   UNL     1       1.047  13.226  20.526  0.00  0.00    +0.000 A 
ATOM     15  C   UNL     1       1.692  14.463  20.468  0.00  0.00    +0.000 A 
ATOM     16  C   UNL     1       1.258  15.437  19.575  0.00  0.00    +0.000 A 
ATOM     17  C   UNL     1       0.198  15.161  18.720  0.00  0.00    +0.000 A 
ATOM     18  C   UNL     1      -0.441  13.917  18.769  0.00  0.00    +0.000 A 
ENDBRANCH  12  13
BRANCH  12  19
ATOM     19  C   UNL     1      -2.150  11.543  19.085  0.00  0.00    +0.000 A 
ATOM     20  C   UNL     1      -2.173  10.935  17.812  0.00  0.00    +0.000 A 
ATOM     21  C   UNL     1      -3.324  10.943  17.018  0.00  0.00    +0.000 A 
ATOM     22  C   UNL     1      -4.490  11.540  17.486  0.00  0.00    +0.000 A 
ATOM     23  C   UNL     1      -4.511  12.106  18.757  0.00  0.00    +0.000 A 
ATOM     24  C   UNL     1      -3.357  12.099  19.549  0.00  0.00    +0.000 A 
ENDBRANCH  12  19
BRANCH  12  25
ATOM     25  O   UNL     1      -1.247  11.492  21.268  0.00  0.00    +0.000 OA
ATOM     26  H   UNL     1      -0.897  12.275  21.710  0.00  0.00    +0.000 HD
ENDBRANCH  12  25
ENDBRANCH   2  12
BRANCH   7  27
ATOM     27  C   UNL     1       3.547   5.438  19.606  0.00  0.00    +0.000 C 
BRANCH  27  28
ATOM     28  O   UNL     1       3.540   4.582  18.465  0.00  0.00    +0.000 OA
BRANCH  28  29
ATOM     29  C   UNL     1       4.712   4.520  17.756  0.00  0.00    +0.000 A 
ATOM     30  C   UNL     1       4.830   4.213  16.397  0.00  0.00    +0.000 A 
ATOM     31  C   UNL     1       6.087   4.178  15.788  0.00  0.00    +0.000 A 
ATOM     32  C   UNL     1       7.235   4.448  16.528  0.00  0.00    +0.000 A 
ATOM     33  C   UNL     1       7.126   4.759  17.883  0.00  0.00    +0.000 A 
ATOM     34  C   UNL     1       5.869   4.792  18.492  0.00  0.00    +0.000 A 
ENDBRANCH  28  29
ENDBRANCH  27  28
ENDBRANCH   7  27
TORSDOF 8
ENDMDL
MODEL 9
REMARK VINA RESULT:      -7.8      1.960      3.936
REMARK  Name = 
REMARK  9 active torsions:
REMARK  status: ('A' for Active; 'I' for Inactive)
REMARK    1  A    between atoms: C_1  and  C_2
REMARK    2  A    between atoms: C_2  and  N_3
REMARK    3  A    between atoms: C_4  and  C_5
REMARK    4  A    between atoms: C_5  and  O_6
REMARK    5  A    between atoms: C_5  and  C_7
REMARK    6  A    between atoms: C_5  and  C_13
REMARK    7  A    between atoms: C_23  and  C_24
REMARK    8  A    between atoms: C_24  and  O_25
REMARK    9  A    between atoms: O_25  and  C_26
REMARK                            x       y       z     vdW  Elec       q    Type
REMARK                         _______ _______ _______ _____ _____    ______ ____
ROOT
ATOM      1  N   UNL     1       2.636   6.862  19.477  0.00  0.00    +0.000 N 
ATOM      2  C   UNL     1       3.271   6.832  18.240  0.00  0.00    +0.000 A 
ATOM      3  N   UNL     1       2.985   7.953  17.583  0.00  0.00    +0.000 NA
ATOM      4  C   UNL     1       2.143   8.685  18.364  0.00  0.00    +0.000 A 
ATOM      5  C   UNL     1       1.561   9.934  18.114  0.00  0.00    +0.000 A 
ATOM      6  C   UNL     1       0.708  10.484  19.077  0.00  0.00    +0.000 A 
ATOM      7  C   UNL     1       0.441   9.808  20.276  0.00  0.00    +0.000 A 
ATOM      8  C   UNL     1       1.015   8.547  20.522  0.00  0.00    +0.000 A 
ATOM      9  C   UNL     1       1.879   8.021  19.550  0.00  0.00    +0.000 A 
ENDROOT
BRANCH   1  11
ATOM     10  C   UNL     1       1.483   5.037  20.690  0.00  0.00    +0.000 C 
ATOM     11  C   UNL     1       2.718   5.918  20.578  0.00  0.00    +0.000 C 
ENDBRANCH   1  11
BRANCH   2  12
ATOM     12  C   UNL     1       4.174   5.709  17.651  0.00  0.00    +0.000 C 
BRANCH  12  13
ATOM     13  C   UNL     1       5.658   5.950  18.057  0.00  0.00    +0.000 A 
ATOM     14  C   UNL     1       6.186   5.320  19.204  0.00  0.00    +0.000 A 
ATOM     15  C   UNL     1       7.471   5.608  19.670  0.00  0.00    +0.000 A 
ATOM     16  C   UNL     1       8.271   6.524  18.996  0.00  0.00    +0.000 A 
ATOM     17  C   UNL     1       7.796   7.129  17.838  0.00  0.00    +0.000 A 
ATOM     18  C   UNL     1       6.513   6.832  17.364  0.00  0.00    +0.000 A 
ENDBRANCH  12  13
BRANCH  12  19
ATOM     19  C   UNL     1       3.677   4.291  17.998  0.00  0.00    +0.000 A 
ATOM     20  C   UNL     1       2.444   3.827  17.493  0.00  0.00    +0.000 A 
ATOM     21  C   UNL     1       1.928   2.579  17.855  0.00  0.00    +0.000 A 
ATOM     22  C   UNL     1       2.644   1.751  18.714  0.00  0.00    +0.000 A 
ATOM     23  C   UNL     1       3.885   2.161  19.190  0.00  0.00    +0.000 A 
ATOM     24  C   UNL     1       4.398   3.412  18.829  0.00  0.00    +0.000 A 
ENDBRANCH  12  19
BRANCH  12  25
ATOM     25  O   UNL     1       4.063   5.802  16.223  0.00  0.00    +0.000 OA
ATOM     26  H   UNL     1       3.123   5.911  16.035  0.00  0.00    +0.000 HD
ENDBRANCH  12  25
ENDBRANCH   2  12
BRANCH   7  27
ATOM     27  C   UNL     1      -0.454  10.442  21.316  0.00  0.00    +0.000 C 
BRANCH  27  28
ATOM     28  O   UNL     1      -1.028  11.640  20.797  0.00  0.00    +0.000 OA
BRANCH  28  29
ATOM     29  C   UNL     1      -2.109  12.131  21.482  0.00  0.00    +0.000 A 
ATOM     30  C   UNL     1      -3.148  12.889  20.934  0.00  0.00    +0.000 A 
ATOM     31  C   UNL     1      -4.197  13.337  21.742  0.00  0.00    +0.000 A 
ATOM     32  C   UNL     1      -4.218  13.032  23.100  0.00  0.00    +0.000 A 
ATOM     33  C   UNL     1      -3.188  12.272  23.653  0.00  0.00    +0.000 A 
ATOM     34  C   UNL     1      -2.138  11.827  22.846  0.00  0.00    +0.000 A 
ENDBRANCH  28  29
ENDBRANCH  27  28
ENDBRANCH   7  27
TORSDOF 8
ENDMDL
