MODEL 1
REMARK VINA RESULT:      -7.3      0.000      0.000
REMARK  Name = 
REMARK  4 active torsions:
REMARK  status: ('A' for Active; 'I' for Inactive)
REMARK    1  A    between atoms: C_1  and  O_2
REMARK    2  A    between atoms: O_2  and  C_3
REMARK    3  A    between atoms: C_6  and  C_7
REMARK    4  A    between atoms: C_12  and  C_13
REMARK                            x       y       z     vdW  Elec       q    Type
REMARK                         _______ _______ _______ _____ _____    ______ ____
ROOT
ATOM      1  C   UNL     1       4.414   3.862  17.614  0.00  0.00    +0.000 A 
ATOM      2  C   UNL     1       3.120   4.232  17.578  0.00  0.00    +0.000 A 
ATOM      3  C   UNL     1       2.332   3.852  18.678  0.00  0.00    +0.000 A 
ATOM      4  O   UNL     1       1.007   4.116  18.861  0.00  0.00    +0.000 OA
ATOM      5  C   UNL     1       0.653   3.598  20.064  0.00  0.00    +0.000 A 
ATOM      6  C   UNL     1       1.730   2.991  20.678  0.00  0.00    +0.000 A 
ATOM      7  C   UNL     1       1.754   2.328  22.002  0.00  0.00    +0.000 C 
ATOM      8  C   UNL     1       2.814   3.154  19.765  0.00  0.00    +0.000 A 
ATOM      9  C   UNL     1       4.207   2.752  19.808  0.00  0.00    +0.000 A 
ATOM     10  O   UNL     1       4.694   2.128  20.744  0.00  0.00    +0.000 OA
ATOM     11  O   UNL     1       4.969   3.129  18.711  0.00  0.00    +0.000 OA
ENDROOT
BRANCH   1  15
ATOM     12  C   UNL     1       7.175   5.029  14.528  0.00  0.00    +0.000 A 
ATOM     13  C   UNL     1       7.470   5.265  15.870  0.00  0.00    +0.000 A 
ATOM     14  C   UNL     1       6.586   4.857  16.877  0.00  0.00    +0.000 A 
ATOM     15  C   UNL     1       5.374   4.231  16.555  0.00  0.00    +0.000 A 
ATOM     16  C   UNL     1       5.097   3.987  15.201  0.00  0.00    +0.000 A 
ATOM     17  C   UNL     1       5.983   4.391  14.195  0.00  0.00    +0.000 A 
BRANCH  12  19
ATOM     18  C   UNL     1       7.762   5.310  12.258  0.00  0.00    +0.000 C 
ATOM     19  O   UNL     1       8.093   5.498  13.630  0.00  0.00    +0.000 OA
ENDBRANCH  12  19
ENDBRANCH   1  15
TORSDOF 2
ENDMDL
MODEL 2
REMARK VINA RESULT:      -7.1      0.202      1.113
REMARK  Name = 
REMARK  4 active torsions:
REMARK  status: ('A' for Active; 'I' for Inactive)
REMARK    1  A    between atoms: C_1  and  O_2
REMARK    2  A    between atoms: O_2  and  C_3
REMARK    3  A    between atoms: C_6  and  C_7
REMARK    4  A    between atoms: C_12  and  C_13
REMARK                            x       y       z     vdW  Elec       q    Type
REMARK                         _______ _______ _______ _____ _____    ______ ____
ROOT
ATOM      1  C   UNL     1       4.404   3.982  17.671  0.00  0.00    +0.000 A 
ATOM      2  C   UNL     1       3.113   4.366  17.679  0.00  0.00    +0.000 A 
ATOM      3  C   UNL     1       2.345   3.949  18.779  0.00  0.00    +0.000 A 
ATOM      4  O   UNL     1       1.028   4.219  19.002  0.00  0.00    +0.000 OA
ATOM      5  C   UNL     1       0.694   3.656  20.191  0.00  0.00    +0.000 A 
ATOM      6  C   UNL     1       1.778   3.013  20.755  0.00  0.00    +0.000 A 
ATOM      7  C   UNL     1       1.823   2.296  22.051  0.00  0.00    +0.000 C 
ATOM      8  C   UNL     1       2.843   3.202  19.826  0.00  0.00    +0.000 A 
ATOM      9  C   UNL     1       4.232   2.786  19.822  0.00  0.00    +0.000 A 
ATOM     10  O   UNL     1       4.733   2.118  20.720  0.00  0.00    +0.000 OA
ATOM     11  O   UNL     1       4.975   3.199  18.724  0.00  0.00    +0.000 OA
ENDROOT
BRANCH   1  15
ATOM     12  C   UNL     1       7.168   5.059  14.555  0.00  0.00    +0.000 A 
ATOM     13  C   UNL     1       5.873   4.647  14.244  0.00  0.00    +0.000 A 
ATOM     14  C   UNL     1       4.963   4.326  15.259  0.00  0.00    +0.000 A 
ATOM     15  C   UNL     1       5.345   4.384  16.606  0.00  0.00    +0.000 A 
ATOM     16  C   UNL     1       6.646   4.815  16.905  0.00  0.00    +0.000 A 
ATOM     17  C   UNL     1       7.554   5.140  15.890  0.00  0.00    +0.000 A 
BRANCH  12  19
ATOM     18  C   UNL     1       7.508   4.840  12.229  0.00  0.00    +0.000 C 
ATOM     19  O   UNL     1       7.979   5.316  13.485  0.00  0.00    +0.000 OA
ENDBRANCH  12  19
ENDBRANCH   1  15
TORSDOF 2
ENDMDL
MODEL 3
REMARK VINA RESULT:      -7.1      3.967      4.868
REMARK  Name = 
REMARK  4 active torsions:
REMARK  status: ('A' for Active; 'I' for Inactive)
REMARK    1  A    between atoms: C_1  and  O_2
REMARK    2  A    between atoms: O_2  and  C_3
REMARK    3  A    between atoms: C_6  and  C_7
REMARK    4  A    between atoms: C_12  and  C_13
REMARK                            x       y       z     vdW  Elec       q    Type
REMARK                         _______ _______ _______ _____ _____    ______ ____
ROOT
ATOM      1  C   UNL     1       3.165   6.950  18.127  0.00  0.00    +0.000 A 
ATOM      2  C   UNL     1       2.717   6.647  19.360  0.00  0.00    +0.000 A 
ATOM      3  C   UNL     1       1.895   7.605  19.978  0.00  0.00    +0.000 A 
ATOM      4  O   UNL     1       1.327   7.515  21.214  0.00  0.00    +0.000 OA
ATOM      5  C   UNL     1       0.590   8.639  21.404  0.00  0.00    +0.000 A 
ATOM      6  C   UNL     1       0.668   9.473  20.306  0.00  0.00    +0.000 A 
ATOM      7  C   UNL     1      -0.004  10.780  20.121  0.00  0.00    +0.000 C 
ATOM      8  C   UNL     1       1.526   8.796  19.389  0.00  0.00    +0.000 A 
ATOM      9  C   UNL     1       2.007   9.128  18.062  0.00  0.00    +0.000 A 
ATOM     10  O   UNL     1       1.717  10.171  17.488  0.00  0.00    +0.000 OA
ATOM     11  O   UNL     1       2.823   8.175  17.469  0.00  0.00    +0.000 OA
ENDROOT
BRANCH   1  15
ATOM     12  C   UNL     1       5.526   4.256  15.744  0.00  0.00    +0.000 A 
ATOM     13  C   UNL     1       5.692   5.636  15.630  0.00  0.00    +0.000 A 
ATOM     14  C   UNL     1       4.946   6.512  16.427  0.00  0.00    +0.000 A 
ATOM     15  C   UNL     1       3.997   6.022  17.335  0.00  0.00    +0.000 A 
ATOM     16  C   UNL     1       3.851   4.631  17.450  0.00  0.00    +0.000 A 
ATOM     17  C   UNL     1       4.600   3.755  16.655  0.00  0.00    +0.000 A 
BRANCH  12  19
ATOM     18  C   UNL     1       6.161   3.818  13.513  0.00  0.00    +0.000 C 
ATOM     19  O   UNL     1       6.283   3.498  14.895  0.00  0.00    +0.000 OA
ENDBRANCH  12  19
ENDBRANCH   1  15
TORSDOF 2
ENDMDL
MODEL 4
REMARK VINA RESULT:      -6.9      4.494      5.317
REMARK  Name = 
REMARK  4 active torsions:
REMARK  status: ('A' for Active; 'I' for Inactive)
REMARK    1  A    between atoms: C_1  and  O_2
REMARK    2  A    between atoms: O_2  and  C_3
REMARK    3  A    between atoms: C_6  and  C_7
REMARK    4  A    between atoms: C_12  and  C_13
REMARK                            x       y       z     vdW  Elec       q    Type
REMARK                         _______ _______ _______ _____ _____    ______ ____
ROOT
ATOM      1  C   UNL     1       2.565   7.471  18.427  0.00  0.00    +0.000 A 
ATOM      2  C   UNL     1       2.160   8.579  17.777  0.00  0.00    +0.000 A 
ATOM      3  C   UNL     1       1.397   9.495  18.521  0.00  0.00    +0.000 A 
ATOM      4  O   UNL     1       0.884  10.678  18.078  0.00  0.00    +0.000 OA
ATOM      5  C   UNL     1       0.245  11.260  19.125  0.00  0.00    +0.000 A 
ATOM      6  C   UNL     1       0.326  10.471  20.255  0.00  0.00    +0.000 A 
ATOM      7  C   UNL     1      -0.228  10.764  21.597  0.00  0.00    +0.000 C 
ATOM      8  C   UNL     1       1.069   9.323  19.850  0.00  0.00    +0.000 A 
ATOM      9  C   UNL     1       1.502   8.131  20.554  0.00  0.00    +0.000 A 
ATOM     10  O   UNL     1       1.240   7.919  21.732  0.00  0.00    +0.000 OA
ATOM     11  O   UNL     1       2.248   7.233  19.802  0.00  0.00    +0.000 OA
ENDROOT
BRANCH   1  15
ATOM     12  C   UNL     1       4.988   4.494  16.486  0.00  0.00    +0.000 A 
ATOM     13  C   UNL     1       5.325   5.844  16.408  0.00  0.00    +0.000 A 
ATOM     14  C   UNL     1       4.555   6.811  17.066  0.00  0.00    +0.000 A 
ATOM     15  C   UNL     1       3.413   6.444  17.790  0.00  0.00    +0.000 A 
ATOM     16  C   UNL     1       3.093   5.080  17.872  0.00  0.00    +0.000 A 
ATOM     17  C   UNL     1       3.867   4.114  17.218  0.00  0.00    +0.000 A 
BRANCH  12  19
ATOM     18  C   UNL     1       6.175   4.092  14.485  0.00  0.00    +0.000 C 
ATOM     19  O   UNL     1       5.792   3.642  15.780  0.00  0.00    +0.000 OA
ENDBRANCH  12  19
ENDBRANCH   1  15
TORSDOF 2
ENDMDL
MODEL 5
REMARK VINA RESULT:      -6.9      4.656      5.565
REMARK  Name = 
REMARK  4 active torsions:
REMARK  status: ('A' for Active; 'I' for Inactive)
REMARK    1  A    between atoms: C_1  and  O_2
REMARK    2  A    between atoms: O_2  and  C_3
REMARK    3  A    between atoms: C_6  and  C_7
REMARK    4  A    between atoms: C_12  and  C_13
REMARK                            x       y       z     vdW  Elec       q    Type
REMARK                         _______ _______ _______ _____ _____    ______ ____
ROOT
ATOM      1  C   UNL     1       2.378   7.695  18.533  0.00  0.00    +0.000 A 
ATOM      2  C   UNL     1       1.895   8.780  17.897  0.00  0.00    +0.000 A 
ATOM      3  C   UNL     1       1.135   9.671  18.672  0.00  0.00    +0.000 A 
ATOM      4  O   UNL     1       0.553  10.828  18.247  0.00  0.00    +0.000 OA
ATOM      5  C   UNL     1      -0.055  11.394  19.321  0.00  0.00    +0.000 A 
ATOM      6  C   UNL     1       0.117  10.621  20.452  0.00  0.00    +0.000 A 
ATOM      7  C   UNL     1      -0.378  10.905  21.819  0.00  0.00    +0.000 C 
ATOM      8  C   UNL     1       0.884   9.499  20.018  0.00  0.00    +0.000 A 
ATOM      9  C   UNL     1       1.401   8.333  20.707  0.00  0.00    +0.000 A 
ATOM     10  O   UNL     1       1.210   8.122  21.900  0.00  0.00    +0.000 OA
ATOM     11  O   UNL     1       2.143   7.459  19.925  0.00  0.00    +0.000 OA
ENDROOT
BRANCH   1  15
ATOM     12  C   UNL     1       4.913   4.767  16.661  0.00  0.00    +0.000 A 
ATOM     13  C   UNL     1       3.750   4.379  17.323  0.00  0.00    +0.000 A 
ATOM     14  C   UNL     1       2.908   5.334  17.906  0.00  0.00    +0.000 A 
ATOM     15  C   UNL     1       3.233   6.697  17.861  0.00  0.00    +0.000 A 
ATOM     16  C   UNL     1       4.399   7.075  17.178  0.00  0.00    +0.000 A 
ATOM     17  C   UNL     1       5.238   6.119  16.592  0.00  0.00    +0.000 A 
BRANCH  12  19
ATOM     18  C   UNL     1       6.205   3.964  14.854  0.00  0.00    +0.000 C 
ATOM     19  O   UNL     1       5.675   3.749  16.158  0.00  0.00    +0.000 OA
ENDBRANCH  12  19
ENDBRANCH   1  15
TORSDOF 2
ENDMDL
MODEL 6
REMARK VINA RESULT:      -6.9      4.375      7.247
REMARK  Name = 
REMARK  4 active torsions:
REMARK  status: ('A' for Active; 'I' for Inactive)
REMARK    1  A    between atoms: C_1  and  O_2
REMARK    2  A    between atoms: O_2  and  C_3
REMARK    3  A    between atoms: C_6  and  C_7
REMARK    4  A    between atoms: C_12  and  C_13
REMARK                            x       y       z     vdW  Elec       q    Type
REMARK                         _______ _______ _______ _____ _____    ______ ____
ROOT
ATOM      1  C   UNL     1       2.721   7.064  18.377  0.00  0.00    +0.000 A 
ATOM      2  C   UNL     1       2.448   5.766  18.608  0.00  0.00    +0.000 A 
ATOM      3  C   UNL     1       3.246   4.830  17.928  0.00  0.00    +0.000 A 
ATOM      4  O   UNL     1       3.156   3.472  18.007  0.00  0.00    +0.000 OA
ATOM      5  C   UNL     1       4.131   2.954  17.218  0.00  0.00    +0.000 A 
ATOM      6  C   UNL     1       4.863   3.957  16.614  0.00  0.00    +0.000 A 
ATOM      7  C   UNL     1       6.017   3.801  15.698  0.00  0.00    +0.000 C 
ATOM      8  C   UNL     1       4.275   5.172  17.075  0.00  0.00    +0.000 A 
ATOM      9  C   UNL     1       4.572   6.569  16.823  0.00  0.00    +0.000 A 
ATOM     10  O   UNL     1       5.470   6.936  16.073  0.00  0.00    +0.000 OA
ATOM     11  O   UNL     1       3.770   7.479  17.495  0.00  0.00    +0.000 OA
ENDROOT
BRANCH   1  15
ATOM     12  C   UNL     1       0.534  10.206  20.339  0.00  0.00    +0.000 A 
ATOM     13  C   UNL     1       0.909   9.059  21.037  0.00  0.00    +0.000 A 
ATOM     14  C   UNL     1       1.648   8.050  20.408  0.00  0.00    +0.000 A 
ATOM     15  C   UNL     1       1.999   8.159  19.055  0.00  0.00    +0.000 A 
ATOM     16  C   UNL     1       1.628   9.325  18.369  0.00  0.00    +0.000 A 
ATOM     17  C   UNL     1       0.893  10.335  19.000  0.00  0.00    +0.000 A 
BRANCH  12  19
ATOM     18  C   UNL     1      -0.511  10.745  22.387  0.00  0.00    +0.000 C 
ATOM     19  O   UNL     1      -0.212  11.110  21.044  0.00  0.00    +0.000 OA
ENDBRANCH  12  19
ENDBRANCH   1  15
TORSDOF 2
ENDMDL
MODEL 7
REMARK VINA RESULT:      -6.9      1.526      7.177
REMARK  Name = 
REMARK  4 active torsions:
REMARK  status: ('A' for Active; 'I' for Inactive)
REMARK    1  A    between atoms: C_1  and  O_2
REMARK    2  A    between atoms: O_2  and  C_3
REMARK    3  A    between atoms: C_6  and  C_7
REMARK    4  A    between atoms: C_12  and  C_13
REMARK                            x       y       z     vdW  Elec       q    Type
REMARK                         _______ _______ _______ _____ _____    ______ ____
ROOT
ATOM      1  C   UNL     1       4.899   4.123  16.307  0.00  0.00    +0.000 A 
ATOM      2  C   UNL     1       4.835   3.540  15.095  0.00  0.00    +0.000 A 
ATOM      3  C   UNL     1       5.797   3.948  14.154  0.00  0.00    +0.000 A 
ATOM      4  O   UNL     1       5.928   3.497  12.875  0.00  0.00    +0.000 OA
ATOM      5  C   UNL     1       6.998   4.128  12.330  0.00  0.00    +0.000 A 
ATOM      6  C   UNL     1       7.575   4.995  13.236  0.00  0.00    +0.000 A 
ATOM      7  C   UNL     1       8.767   5.851  13.028  0.00  0.00    +0.000 C 
ATOM      8  C   UNL     1       6.782   4.878  14.415  0.00  0.00    +0.000 A 
ATOM      9  C   UNL     1       6.854   5.509  15.719  0.00  0.00    +0.000 A 
ATOM     10  O   UNL     1       7.702   6.344  16.010  0.00  0.00    +0.000 OA
ATOM     11  O   UNL     1       5.893   5.101  16.633  0.00  0.00    +0.000 OA
ENDROOT
BRANCH   1  15
ATOM     12  C   UNL     1       2.214   3.162  19.528  0.00  0.00    +0.000 A 
ATOM     13  C   UNL     1       1.749   3.242  18.216  0.00  0.00    +0.000 A 
ATOM     14  C   UNL     1       2.628   3.524  17.163  0.00  0.00    +0.000 A 
ATOM     15  C   UNL     1       3.987   3.761  17.410  0.00  0.00    +0.000 A 
ATOM     16  C   UNL     1       4.445   3.662  18.733  0.00  0.00    +0.000 A 
ATOM     17  C   UNL     1       3.566   3.376  19.785  0.00  0.00    +0.000 A 
BRANCH  12  19
ATOM     18  C   UNL     1       1.757   2.629  21.782  0.00  0.00    +0.000 C 
ATOM     19  O   UNL     1       1.263   2.912  20.478  0.00  0.00    +0.000 OA
ENDBRANCH  12  19
ENDBRANCH   1  15
TORSDOF 2
ENDMDL
MODEL 8
REMARK VINA RESULT:      -6.8      4.095      5.042
REMARK  Name = 
REMARK  4 active torsions:
REMARK  status: ('A' for Active; 'I' for Inactive)
REMARK    1  A    between atoms: C_1  and  O_2
REMARK    2  A    between atoms: O_2  and  C_3
REMARK    3  A    between atoms: C_6  and  C_7
REMARK    4  A    between atoms: C_12  and  C_13
REMARK                            x       y       z     vdW  Elec       q    Type
REMARK                         _______ _______ _______ _____ _____    ______ ____
ROOT
ATOM      1  C   UNL     1       2.980   7.126  18.260  0.00  0.00    +0.000 A 
ATOM      2  C   UNL     1       2.550   6.766  19.485  0.00  0.00    +0.000 A 
ATOM      3  C   UNL     1       1.759   7.705  20.169  0.00  0.00    +0.000 A 
ATOM      4  O   UNL     1       1.213   7.560  21.410  0.00  0.00    +0.000 OA
ATOM      5  C   UNL     1       0.502   8.686  21.673  0.00  0.00    +0.000 A 
ATOM      6  C   UNL     1       0.575   9.575  20.620  0.00  0.00    +0.000 A 
ATOM      7  C   UNL     1      -0.076  10.902  20.517  0.00  0.00    +0.000 C 
ATOM      8  C   UNL     1       1.401   8.932  19.651  0.00  0.00    +0.000 A 
ATOM      9  C   UNL     1       1.863   9.325  18.334  0.00  0.00    +0.000 A 
ATOM     10  O   UNL     1       1.583  10.403  17.821  0.00  0.00    +0.000 OA
ATOM     11  O   UNL     1       2.650   8.390  17.675  0.00  0.00    +0.000 OA
ENDROOT
BRANCH   1  15
ATOM     12  C   UNL     1       5.369   4.492  15.840  0.00  0.00    +0.000 A 
ATOM     13  C   UNL     1       4.422   3.979  16.725  0.00  0.00    +0.000 A 
ATOM     14  C   UNL     1       3.623   4.836  17.490  0.00  0.00    +0.000 A 
ATOM     15  C   UNL     1       3.779   6.227  17.404  0.00  0.00    +0.000 A 
ATOM     16  C   UNL     1       4.726   6.730  16.499  0.00  0.00    +0.000 A 
ATOM     17  C   UNL     1       5.522   5.872  15.731  0.00  0.00    +0.000 A 
BRANCH  12  19
ATOM     18  C   UNL     1       6.261   3.787  13.771  0.00  0.00    +0.000 C 
ATOM     19  O   UNL     1       6.115   3.563  15.169  0.00  0.00    +0.000 OA
ENDBRANCH  12  19
ENDBRANCH   1  15
TORSDOF 2
ENDMDL
MODEL 9
REMARK VINA RESULT:      -6.8      4.527      7.190
REMARK  Name = 
REMARK  4 active torsions:
REMARK  status: ('A' for Active; 'I' for Inactive)
REMARK    1  A    between atoms: C_1  and  O_2
REMARK    2  A    between atoms: O_2  and  C_3
REMARK    3  A    between atoms: C_6  and  C_7
REMARK    4  A    between atoms: C_12  and  C_13
REMARK                            x       y       z     vdW  Elec       q    Type
REMARK                         _______ _______ _______ _____ _____    ______ ____
ROOT
ATOM      1  C   UNL     1       2.708   7.129  18.232  0.00  0.00    +0.000 A 
ATOM      2  C   UNL     1       2.423   5.834  18.472  0.00  0.00    +0.000 A 
ATOM      3  C   UNL     1       3.251   4.887  17.844  0.00  0.00    +0.000 A 
ATOM      4  O   UNL     1       3.157   3.531  17.942  0.00  0.00    +0.000 OA
ATOM      5  C   UNL     1       4.167   3.000  17.207  0.00  0.00    +0.000 A 
ATOM      6  C   UNL     1       4.926   3.993  16.621  0.00  0.00    +0.000 A 
ATOM      7  C   UNL     1       6.121   3.822  15.761  0.00  0.00    +0.000 C 
ATOM      8  C   UNL     1       4.318   5.215  17.034  0.00  0.00    +0.000 A 
ATOM      9  C   UNL     1       4.627   6.607  16.772  0.00  0.00    +0.000 A 
ATOM     10  O   UNL     1       5.559   6.962  16.059  0.00  0.00    +0.000 OA
ATOM     11  O   UNL     1       3.796   7.529  17.393  0.00  0.00    +0.000 OA
ENDROOT
BRANCH   1  15
ATOM     12  C   UNL     1       0.603  10.399  20.071  0.00  0.00    +0.000 A 
ATOM     13  C   UNL     1       0.937  10.441  18.718  0.00  0.00    +0.000 A 
ATOM     14  C   UNL     1       1.594   9.364  18.112  0.00  0.00    +0.000 A 
ATOM     15  C   UNL     1       1.956   8.234  18.859  0.00  0.00    +0.000 A 
ATOM     16  C   UNL     1       1.601   8.199  20.216  0.00  0.00    +0.000 A 
ATOM     17  C   UNL     1       0.940   9.275  20.821  0.00  0.00    +0.000 A 
BRANCH  12  19
ATOM     18  C   UNL     1      -1.198  11.916  19.891  0.00  0.00    +0.000 C 
ATOM     19  O   UNL     1      -0.008  11.519  20.564  0.00  0.00    +0.000 OA
ENDBRANCH  12  19
ENDBRANCH   1  15
TORSDOF 2
ENDMDL
