MODEL 1
REMARK VINA RESULT:      -7.3      0.000      0.000
REMARK  Name = 
REMARK  9 active torsions:
REMARK  status: ('A' for Active; 'I' for Inactive)
REMARK    1  A    between atoms: C_1  and  O_2
REMARK    2  A    between atoms: O_2  and  C_3
REMARK    3  A    between atoms: C_8  and  C_9
REMARK    4  A    between atoms: N_11  and  C_12
REMARK    5  A    between atoms: C_12  and  C_13
REMARK    6  A    between atoms: C_16  and  S_17
REMARK    7  A    between atoms: S_17  and  C_18
REMARK    8  A    between atoms: C_18  and  C_19
REMARK    9  A    between atoms: N_27  and  C_28
REMARK                            x       y       z     vdW  Elec       q    Type
REMARK                         _______ _______ _______ _____ _____    ______ ____
ROOT
ATOM      1  C   UNL     1       2.238   6.331  19.191  0.00  0.00    +0.000 A 
ATOM      2  N   UNL     1       2.160   6.171  17.880  0.00  0.00    +0.000 NA
ATOM      3  N   UNL     1       1.957   4.836  17.619  0.00  0.00    +0.000 NA
ATOM      4  C   UNL     1       1.880   4.214  18.775  0.00  0.00    +0.000 A 
ATOM      5  N   UNL     1       2.101   5.100  19.791  0.00  0.00    +0.000 N 
ATOM      6  C   UNL     1       2.276   4.813  21.193  0.00  0.00    +0.000 C 
ENDROOT
BRANCH   1   7
ATOM      7  C   UNL     1       2.480   7.608  19.918  0.00  0.00    +0.000 C 
BRANCH   7  10
ATOM      8  C   UNL     1       1.177   9.417  18.842  0.00  0.00    +0.000 C 
ATOM      9  O   UNL     1       2.108   9.717  18.100  0.00  0.00    +0.000 OA
ATOM     10  N   UNL     1       1.311   8.454  19.813  0.00  0.00    +0.000 N 
ATOM     11  H   UNL     1       0.488   8.197  20.349  0.00  0.00    +0.000 HD
BRANCH   8  17
ATOM     12  C   UNL     1      -0.666  11.056  19.631  0.00  0.00    +0.000 A 
ATOM     13  C   UNL     1      -1.933  11.622  19.395  0.00  0.00    +0.000 A 
ATOM     14  C   UNL     1      -2.666  11.292  18.253  0.00  0.00    +0.000 A 
ATOM     15  C   UNL     1      -2.154  10.384  17.337  0.00  0.00    +0.000 A 
ATOM     16  C   UNL     1      -0.907   9.800  17.569  0.00  0.00    +0.000 A 
ATOM     17  C   UNL     1      -0.150  10.119  18.712  0.00  0.00    +0.000 A 
BRANCH  12  19
ATOM     18  C   UNL     1      -0.458  10.880  21.998  0.00  0.00    +0.000 C 
ATOM     19  O   UNL     1       0.068  11.347  20.757  0.00  0.00    +0.000 OA
ENDBRANCH  12  19
ENDBRANCH   8  17
ENDBRANCH   7  10
ENDBRANCH   1   7
BRANCH   4  20
ATOM     20  S   UNL     1       1.598   2.525  18.990  0.00  0.00    +0.000 S 
BRANCH  20  21
ATOM     21  C   UNL     1       3.159   1.823  18.384  0.00  0.00    +0.000 C 
BRANCH  21  22
ATOM     22  C   UNL     1       4.322   2.697  18.824  0.00  0.00    +0.000 C 
ATOM     23  O   UNL     1       4.747   2.630  19.970  0.00  0.00    +0.000 OA
ATOM     24  N   UNL     1       4.755   3.552  17.829  0.00  0.00    +0.000 N 
ATOM     25  C   UNL     1       5.746   4.464  18.062  0.00  0.00    +0.000 A 
ATOM     26  N   UNL     1       6.587   4.536  19.060  0.00  0.00    +0.000 NA
ATOM     27  C   UNL     1       7.361   5.669  18.925  0.00  0.00    +0.000 A 
ATOM     28  C   UNL     1       7.086   6.447  17.821  0.00  0.00    +0.000 A 
ATOM     29  S   UNL     1       5.858   5.695  16.884  0.00  0.00    +0.000 S 
ATOM     30  H   UNL     1       4.223   3.661  16.973  0.00  0.00    +0.000 HD
ENDBRANCH  21  22
ENDBRANCH  20  21
ENDBRANCH   4  20
TORSDOF 7
ENDMDL
MODEL 2
REMARK VINA RESULT:      -7.1      5.386      8.254
REMARK  Name = 
REMARK  9 active torsions:
REMARK  status: ('A' for Active; 'I' for Inactive)
REMARK    1  A    between atoms: C_1  and  O_2
REMARK    2  A    between atoms: O_2  and  C_3
REMARK    3  A    between atoms: C_8  and  C_9
REMARK    4  A    between atoms: N_11  and  C_12
REMARK    5  A    between atoms: C_12  and  C_13
REMARK    6  A    between atoms: C_16  and  S_17
REMARK    7  A    between atoms: S_17  and  C_18
REMARK    8  A    between atoms: C_18  and  C_19
REMARK    9  A    between atoms: N_27  and  C_28
REMARK                            x       y       z     vdW  Elec       q    Type
REMARK                         _______ _______ _______ _____ _____    ______ ____
ROOT
ATOM      1  C   UNL     1       7.044   5.975  17.434  0.00  0.00    +0.000 A 
ATOM      2  N   UNL     1       6.737   6.901  16.540  0.00  0.00    +0.000 NA
ATOM      3  N   UNL     1       7.294   8.092  16.944  0.00  0.00    +0.000 NA
ATOM      4  C   UNL     1       7.958   7.863  18.055  0.00  0.00    +0.000 A 
ATOM      5  N   UNL     1       7.790   6.561  18.432  0.00  0.00    +0.000 N 
ATOM      6  C   UNL     1       8.197   5.937  19.666  0.00  0.00    +0.000 C 
ENDROOT
BRANCH   1   7
ATOM      7  C   UNL     1       6.626   4.546  17.413  0.00  0.00    +0.000 C 
BRANCH   7  10
ATOM      8  C   UNL     1       4.199   4.063  17.485  0.00  0.00    +0.000 C 
ATOM      9  O   UNL     1       4.120   4.016  16.260  0.00  0.00    +0.000 OA
ATOM     10  N   UNL     1       5.372   4.398  18.119  0.00  0.00    +0.000 N 
ATOM     11  H   UNL     1       5.398   4.350  19.133  0.00  0.00    +0.000 HD
BRANCH   8  17
ATOM     12  C   UNL     1       2.475   4.603  19.341  0.00  0.00    +0.000 A 
ATOM     13  C   UNL     1       1.348   4.186  20.072  0.00  0.00    +0.000 A 
ATOM     14  C   UNL     1       0.719   2.970  19.794  0.00  0.00    +0.000 A 
ATOM     15  C   UNL     1       1.212   2.148  18.792  0.00  0.00    +0.000 A 
ATOM     16  C   UNL     1       2.342   2.540  18.071  0.00  0.00    +0.000 A 
ATOM     17  C   UNL     1       2.991   3.761  18.333  0.00  0.00    +0.000 A 
BRANCH  12  19
ATOM     18  C   UNL     1       2.581   6.961  19.014  0.00  0.00    +0.000 C 
ATOM     19  O   UNL     1       3.127   5.784  19.608  0.00  0.00    +0.000 OA
ENDBRANCH  12  19
ENDBRANCH   8  17
ENDBRANCH   7  10
ENDBRANCH   1   7
BRANCH   4  20
ATOM     20  S   UNL     1       8.863   9.032  18.944  0.00  0.00    +0.000 S 
BRANCH  20  21
ATOM     21  C   UNL     1       8.706  10.492  17.877  0.00  0.00    +0.000 C 
BRANCH  21  22
ATOM     22  C   UNL     1       9.724  11.543  18.287  0.00  0.00    +0.000 C 
ATOM     23  O   UNL     1      10.711  11.226  18.939  0.00  0.00    +0.000 OA
ATOM     24  N   UNL     1       9.365  12.818  17.895  0.00  0.00    +0.000 N 
ATOM     25  C   UNL     1      10.122  13.903  18.237  0.00  0.00    +0.000 A 
ATOM     26  N   UNL     1      11.340  13.947  18.711  0.00  0.00    +0.000 NA
ATOM     27  C   UNL     1      11.676  15.255  18.988  0.00  0.00    +0.000 A 
ATOM     28  C   UNL     1      10.695  16.188  18.723  0.00  0.00    +0.000 A 
ATOM     29  S   UNL     1       9.329  15.403  18.041  0.00  0.00    +0.000 S 
ATOM     30  H   UNL     1       8.442  13.003  17.519  0.00  0.00    +0.000 HD
ENDBRANCH  21  22
ENDBRANCH  20  21
ENDBRANCH   4  20
TORSDOF 7
ENDMDL
MODEL 3
REMARK VINA RESULT:      -7.0      0.837      1.235
REMARK  Name = 
REMARK  9 active torsions:
REMARK  status: ('A' for Active; 'I' for Inactive)
REMARK    1  A    between atoms: C_1  and  O_2
REMARK    2  A    between atoms: O_2  and  C_3
REMARK    3  A    between atoms: C_8  and  C_9
REMARK    4  A    between atoms: N_11  and  C_12
REMARK    5  A    between atoms: C_12  and  C_13
REMARK    6  A    between atoms: C_16  and  S_17
REMARK    7  A    between atoms: S_17  and  C_18
REMARK    8  A    between atoms: C_18  and  C_19
REMARK    9  A    between atoms: N_27  and  C_28
REMARK                            x       y       z     vdW  Elec       q    Type
REMARK                         _______ _______ _______ _____ _____    ______ ____
ROOT
ATOM      1  C   UNL     1       1.956   6.315  20.083  0.00  0.00    +0.000 A 
ATOM      2  N   UNL     1       1.260   5.373  20.700  0.00  0.00    +0.000 NA
ATOM      3  N   UNL     1       1.227   4.262  19.891  0.00  0.00    +0.000 NA
ATOM      4  C   UNL     1       1.931   4.533  18.815  0.00  0.00    +0.000 A 
ATOM      5  N   UNL     1       2.367   5.827  18.863  0.00  0.00    +0.000 N 
ATOM      6  C   UNL     1       3.018   6.581  17.822  0.00  0.00    +0.000 C 
ENDROOT
BRANCH   1   7
ATOM      7  C   UNL     1       2.222   7.693  20.580  0.00  0.00    +0.000 C 
BRANCH   7  10
ATOM      8  C   UNL     1       1.046   9.444  19.285  0.00  0.00    +0.000 C 
ATOM      9  O   UNL     1       2.048   9.704  18.626  0.00  0.00    +0.000 OA
ATOM     10  N   UNL     1       1.074   8.534  20.314  0.00  0.00    +0.000 N 
ATOM     11  H   UNL     1       0.200   8.307  20.777  0.00  0.00    +0.000 HD
BRANCH   8  17
ATOM     12  C   UNL     1      -0.895  11.071  19.832  0.00  0.00    +0.000 A 
ATOM     13  C   UNL     1      -2.122  11.631  19.434  0.00  0.00    +0.000 A 
ATOM     14  C   UNL     1      -2.699  11.302  18.205  0.00  0.00    +0.000 A 
ATOM     15  C   UNL     1      -2.066  10.400  17.361  0.00  0.00    +0.000 A 
ATOM     16  C   UNL     1      -0.857   9.822  17.752  0.00  0.00    +0.000 A 
ATOM     17  C   UNL     1      -0.257  10.140  18.985  0.00  0.00    +0.000 A 
BRANCH  12  19
ATOM     18  C   UNL     1      -1.200  11.515  22.153  0.00  0.00    +0.000 C 
ATOM     19  O   UNL     1      -0.315  11.361  21.045  0.00  0.00    +0.000 OA
ENDBRANCH  12  19
ENDBRANCH   8  17
ENDBRANCH   7  10
ENDBRANCH   1   7
BRANCH   4  20
ATOM     20  S   UNL     1       2.222   3.449  17.504  0.00  0.00    +0.000 S 
BRANCH  20  21
ATOM     21  C   UNL     1       3.464   2.340  18.228  0.00  0.00    +0.000 C 
BRANCH  21  22
ATOM     22  C   UNL     1       4.617   3.154  18.792  0.00  0.00    +0.000 C 
ATOM     23  O   UNL     1       4.870   3.122  19.989  0.00  0.00    +0.000 OA
ATOM     24  N   UNL     1       5.249   3.922  17.833  0.00  0.00    +0.000 N 
ATOM     25  C   UNL     1       6.263   4.776  18.165  0.00  0.00    +0.000 A 
ATOM     26  N   UNL     1       6.959   4.845  19.270  0.00  0.00    +0.000 NA
ATOM     27  C   UNL     1       7.827   5.913  19.198  0.00  0.00    +0.000 A 
ATOM     28  C   UNL     1       7.769   6.645  18.031  0.00  0.00    +0.000 A 
ATOM     29  S   UNL     1       6.632   5.930  16.962  0.00  0.00    +0.000 S 
ATOM     30  H   UNL     1       4.852   4.020  16.905  0.00  0.00    +0.000 HD
ENDBRANCH  21  22
ENDBRANCH  20  21
ENDBRANCH   4  20
TORSDOF 7
ENDMDL
MODEL 4
REMARK VINA RESULT:      -7.0      1.586      2.407
REMARK  Name = 
REMARK  9 active torsions:
REMARK  status: ('A' for Active; 'I' for Inactive)
REMARK    1  A    between atoms: C_1  and  O_2
REMARK    2  A    between atoms: O_2  and  C_3
REMARK    3  A    between atoms: C_8  and  C_9
REMARK    4  A    between atoms: N_11  and  C_12
REMARK    5  A    between atoms: C_12  and  C_13
REMARK    6  A    between atoms: C_16  and  S_17
REMARK    7  A    between atoms: S_17  and  C_18
REMARK    8  A    between atoms: C_18  and  C_19
REMARK    9  A    between atoms: N_27  and  C_28
REMARK                            x       y       z     vdW  Elec       q    Type
REMARK                         _______ _______ _______ _____ _____    ______ ____
ROOT
ATOM      1  C   UNL     1       2.019   6.226  19.890  0.00  0.00    +0.000 A 
ATOM      2  N   UNL     1       2.736   6.817  18.948  0.00  0.00    +0.000 NA
ATOM      3  N   UNL     1       2.980   5.901  17.953  0.00  0.00    +0.000 NA
ATOM      4  C   UNL     1       2.378   4.781  18.288  0.00  0.00    +0.000 A 
ATOM      5  N   UNL     1       1.804   4.918  19.520  0.00  0.00    +0.000 N 
ATOM      6  C   UNL     1       1.198   3.894  20.333  0.00  0.00    +0.000 C 
ENDROOT
BRANCH   1   7
ATOM      7  C   UNL     1       1.551   6.837  21.166  0.00  0.00    +0.000 C 
BRANCH   7  10
ATOM      8  C   UNL     1       0.044   8.784  21.418  0.00  0.00    +0.000 C 
ATOM      9  O   UNL     1      -0.836   8.101  21.934  0.00  0.00    +0.000 OA
ATOM     10  N   UNL     1       1.204   8.223  20.940  0.00  0.00    +0.000 N 
ATOM     11  H   UNL     1       1.927   8.844  20.589  0.00  0.00    +0.000 HD
BRANCH   8  17
ATOM     12  C   UNL     1       0.103  11.016  20.106  0.00  0.00    +0.000 A 
ATOM     13  C   UNL     1      -0.088  12.410  20.125  0.00  0.00    +0.000 A 
ATOM     14  C   UNL     1      -0.540  13.059  21.277  0.00  0.00    +0.000 A 
ATOM     15  C   UNL     1      -0.794  12.329  22.429  0.00  0.00    +0.000 A 
ATOM     16  C   UNL     1      -0.589  10.949  22.430  0.00  0.00    +0.000 A 
ATOM     17  C   UNL     1      -0.137  10.273  21.281  0.00  0.00    +0.000 A 
BRANCH  12  19
ATOM     18  C   UNL     1       1.743  10.882  18.383  0.00  0.00    +0.000 C 
ATOM     19  O   UNL     1       0.566  10.355  18.993  0.00  0.00    +0.000 OA
ENDBRANCH  12  19
ENDBRANCH   8  17
ENDBRANCH   7  10
ENDBRANCH   1   7
BRANCH   4  20
ATOM     20  S   UNL     1       2.355   3.332  17.351  0.00  0.00    +0.000 S 
BRANCH  20  21
ATOM     21  C   UNL     1       3.534   2.298  18.266  0.00  0.00    +0.000 C 
BRANCH  21  22
ATOM     22  C   UNL     1       4.675   3.155  18.788  0.00  0.00    +0.000 C 
ATOM     23  O   UNL     1       4.946   3.163  19.982  0.00  0.00    +0.000 OA
ATOM     24  N   UNL     1       5.275   3.908  17.798  0.00  0.00    +0.000 N 
ATOM     25  C   UNL     1       6.274   4.794  18.089  0.00  0.00    +0.000 A 
ATOM     26  N   UNL     1       6.984   4.912  19.180  0.00  0.00    +0.000 NA
ATOM     27  C   UNL     1       7.826   5.997  19.064  0.00  0.00    +0.000 A 
ATOM     28  C   UNL     1       7.734   6.693  17.877  0.00  0.00    +0.000 A 
ATOM     29  S   UNL     1       6.598   5.920  16.847  0.00  0.00    +0.000 S 
ATOM     30  H   UNL     1       4.862   3.969  16.873  0.00  0.00    +0.000 HD
ENDBRANCH  21  22
ENDBRANCH  20  21
ENDBRANCH   4  20
TORSDOF 7
ENDMDL
MODEL 5
REMARK VINA RESULT:      -6.9      5.307      8.361
REMARK  Name = 
REMARK  9 active torsions:
REMARK  status: ('A' for Active; 'I' for Inactive)
REMARK    1  A    between atoms: C_1  and  O_2
REMARK    2  A    between atoms: O_2  and  C_3
REMARK    3  A    between atoms: C_8  and  C_9
REMARK    4  A    between atoms: N_11  and  C_12
REMARK    5  A    between atoms: C_12  and  C_13
REMARK    6  A    between atoms: C_16  and  S_17
REMARK    7  A    between atoms: S_17  and  C_18
REMARK    8  A    between atoms: C_18  and  C_19
REMARK    9  A    between atoms: N_27  and  C_28
REMARK                            x       y       z     vdW  Elec       q    Type
REMARK                         _______ _______ _______ _____ _____    ______ ____
ROOT
ATOM      1  C   UNL     1       7.334   5.857  17.297  0.00  0.00    +0.000 A 
ATOM      2  N   UNL     1       6.935   6.775  16.432  0.00  0.00    +0.000 NA
ATOM      3  N   UNL     1       7.283   8.011  16.924  0.00  0.00    +0.000 NA
ATOM      4  C   UNL     1       7.917   7.822  18.060  0.00  0.00    +0.000 A 
ATOM      5  N   UNL     1       7.930   6.490  18.363  0.00  0.00    +0.000 N 
ATOM      6  C   UNL     1       8.364   5.865  19.588  0.00  0.00    +0.000 C 
ENDROOT
BRANCH   1   7
ATOM      7  C   UNL     1       7.139   4.384  17.182  0.00  0.00    +0.000 C 
BRANCH   7  10
ATOM      8  C   UNL     1       5.082   3.832  18.443  0.00  0.00    +0.000 C 
ATOM      9  O   UNL     1       5.699   3.714  19.499  0.00  0.00    +0.000 OA
ATOM     10  N   UNL     1       5.728   4.076  17.255  0.00  0.00    +0.000 N 
ATOM     11  H   UNL     1       5.162   4.235  16.427  0.00  0.00    +0.000 HD
BRANCH   8  17
ATOM     12  C   UNL     1       2.683   4.679  17.958  0.00  0.00    +0.000 A 
ATOM     13  C   UNL     1       1.300   4.427  18.018  0.00  0.00    +0.000 A 
ATOM     14  C   UNL     1       0.810   3.212  18.503  0.00  0.00    +0.000 A 
ATOM     15  C   UNL     1       1.691   2.236  18.946  0.00  0.00    +0.000 A 
ATOM     16  C   UNL     1       3.065   2.481  18.911  0.00  0.00    +0.000 A 
ATOM     17  C   UNL     1       3.582   3.697  18.425  0.00  0.00    +0.000 A 
BRANCH  12  19
ATOM     18  C   UNL     1       2.834   7.039  18.246  0.00  0.00    +0.000 C 
ATOM     19  O   UNL     1       3.192   5.873  17.506  0.00  0.00    +0.000 OA
ENDBRANCH  12  19
ENDBRANCH   8  17
ENDBRANCH   7  10
ENDBRANCH   1   7
BRANCH   4  20
ATOM     20  S   UNL     1       8.587   9.061  19.056  0.00  0.00    +0.000 S 
BRANCH  20  21
ATOM     21  C   UNL     1       8.728  10.432  17.874  0.00  0.00    +0.000 C 
BRANCH  21  22
ATOM     22  C   UNL     1       9.734  11.450  18.382  0.00  0.00    +0.000 C 
ATOM     23  O   UNL     1      10.619  11.111  19.158  0.00  0.00    +0.000 OA
ATOM     24  N   UNL     1       9.484  12.727  17.920  0.00  0.00    +0.000 N 
ATOM     25  C   UNL     1      10.241  13.789  18.328  0.00  0.00    +0.000 A 
ATOM     26  N   UNL     1      11.393  13.796  18.948  0.00  0.00    +0.000 NA
ATOM     27  C   UNL     1      11.751  15.096  19.234  0.00  0.00    +0.000 A 
ATOM     28  C   UNL     1      10.853  16.060  18.829  0.00  0.00    +0.000 A 
ATOM     29  S   UNL     1       9.545  15.314  18.002  0.00  0.00    +0.000 S 
ATOM     30  H   UNL     1       8.623  12.940  17.429  0.00  0.00    +0.000 HD
ENDBRANCH  21  22
ENDBRANCH  20  21
ENDBRANCH   4  20
TORSDOF 7
ENDMDL
MODEL 6
REMARK VINA RESULT:      -6.9      2.850      3.848
REMARK  Name = 
REMARK  9 active torsions:
REMARK  status: ('A' for Active; 'I' for Inactive)
REMARK    1  A    between atoms: C_1  and  O_2
REMARK    2  A    between atoms: O_2  and  C_3
REMARK    3  A    between atoms: C_8  and  C_9
REMARK    4  A    between atoms: N_11  and  C_12
REMARK    5  A    between atoms: C_12  and  C_13
REMARK    6  A    between atoms: C_16  and  S_17
REMARK    7  A    between atoms: S_17  and  C_18
REMARK    8  A    between atoms: C_18  and  C_19
REMARK    9  A    between atoms: N_27  and  C_28
REMARK                            x       y       z     vdW  Elec       q    Type
REMARK                         _______ _______ _______ _____ _____    ______ ____
ROOT
ATOM      1  C   UNL     1       1.931   7.387  20.012  0.00  0.00    +0.000 A 
ATOM      2  N   UNL     1       2.143   8.275  19.055  0.00  0.00    +0.000 NA
ATOM      3  N   UNL     1       2.879   7.673  18.062  0.00  0.00    +0.000 NA
ATOM      4  C   UNL     1       3.072   6.421  18.415  0.00  0.00    +0.000 A 
ATOM      5  N   UNL     1       2.541   6.205  19.655  0.00  0.00    +0.000 N 
ATOM      6  C   UNL     1       2.678   5.035  20.485  0.00  0.00    +0.000 C 
ENDROOT
BRANCH   1   7
ATOM      7  C   UNL     1       1.202   7.614  21.291  0.00  0.00    +0.000 C 
BRANCH   7  10
ATOM      8  C   UNL     1       0.343   9.781  22.125  0.00  0.00    +0.000 C 
ATOM      9  O   UNL     1       0.909   9.648  23.207  0.00  0.00    +0.000 OA
ATOM     10  N   UNL     1       0.371   8.792  21.171  0.00  0.00    +0.000 N 
ATOM     11  H   UNL     1      -0.053   8.986  20.269  0.00  0.00    +0.000 HD
BRANCH   8  17
ATOM     12  C   UNL     1      -0.438  11.700  20.572  0.00  0.00    +0.000 A 
ATOM     13  C   UNL     1      -1.179  12.888  20.433  0.00  0.00    +0.000 A 
ATOM     14  C   UNL     1      -1.914  13.407  21.501  0.00  0.00    +0.000 A 
ATOM     15  C   UNL     1      -1.912  12.755  22.726  0.00  0.00    +0.000 A 
ATOM     16  C   UNL     1      -1.166  11.586  22.884  0.00  0.00    +0.000 A 
ATOM     17  C   UNL     1      -0.418  11.045  21.821  0.00  0.00    +0.000 A 
BRANCH  12  19
ATOM     18  C   UNL     1       1.413  11.967  19.096  0.00  0.00    +0.000 C 
ATOM     19  O   UNL     1       0.312  11.179  19.544  0.00  0.00    +0.000 OA
ENDBRANCH  12  19
ENDBRANCH   8  17
ENDBRANCH   7  10
ENDBRANCH   1   7
BRANCH   4  20
ATOM     20  S   UNL     1       3.915   5.234  17.490  0.00  0.00    +0.000 S 
BRANCH  20  21
ATOM     21  C   UNL     1       5.641   5.621  17.901  0.00  0.00    +0.000 C 
BRANCH  21  22
ATOM     22  C   UNL     1       6.451   5.780  16.625  0.00  0.00    +0.000 C 
ATOM     23  O   UNL     1       7.178   6.753  16.471  0.00  0.00    +0.000 OA
ATOM     24  N   UNL     1       6.218   4.769  15.713  0.00  0.00    +0.000 N 
ATOM     25  C   UNL     1       6.802   4.781  14.478  0.00  0.00    +0.000 A 
ATOM     26  N   UNL     1       7.799   5.505  14.040  0.00  0.00    +0.000 NA
ATOM     27  C   UNL     1       8.003   5.242  12.702  0.00  0.00    +0.000 A 
ATOM     28  C   UNL     1       7.146   4.319  12.143  0.00  0.00    +0.000 A 
ATOM     29  S   UNL     1       6.089   3.711  13.353  0.00  0.00    +0.000 S 
ATOM     30  H   UNL     1       5.464   4.107  15.858  0.00  0.00    +0.000 HD
ENDBRANCH  21  22
ENDBRANCH  20  21
ENDBRANCH   4  20
TORSDOF 7
ENDMDL
MODEL 7
REMARK VINA RESULT:      -6.9      2.295      3.726
REMARK  Name = 
REMARK  9 active torsions:
REMARK  status: ('A' for Active; 'I' for Inactive)
REMARK    1  A    between atoms: C_1  and  O_2
REMARK    2  A    between atoms: O_2  and  C_3
REMARK    3  A    between atoms: C_8  and  C_9
REMARK    4  A    between atoms: N_11  and  C_12
REMARK    5  A    between atoms: C_12  and  C_13
REMARK    6  A    between atoms: C_16  and  S_17
REMARK    7  A    between atoms: S_17  and  C_18
REMARK    8  A    between atoms: C_18  and  C_19
REMARK    9  A    between atoms: N_27  and  C_28
REMARK                            x       y       z     vdW  Elec       q    Type
REMARK                         _______ _______ _______ _____ _____    ______ ____
ROOT
ATOM      1  C   UNL     1       1.368   9.730  18.571  0.00  0.00    +0.000 A 
ATOM      2  N   UNL     1       2.003   9.187  17.545  0.00  0.00    +0.000 NA
ATOM      3  N   UNL     1       2.444   7.941  17.921  0.00  0.00    +0.000 NA
ATOM      4  C   UNL     1       2.040   7.732  19.154  0.00  0.00    +0.000 A 
ATOM      5  N   UNL     1       1.405   8.846  19.625  0.00  0.00    +0.000 N 
ATOM      6  C   UNL     1       0.962   9.109  20.972  0.00  0.00    +0.000 C 
ENDROOT
BRANCH   1   7
ATOM      7  C   UNL     1       0.751  11.085  18.620  0.00  0.00    +0.000 C 
BRANCH   7  10
ATOM      8  C   UNL     1      -1.605  11.787  18.908  0.00  0.00    +0.000 C 
ATOM      9  O   UNL     1      -1.323  12.532  19.843  0.00  0.00    +0.000 OA
ATOM     10  N   UNL     1      -0.660  10.985  18.315  0.00  0.00    +0.000 N 
ATOM     11  H   UNL     1      -0.934  10.445  17.500  0.00  0.00    +0.000 HD
BRANCH   8  17
ATOM     12  C   UNL     1      -3.393  11.307  17.097  0.00  0.00    +0.000 A 
ATOM     13  C   UNL     1      -4.754  11.318  16.740  0.00  0.00    +0.000 A 
ATOM     14  C   UNL     1      -5.735  11.706  17.655  0.00  0.00    +0.000 A 
ATOM     15  C   UNL     1      -5.373  12.100  18.935  0.00  0.00    +0.000 A 
ATOM     16  C   UNL     1      -4.025  12.114  19.297  0.00  0.00    +0.000 A 
ATOM     17  C   UNL     1      -3.019  11.725  18.391  0.00  0.00    +0.000 A 
BRANCH  12  19
ATOM     18  C   UNL     1      -2.827  10.296  15.015  0.00  0.00    +0.000 C 
ATOM     19  O   UNL     1      -2.405  10.950  16.210  0.00  0.00    +0.000 OA
ENDBRANCH  12  19
ENDBRANCH   8  17
ENDBRANCH   7  10
ENDBRANCH   1   7
BRANCH   4  20
ATOM     20  S   UNL     1       2.313   6.297  20.072  0.00  0.00    +0.000 S 
BRANCH  20  21
ATOM     21  C   UNL     1       1.746   5.019  18.913  0.00  0.00    +0.000 C 
BRANCH  21  22
ATOM     22  C   UNL     1       2.879   4.632  17.978  0.00  0.00    +0.000 C 
ATOM     23  O   UNL     1       2.677   3.863  17.047  0.00  0.00    +0.000 OA
ATOM     24  N   UNL     1       4.089   5.188  18.344  0.00  0.00    +0.000 N 
ATOM     25  C   UNL     1       5.238   4.896  17.664  0.00  0.00    +0.000 A 
ATOM     26  N   UNL     1       5.387   4.320  16.500  0.00  0.00    +0.000 NA
ATOM     27  C   UNL     1       6.731   4.154  16.240  0.00  0.00    +0.000 A 
ATOM     28  C   UNL     1       7.584   4.605  17.224  0.00  0.00    +0.000 A 
ATOM     29  S   UNL     1       6.671   5.321  18.490  0.00  0.00    +0.000 S 
ATOM     30  H   UNL     1       4.191   5.664  19.234  0.00  0.00    +0.000 HD
ENDBRANCH  21  22
ENDBRANCH  20  21
ENDBRANCH   4  20
TORSDOF 7
ENDMDL
MODEL 8
REMARK VINA RESULT:      -6.9      1.356      1.751
REMARK  Name = 
REMARK  9 active torsions:
REMARK  status: ('A' for Active; 'I' for Inactive)
REMARK    1  A    between atoms: C_1  and  O_2
REMARK    2  A    between atoms: O_2  and  C_3
REMARK    3  A    between atoms: C_8  and  C_9
REMARK    4  A    between atoms: N_11  and  C_12
REMARK    5  A    between atoms: C_12  and  C_13
REMARK    6  A    between atoms: C_16  and  S_17
REMARK    7  A    between atoms: S_17  and  C_18
REMARK    8  A    between atoms: C_18  and  C_19
REMARK    9  A    between atoms: N_27  and  C_28
REMARK                            x       y       z     vdW  Elec       q    Type
REMARK                         _______ _______ _______ _____ _____    ______ ____
ROOT
ATOM      1  C   UNL     1       1.869   6.077  20.241  0.00  0.00    +0.000 A 
ATOM      2  N   UNL     1       1.233   5.044  20.768  0.00  0.00    +0.000 NA
ATOM      3  N   UNL     1       1.262   4.011  19.862  0.00  0.00    +0.000 NA
ATOM      4  C   UNL     1       1.945   4.420  18.816  0.00  0.00    +0.000 A 
ATOM      5  N   UNL     1       2.304   5.727  18.983  0.00  0.00    +0.000 N 
ATOM      6  C   UNL     1       2.906   6.610  18.015  0.00  0.00    +0.000 C 
ENDROOT
BRANCH   1   7
ATOM      7  C   UNL     1       2.055   7.418  20.862  0.00  0.00    +0.000 C 
BRANCH   7  10
ATOM      8  C   UNL     1       0.741   9.507  21.050  0.00  0.00    +0.000 C 
ATOM      9  O   UNL     1       1.325   9.843  22.077  0.00  0.00    +0.000 OA
ATOM     10  N   UNL     1       0.984   8.297  20.446  0.00  0.00    +0.000 N 
ATOM     11  H   UNL     1       0.525   8.104  19.561  0.00  0.00    +0.000 HD
BRANCH   8  17
ATOM     12  C   UNL     1      -0.970  11.451  21.105  0.00  0.00    +0.000 A 
ATOM     13  C   UNL     1      -1.917  12.219  20.403  0.00  0.00    +0.000 A 
ATOM     14  C   UNL     1      -2.160  11.998  19.046  0.00  0.00    +0.000 A 
ATOM     15  C   UNL     1      -1.471  11.000  18.372  0.00  0.00    +0.000 A 
ATOM     16  C   UNL     1      -0.544  10.216  19.060  0.00  0.00    +0.000 A 
ATOM     17  C   UNL     1      -0.282  10.422  20.428  0.00  0.00    +0.000 A 
BRANCH  12  19
ATOM     18  C   UNL     1      -1.266  12.814  23.037  0.00  0.00    +0.000 C 
ATOM     19  O   UNL     1      -0.727  11.633  22.446  0.00  0.00    +0.000 OA
ENDBRANCH  12  19
ENDBRANCH   8  17
ENDBRANCH   7  10
ENDBRANCH   1   7
BRANCH   4  20
ATOM     20  S   UNL     1       2.295   3.478  17.413  0.00  0.00    +0.000 S 
BRANCH  20  21
ATOM     21  C   UNL     1       3.563   2.346  18.051  0.00  0.00    +0.000 C 
BRANCH  21  22
ATOM     22  C   UNL     1       4.708   3.141  18.656  0.00  0.00    +0.000 C 
ATOM     23  O   UNL     1       4.982   3.024  19.844  0.00  0.00    +0.000 OA
ATOM     24  N   UNL     1       5.306   3.992  17.748  0.00  0.00    +0.000 N 
ATOM     25  C   UNL     1       6.308   4.842  18.128  0.00  0.00    +0.000 A 
ATOM     26  N   UNL     1       7.021   4.843  19.224  0.00  0.00    +0.000 NA
ATOM     27  C   UNL     1       7.865   5.933  19.219  0.00  0.00    +0.000 A 
ATOM     28  C   UNL     1       7.772   6.750  18.112  0.00  0.00    +0.000 A 
ATOM     29  S   UNL     1       6.632   6.091  17.010  0.00  0.00    +0.000 S 
ATOM     30  H   UNL     1       4.892   4.151  16.837  0.00  0.00    +0.000 HD
ENDBRANCH  21  22
ENDBRANCH  20  21
ENDBRANCH   4  20
TORSDOF 7
ENDMDL
MODEL 9
REMARK VINA RESULT:      -6.8      5.020      7.972
REMARK  Name = 
REMARK  9 active torsions:
REMARK  status: ('A' for Active; 'I' for Inactive)
REMARK    1  A    between atoms: C_1  and  O_2
REMARK    2  A    between atoms: O_2  and  C_3
REMARK    3  A    between atoms: C_8  and  C_9
REMARK    4  A    between atoms: N_11  and  C_12
REMARK    5  A    between atoms: C_12  and  C_13
REMARK    6  A    between atoms: C_16  and  S_17
REMARK    7  A    between atoms: S_17  and  C_18
REMARK    8  A    between atoms: C_18  and  C_19
REMARK    9  A    between atoms: N_27  and  C_28
REMARK                            x       y       z     vdW  Elec       q    Type
REMARK                         _______ _______ _______ _____ _____    ______ ____
ROOT
ATOM      1  C   UNL     1       7.995   7.753  18.247  0.00  0.00    +0.000 A 
ATOM      2  N   UNL     1       7.588   8.092  17.035  0.00  0.00    +0.000 NA
ATOM      3  N   UNL     1       6.926   7.019  16.486  0.00  0.00    +0.000 NA
ATOM      4  C   UNL     1       6.912   6.060  17.385  0.00  0.00    +0.000 A 
ATOM      5  N   UNL     1       7.615   6.453  18.489  0.00  0.00    +0.000 N 
ATOM      6  C   UNL     1       7.993   5.654  19.628  0.00  0.00    +0.000 C 
ENDROOT
BRANCH   1   7
ATOM      7  C   UNL     1       8.777   8.599  19.191  0.00  0.00    +0.000 C 
BRANCH   7  10
ATOM      8  C   UNL     1       9.618  10.927  19.244  0.00  0.00    +0.000 C 
ATOM      9  O   UNL     1       9.664  10.938  20.470  0.00  0.00    +0.000 OA
ATOM     10  N   UNL     1       9.117   9.851  18.550  0.00  0.00    +0.000 N 
ATOM     11  H   UNL     1       9.170   9.869  17.536  0.00  0.00    +0.000 HD
BRANCH   8  17
ATOM     12  C   UNL     1       9.474  13.379  18.421  0.00  0.00    +0.000 A 
ATOM     13  C   UNL     1      10.028  14.399  17.627  0.00  0.00    +0.000 A 
ATOM     14  C   UNL     1      11.205  14.190  16.904  0.00  0.00    +0.000 A 
ATOM     15  C   UNL     1      11.839  12.956  16.953  0.00  0.00    +0.000 A 
ATOM     16  C   UNL     1      11.289  11.929  17.721  0.00  0.00    +0.000 A 
ATOM     17  C   UNL     1      10.105  12.118  18.458  0.00  0.00    +0.000 A 
BRANCH  12  19
ATOM     18  C   UNL     1       8.387  14.341  20.310  0.00  0.00    +0.000 C 
ATOM     19  O   UNL     1       8.306  13.551  19.125  0.00  0.00    +0.000 OA
ENDBRANCH  12  19
ENDBRANCH   8  17
ENDBRANCH   7  10
ENDBRANCH   1   7
BRANCH   4  20
ATOM     20  S   UNL     1       6.171   4.513  17.194  0.00  0.00    +0.000 S 
BRANCH  20  21
ATOM     21  C   UNL     1       4.550   4.975  16.519  0.00  0.00    +0.000 C 
BRANCH  21  22
ATOM     22  C   UNL     1       3.485   4.833  17.592  0.00  0.00    +0.000 C 
ATOM     23  O   UNL     1       2.579   5.652  17.677  0.00  0.00    +0.000 OA
ATOM     24  N   UNL     1       3.709   3.757  18.429  0.00  0.00    +0.000 N 
ATOM     25  C   UNL     1       2.895   3.511  19.499  0.00  0.00    +0.000 A 
ATOM     26  N   UNL     1       1.717   4.007  19.775  0.00  0.00    +0.000 NA
ATOM     27  C   UNL     1       1.298   3.537  21.002  0.00  0.00    +0.000 A 
ATOM     28  C   UNL     1       2.178   2.691  21.643  0.00  0.00    +0.000 A 
ATOM     29  S   UNL     1       3.548   2.424  20.643  0.00  0.00    +0.000 S 
ATOM     30  H   UNL     1       4.583   3.245  18.391  0.00  0.00    +0.000 HD
ENDBRANCH  21  22
ENDBRANCH  20  21
ENDBRANCH   4  20
TORSDOF 7
ENDMDL
