MODEL 1
REMARK VINA RESULT:      -8.1      0.000      0.000
REMARK  Name = 
REMARK  8 active torsions:
REMARK  status: ('A' for Active; 'I' for Inactive)
REMARK    1  A    between atoms: C_1  and  C_2
REMARK    2  A    between atoms: C_2  and  C_3
REMARK    3  A    between atoms: C_3  and  C_4
REMARK    4  A    between atoms: C_6  and  C_7
REMARK    5  A    between atoms: C_7  and  C_8
REMARK    6  A    between atoms: C_14  and  N_15
REMARK    7  A    between atoms: C_22  and  O_23
REMARK    8  A    between atoms: O_23  and  C_24
REMARK                            x       y       z     vdW  Elec       q    Type
REMARK                         _______ _______ _______ _____ _____    ______ ____
ROOT
ATOM      1  C   UNL     1       2.406   4.174  18.376  0.00  0.00    +0.000 A 
ATOM      2  C   UNL     1       2.119   5.542  18.244  0.00  0.00    +0.000 A 
ATOM      3  C   UNL     1       3.101   6.493  17.927  0.00  0.00    +0.000 A 
ATOM      4  C   UNL     1       4.423   6.059  17.679  0.00  0.00    +0.000 A 
ATOM      5  C   UNL     1       5.462   6.951  17.337  0.00  0.00    +0.000 A 
ATOM      6  C   UNL     1       6.756   6.498  17.134  0.00  0.00    +0.000 A 
ATOM      7  C   UNL     1       6.982   5.149  17.265  0.00  0.00    +0.000 A 
ATOM      8  N   UNL     1       6.021   4.259  17.586  0.00  0.00    +0.000 NA
ATOM      9  C   UNL     1       4.749   4.684  17.801  0.00  0.00    +0.000 A 
ATOM     10  C   UNL     1       3.736   3.757  18.164  0.00  0.00    +0.000 A 
ENDROOT
BRANCH  10  11
ATOM     11  O   UNL     1       4.226   2.489  18.403  0.00  0.00    +0.000 OA
ATOM     12  C   UNL     1       4.483   2.056  19.724  0.00  0.00    +0.000 C 
ENDBRANCH  10  11
BRANCH   1  13
ATOM     13  C   UNL     1       1.254   3.317  18.852  0.00  0.00    +0.000 C 
BRANCH  13  15
ATOM     14  C   UNL     1       1.366   2.915  21.332  0.00  0.00    +0.000 C 
ATOM     15  C   UNL     1       0.743   3.753  20.226  0.00  0.00    +0.000 C 
ENDBRANCH  13  15
ENDBRANCH   1  13
BRANCH   3  16
ATOM     16  C   UNL     1       2.693   7.956  17.913  0.00  0.00    +0.000 C 
BRANCH  16  17
ATOM     17  C   UNL     1       1.827   8.443  19.039  0.00  0.00    +0.000 A 
ATOM     18  C   UNL     1       1.846   7.878  20.298  0.00  0.00    +0.000 A 
ATOM     19  N   UNL     1       1.236   8.409  21.376  0.00  0.00    +0.000 NA
ATOM     20  C   UNL     1       0.590   9.553  21.177  0.00  0.00    +0.000 A 
ATOM     21  N   UNL     1       0.047  10.173  22.283  0.00  0.00    +0.000 N 
ATOM     22  N   UNL     1       0.433  10.146  19.992  0.00  0.00    +0.000 NA
ATOM     23  C   UNL     1       1.060   9.590  18.945  0.00  0.00    +0.000 A 
ATOM     24  H   UNL     1      -0.126   9.491  23.008  0.00  0.00    +0.000 HD
ATOM     25  H   UNL     1      -0.709  10.783  22.015  0.00  0.00    +0.000 HD
BRANCH  23  26
ATOM     26  N   UNL     1       0.851  10.241  17.725  0.00  0.00    +0.000 N 
ATOM     27  H   UNL     1      -0.153  10.246  17.561  0.00  0.00    +0.000 HD
ATOM     28  H   UNL     1       1.229  11.182  17.713  0.00  0.00    +0.000 HD
ENDBRANCH  23  26
ENDBRANCH  16  17
ENDBRANCH   3  16
TORSDOF 6
ENDMDL
MODEL 2
REMARK VINA RESULT:      -7.8      2.876      6.784
REMARK  Name = 
REMARK  8 active torsions:
REMARK  status: ('A' for Active; 'I' for Inactive)
REMARK    1  A    between atoms: C_1  and  C_2
REMARK    2  A    between atoms: C_2  and  C_3
REMARK    3  A    between atoms: C_3  and  C_4
REMARK    4  A    between atoms: C_6  and  C_7
REMARK    5  A    between atoms: C_7  and  C_8
REMARK    6  A    between atoms: C_14  and  N_15
REMARK    7  A    between atoms: C_22  and  O_23
REMARK    8  A    between atoms: O_23  and  C_24
REMARK                            x       y       z     vdW  Elec       q    Type
REMARK                         _______ _______ _______ _____ _____    ______ ____
ROOT
ATOM      1  C   UNL     1       2.950   6.797  18.338  0.00  0.00    +0.000 A 
ATOM      2  C   UNL     1       3.406   5.754  17.516  0.00  0.00    +0.000 A 
ATOM      3  C   UNL     1       3.478   4.423  17.954  0.00  0.00    +0.000 A 
ATOM      4  C   UNL     1       3.028   4.102  19.254  0.00  0.00    +0.000 A 
ATOM      5  C   UNL     1       3.052   2.785  19.762  0.00  0.00    +0.000 A 
ATOM      6  C   UNL     1       2.636   2.508  21.054  0.00  0.00    +0.000 A 
ATOM      7  C   UNL     1       2.188   3.562  21.814  0.00  0.00    +0.000 A 
ATOM      8  N   UNL     1       2.144   4.835  21.371  0.00  0.00    +0.000 NA
ATOM      9  C   UNL     1       2.558   5.129  20.112  0.00  0.00    +0.000 A 
ATOM     10  C   UNL     1       2.539   6.471  19.647  0.00  0.00    +0.000 A 
ENDROOT
BRANCH  10  11
ATOM     11  O   UNL     1       2.214   7.379  20.634  0.00  0.00    +0.000 OA
ATOM     12  C   UNL     1       0.871   7.773  20.833  0.00  0.00    +0.000 C 
ENDBRANCH  10  11
BRANCH   1  13
ATOM     13  C   UNL     1       3.067   8.183  17.744  0.00  0.00    +0.000 C 
BRANCH  13  15
ATOM     14  C   UNL     1       1.736  10.268  18.198  0.00  0.00    +0.000 C 
ATOM     15  C   UNL     1       1.706   8.867  17.607  0.00  0.00    +0.000 C 
ENDBRANCH  13  15
ENDBRANCH   1  13
BRANCH   3  16
ATOM     16  C   UNL     1       4.086   3.398  17.012  0.00  0.00    +0.000 C 
BRANCH  16  17
ATOM     17  C   UNL     1       5.261   3.832  16.183  0.00  0.00    +0.000 A 
ATOM     18  C   UNL     1       5.203   3.962  14.810  0.00  0.00    +0.000 A 
ATOM     19  N   UNL     1       6.168   4.533  14.062  0.00  0.00    +0.000 NA
ATOM     20  C   UNL     1       7.224   4.995  14.724  0.00  0.00    +0.000 A 
ATOM     21  N   UNL     1       8.176   5.678  13.997  0.00  0.00    +0.000 N 
ATOM     22  N   UNL     1       7.427   4.851  16.034  0.00  0.00    +0.000 NA
ATOM     23  C   UNL     1       6.442   4.282  16.745  0.00  0.00    +0.000 A 
ATOM     24  H   UNL     1       8.138   5.393  13.028  0.00  0.00    +0.000 HD
ATOM     25  H   UNL     1       9.068   5.652  14.465  0.00  0.00    +0.000 HD
BRANCH  23  26
ATOM     26  N   UNL     1       6.711   4.140  18.109  0.00  0.00    +0.000 N 
ATOM     27  H   UNL     1       6.030   4.712  18.606  0.00  0.00    +0.000 HD
ATOM     28  H   UNL     1       6.673   3.176  18.419  0.00  0.00    +0.000 HD
ENDBRANCH  23  26
ENDBRANCH  16  17
ENDBRANCH   3  16
TORSDOF 6
ENDMDL
MODEL 3
REMARK VINA RESULT:      -7.5      1.482      4.259
REMARK  Name = 
REMARK  8 active torsions:
REMARK  status: ('A' for Active; 'I' for Inactive)
REMARK    1  A    between atoms: C_1  and  C_2
REMARK    2  A    between atoms: C_2  and  C_3
REMARK    3  A    between atoms: C_3  and  C_4
REMARK    4  A    between atoms: C_6  and  C_7
REMARK    5  A    between atoms: C_7  and  C_8
REMARK    6  A    between atoms: C_14  and  N_15
REMARK    7  A    between atoms: C_22  and  O_23
REMARK    8  A    between atoms: O_23  and  C_24
REMARK                            x       y       z     vdW  Elec       q    Type
REMARK                         _______ _______ _______ _____ _____    ______ ____
ROOT
ATOM      1  C   UNL     1       5.155   5.899  17.536  0.00  0.00    +0.000 A 
ATOM      2  C   UNL     1       4.256   6.476  18.448  0.00  0.00    +0.000 A 
ATOM      3  C   UNL     1       3.208   5.751  19.036  0.00  0.00    +0.000 A 
ATOM      4  C   UNL     1       3.077   4.375  18.745  0.00  0.00    +0.000 A 
ATOM      5  C   UNL     1       2.060   3.574  19.310  0.00  0.00    +0.000 A 
ATOM      6  C   UNL     1       1.937   2.234  18.978  0.00  0.00    +0.000 A 
ATOM      7  C   UNL     1       2.849   1.716  18.089  0.00  0.00    +0.000 A 
ATOM      8  N   UNL     1       3.837   2.440  17.527  0.00  0.00    +0.000 NA
ATOM      9  C   UNL     1       3.968   3.757  17.830  0.00  0.00    +0.000 A 
ATOM     10  C   UNL     1       4.991   4.534  17.223  0.00  0.00    +0.000 A 
ENDROOT
BRANCH  10  11
ATOM     11  O   UNL     1       5.676   3.849  16.240  0.00  0.00    +0.000 OA
ATOM     12  C   UNL     1       5.546   4.223  14.882  0.00  0.00    +0.000 C 
ENDBRANCH  10  11
BRANCH   1  13
ATOM     13  C   UNL     1       6.135   6.862  16.902  0.00  0.00    +0.000 C 
BRANCH  13  15
ATOM     14  C   UNL     1       7.972   8.337  17.781  0.00  0.00    +0.000 C 
ATOM     15  C   UNL     1       7.464   6.908  17.656  0.00  0.00    +0.000 C 
ENDBRANCH  13  15
ENDBRANCH   1  13
BRANCH   3  16
ATOM     16  C   UNL     1       2.237   6.506  19.927  0.00  0.00    +0.000 C 
BRANCH  16  17
ATOM     17  C   UNL     1       1.887   7.913  19.532  0.00  0.00    +0.000 A 
ATOM     18  C   UNL     1       1.863   8.339  18.221  0.00  0.00    +0.000 A 
ATOM     19  N   UNL     1       1.366   9.526  17.819  0.00  0.00    +0.000 NA
ATOM     20  C   UNL     1       0.872  10.306  18.775  0.00  0.00    +0.000 A 
ATOM     21  N   UNL     1       0.262  11.478  18.381  0.00  0.00    +0.000 N 
ATOM     22  N   UNL     1       0.917  10.036  20.081  0.00  0.00    +0.000 NA
ATOM     23  C   UNL     1       1.414   8.843  20.439  0.00  0.00    +0.000 A 
ATOM     24  H   UNL     1       0.620  11.766  17.482  0.00  0.00    +0.000 HD
ATOM     25  H   UNL     1       0.266  12.152  19.131  0.00  0.00    +0.000 HD
BRANCH  23  26
ATOM     26  N   UNL     1       1.454   8.617  21.818  0.00  0.00    +0.000 N 
ATOM     27  H   UNL     1       0.567   8.944  22.197  0.00  0.00    +0.000 HD
ATOM     28  H   UNL     1       1.614   7.643  22.052  0.00  0.00    +0.000 HD
ENDBRANCH  23  26
ENDBRANCH  16  17
ENDBRANCH   3  16
TORSDOF 6
ENDMDL
MODEL 4
REMARK VINA RESULT:      -7.4      1.291      2.105
REMARK  Name = 
REMARK  8 active torsions:
REMARK  status: ('A' for Active; 'I' for Inactive)
REMARK    1  A    between atoms: C_1  and  C_2
REMARK    2  A    between atoms: C_2  and  C_3
REMARK    3  A    between atoms: C_3  and  C_4
REMARK    4  A    between atoms: C_6  and  C_7
REMARK    5  A    between atoms: C_7  and  C_8
REMARK    6  A    between atoms: C_14  and  N_15
REMARK    7  A    between atoms: C_22  and  O_23
REMARK    8  A    between atoms: O_23  and  C_24
REMARK                            x       y       z     vdW  Elec       q    Type
REMARK                         _______ _______ _______ _____ _____    ______ ____
ROOT
ATOM      1  C   UNL     1       1.748   3.995  19.096  0.00  0.00    +0.000 A 
ATOM      2  C   UNL     1       1.789   5.305  19.601  0.00  0.00    +0.000 A 
ATOM      3  C   UNL     1       2.664   6.281  19.101  0.00  0.00    +0.000 A 
ATOM      4  C   UNL     1       3.505   5.957  18.013  0.00  0.00    +0.000 A 
ATOM      5  C   UNL     1       4.400   6.888  17.442  0.00  0.00    +0.000 A 
ATOM      6  C   UNL     1       5.236   6.528  16.397  0.00  0.00    +0.000 A 
ATOM      7  C   UNL     1       5.150   5.238  15.933  0.00  0.00    +0.000 A 
ATOM      8  N   UNL     1       4.309   4.316  16.443  0.00  0.00    +0.000 NA
ATOM      9  C   UNL     1       3.489   4.644  17.475  0.00  0.00    +0.000 A 
ATOM     10  C   UNL     1       2.619   3.672  18.035  0.00  0.00    +0.000 A 
ENDROOT
BRANCH  10  11
ATOM     11  O   UNL     1       2.824   2.406  17.525  0.00  0.00    +0.000 OA
ATOM     12  C   UNL     1       3.585   1.457  18.246  0.00  0.00    +0.000 C 
ENDBRANCH  10  11
BRANCH   1  13
ATOM     13  C   UNL     1       0.840   3.045  19.845  0.00  0.00    +0.000 C 
BRANCH  13  15
ATOM     14  C   UNL     1       2.619   2.551  21.552  0.00  0.00    +0.000 C 
ATOM     15  C   UNL     1       1.176   2.981  21.335  0.00  0.00    +0.000 C 
ENDBRANCH  13  15
ENDBRANCH   1  13
BRANCH   3  16
ATOM     16  C   UNL     1       2.692   7.631  19.795  0.00  0.00    +0.000 C 
BRANCH  16  17
ATOM     17  C   UNL     1       1.634   8.628  19.412  0.00  0.00    +0.000 A 
ATOM     18  C   UNL     1       1.372   8.976  18.104  0.00  0.00    +0.000 A 
ATOM     19  N   UNL     1       0.310   9.709  17.713  0.00  0.00    +0.000 NA
ATOM     20  C   UNL     1      -0.519  10.096  18.677  0.00  0.00    +0.000 A 
ATOM     21  N   UNL     1      -1.669  10.754  18.295  0.00  0.00    +0.000 N 
ATOM     22  N   UNL     1      -0.323   9.891  19.981  0.00  0.00    +0.000 NA
ATOM     23  C   UNL     1       0.742   9.154  20.328  0.00  0.00    +0.000 A 
ATOM     24  H   UNL     1      -1.530  11.192  17.395  0.00  0.00    +0.000 HD
ATOM     25  H   UNL     1      -2.022  11.321  19.050  0.00  0.00    +0.000 HD
BRANCH  23  26
ATOM     26  N   UNL     1       0.910   8.982  21.706  0.00  0.00    +0.000 N 
ATOM     27  H   UNL     1       1.327   8.063  21.840  0.00  0.00    +0.000 HD
ATOM     28  H   UNL     1       1.480   9.707  22.125  0.00  0.00    +0.000 HD
ENDBRANCH  23  26
ENDBRANCH  16  17
ENDBRANCH   3  16
TORSDOF 6
ENDMDL
MODEL 5
REMARK VINA RESULT:      -7.3      1.325      1.560
REMARK  Name = 
REMARK  8 active torsions:
REMARK  status: ('A' for Active; 'I' for Inactive)
REMARK    1  A    between atoms: C_1  and  C_2
REMARK    2  A    between atoms: C_2  and  C_3
REMARK    3  A    between atoms: C_3  and  C_4
REMARK    4  A    between atoms: C_6  and  C_7
REMARK    5  A    between atoms: C_7  and  C_8
REMARK    6  A    between atoms: C_14  and  N_15
REMARK    7  A    between atoms: C_22  and  O_23
REMARK    8  A    between atoms: O_23  and  C_24
REMARK                            x       y       z     vdW  Elec       q    Type
REMARK                         _______ _______ _______ _____ _____    ______ ____
ROOT
ATOM      1  C   UNL     1       1.763   3.947  19.142  0.00  0.00    +0.000 A 
ATOM      2  C   UNL     1       1.847   5.259  19.636  0.00  0.00    +0.000 A 
ATOM      3  C   UNL     1       2.742   6.206  19.116  0.00  0.00    +0.000 A 
ATOM      4  C   UNL     1       3.558   5.850  18.019  0.00  0.00    +0.000 A 
ATOM      5  C   UNL     1       4.470   6.752  17.429  0.00  0.00    +0.000 A 
ATOM      6  C   UNL     1       5.282   6.362  16.375  0.00  0.00    +0.000 A 
ATOM      7  C   UNL     1       5.154   5.071  15.923  0.00  0.00    +0.000 A 
ATOM      8  N   UNL     1       4.295   4.176  16.451  0.00  0.00    +0.000 NA
ATOM      9  C   UNL     1       3.499   4.535  17.491  0.00  0.00    +0.000 A 
ATOM     10  C   UNL     1       2.610   3.591  18.072  0.00  0.00    +0.000 A 
ENDROOT
BRANCH  10  11
ATOM     11  O   UNL     1       2.774   2.316  17.569  0.00  0.00    +0.000 OA
ATOM     12  C   UNL     1       3.565   1.369  18.260  0.00  0.00    +0.000 C 
ENDBRANCH  10  11
BRANCH   1  13
ATOM     13  C   UNL     1       0.840   3.027  19.910  0.00  0.00    +0.000 C 
BRANCH  13  15
ATOM     14  C   UNL     1       2.627   2.498  21.598  0.00  0.00    +0.000 C 
ATOM     15  C   UNL     1       1.194   2.967  21.396  0.00  0.00    +0.000 C 
ENDBRANCH  13  15
ENDBRANCH   1  13
BRANCH   3  16
ATOM     16  C   UNL     1       2.816   7.561  19.799  0.00  0.00    +0.000 C 
BRANCH  16  17
ATOM     17  C   UNL     1       1.577   8.410  19.787  0.00  0.00    +0.000 A 
ATOM     18  C   UNL     1       0.729   8.514  20.870  0.00  0.00    +0.000 A 
ATOM     19  N   UNL     1      -0.273   9.411  20.965  0.00  0.00    +0.000 NA
ATOM     20  C   UNL     1      -0.419  10.235  19.932  0.00  0.00    +0.000 A 
ATOM     21  N   UNL     1      -1.366  11.230  20.048  0.00  0.00    +0.000 N 
ATOM     22  N   UNL     1       0.284  10.172  18.800  0.00  0.00    +0.000 NA
ATOM     23  C   UNL     1       1.275   9.270  18.747  0.00  0.00    +0.000 A 
ATOM     24  H   UNL     1      -2.072  10.956  20.716  0.00  0.00    +0.000 HD
ATOM     25  H   UNL     1      -1.669  11.541  19.138  0.00  0.00    +0.000 HD
BRANCH  23  26
ATOM     26  N   UNL     1       1.970   9.236  17.534  0.00  0.00    +0.000 N 
ATOM     27  H   UNL     1       2.473  10.117  17.457  0.00  0.00    +0.000 HD
ATOM     28  H   UNL     1       2.602   8.446  17.467  0.00  0.00    +0.000 HD
ENDBRANCH  23  26
ENDBRANCH  16  17
ENDBRANCH   3  16
TORSDOF 6
ENDMDL
MODEL 6
REMARK VINA RESULT:      -7.2      1.486      3.957
REMARK  Name = 
REMARK  8 active torsions:
REMARK  status: ('A' for Active; 'I' for Inactive)
REMARK    1  A    between atoms: C_1  and  C_2
REMARK    2  A    between atoms: C_2  and  C_3
REMARK    3  A    between atoms: C_3  and  C_4
REMARK    4  A    between atoms: C_6  and  C_7
REMARK    5  A    between atoms: C_7  and  C_8
REMARK    6  A    between atoms: C_14  and  N_15
REMARK    7  A    between atoms: C_22  and  O_23
REMARK    8  A    between atoms: O_23  and  C_24
REMARK                            x       y       z     vdW  Elec       q    Type
REMARK                         _______ _______ _______ _____ _____    ______ ____
ROOT
ATOM      1  C   UNL     1       5.783   6.558  17.248  0.00  0.00    +0.000 A 
ATOM      2  C   UNL     1       4.693   7.429  17.403  0.00  0.00    +0.000 A 
ATOM      3  C   UNL     1       3.380   6.970  17.591  0.00  0.00    +0.000 A 
ATOM      4  C   UNL     1       3.145   5.580  17.682  0.00  0.00    +0.000 A 
ATOM      5  C   UNL     1       1.856   5.041  17.888  0.00  0.00    +0.000 A 
ATOM      6  C   UNL     1       1.653   3.671  17.938  0.00  0.00    +0.000 A 
ATOM      7  C   UNL     1       2.755   2.862  17.792  0.00  0.00    +0.000 A 
ATOM      8  N   UNL     1       4.004   3.331  17.597  0.00  0.00    +0.000 NA
ATOM      9  C   UNL     1       4.223   4.669  17.533  0.00  0.00    +0.000 A 
ATOM     10  C   UNL     1       5.531   5.172  17.302  0.00  0.00    +0.000 A 
ENDROOT
BRANCH  10  11
ATOM     11  O   UNL     1       6.447   4.179  17.017  0.00  0.00    +0.000 OA
ATOM     12  C   UNL     1       6.939   4.014  15.702  0.00  0.00    +0.000 C 
ENDBRANCH  10  11
BRANCH   1  13
ATOM     13  C   UNL     1       7.100   7.227  16.922  0.00  0.00    +0.000 C 
BRANCH  13  15
ATOM     14  C   UNL     1       8.352   9.016  18.168  0.00  0.00    +0.000 C 
ATOM     15  C   UNL     1       7.902   7.563  18.180  0.00  0.00    +0.000 C 
ENDBRANCH  13  15
ENDBRANCH   1  13
BRANCH   3  16
ATOM     16  C   UNL     1       2.268   8.003  17.642  0.00  0.00    +0.000 C 
BRANCH  16  17
ATOM     17  C   UNL     1       1.695   8.338  18.990  0.00  0.00    +0.000 A 
ATOM     18  C   UNL     1       1.940   7.581  20.117  0.00  0.00    +0.000 A 
ATOM     19  N   UNL     1       1.610   7.957  21.368  0.00  0.00    +0.000 NA
ATOM     20  C   UNL     1       1.018   9.141  21.485  0.00  0.00    +0.000 A 
ATOM     21  N   UNL     1       0.766   9.598  22.762  0.00  0.00    +0.000 N 
ATOM     22  N   UNL     1       0.657   9.919  20.464  0.00  0.00    +0.000 NA
ATOM     23  C   UNL     1       1.008   9.513  19.235  0.00  0.00    +0.000 A 
ATOM     24  H   UNL     1       0.702   8.816  23.399  0.00  0.00    +0.000 HD
ATOM     25  H   UNL     1       0.015  10.270  22.758  0.00  0.00    +0.000 HD
BRANCH  23  26
ATOM     26  N   UNL     1       0.593  10.355  18.199  0.00  0.00    +0.000 N 
ATOM     27  H   UNL     1       0.642  11.308  18.556  0.00  0.00    +0.000 HD
ATOM     28  H   UNL     1       1.152  10.250  17.360  0.00  0.00    +0.000 HD
ENDBRANCH  23  26
ENDBRANCH  16  17
ENDBRANCH   3  16
TORSDOF 6
ENDMDL
MODEL 7
REMARK VINA RESULT:      -7.1      1.574      4.150
REMARK  Name = 
REMARK  8 active torsions:
REMARK  status: ('A' for Active; 'I' for Inactive)
REMARK    1  A    between atoms: C_1  and  C_2
REMARK    2  A    between atoms: C_2  and  C_3
REMARK    3  A    between atoms: C_3  and  C_4
REMARK    4  A    between atoms: C_6  and  C_7
REMARK    5  A    between atoms: C_7  and  C_8
REMARK    6  A    between atoms: C_14  and  N_15
REMARK    7  A    between atoms: C_22  and  O_23
REMARK    8  A    between atoms: O_23  and  C_24
REMARK                            x       y       z     vdW  Elec       q    Type
REMARK                         _______ _______ _______ _____ _____    ______ ____
ROOT
ATOM      1  C   UNL     1       5.218   6.508  17.329  0.00  0.00    +0.000 A 
ATOM      2  C   UNL     1       3.995   7.167  17.533  0.00  0.00    +0.000 A 
ATOM      3  C   UNL     1       2.800   6.479  17.791  0.00  0.00    +0.000 A 
ATOM      4  C   UNL     1       2.828   5.071  17.902  0.00  0.00    +0.000 A 
ATOM      5  C   UNL     1       1.671   4.309  18.178  0.00  0.00    +0.000 A 
ATOM      6  C   UNL     1       1.725   2.926  18.247  0.00  0.00    +0.000 A 
ATOM      7  C   UNL     1       2.948   2.330  18.050  0.00  0.00    +0.000 A 
ATOM      8  N   UNL     1       4.079   3.016  17.789  0.00  0.00    +0.000 NA
ATOM      9  C   UNL     1       4.046   4.371  17.705  0.00  0.00    +0.000 A 
ATOM     10  C   UNL     1       5.227   5.100  17.405  0.00  0.00    +0.000 A 
ENDROOT
BRANCH  10  11
ATOM     11  O   UNL     1       6.294   4.287  17.080  0.00  0.00    +0.000 OA
ATOM     12  C   UNL     1       6.682   4.117  15.730  0.00  0.00    +0.000 C 
ENDBRANCH  10  11
BRANCH   1  13
ATOM     13  C   UNL     1       6.373   7.400  16.931  0.00  0.00    +0.000 C 
BRANCH  13  15
ATOM     14  C   UNL     1       8.273   8.616  18.041  0.00  0.00    +0.000 C 
ATOM     15  C   UNL     1       7.549   7.286  17.902  0.00  0.00    +0.000 C 
ENDBRANCH  13  15
ENDBRANCH   1  13
BRANCH   3  16
ATOM     16  C   UNL     1       1.521   7.293  17.891  0.00  0.00    +0.000 C 
BRANCH  16  17
ATOM     17  C   UNL     1       1.569   8.562  18.694  0.00  0.00    +0.000 A 
ATOM     18  C   UNL     1       1.561   9.815  18.117  0.00  0.00    +0.000 A 
ATOM     19  N   UNL     1       1.405  10.964  18.804  0.00  0.00    +0.000 NA
ATOM     20  C   UNL     1       1.244  10.842  20.118  0.00  0.00    +0.000 A 
ATOM     21  N   UNL     1       0.976  11.991  20.830  0.00  0.00    +0.000 N 
ATOM     22  N   UNL     1       1.319   9.694  20.793  0.00  0.00    +0.000 NA
ATOM     23  C   UNL     1       1.470   8.572  20.073  0.00  0.00    +0.000 A 
ATOM     24  H   UNL     1       1.326  12.795  20.329  0.00  0.00    +0.000 HD
ATOM     25  H   UNL     1       1.241  11.881  21.797  0.00  0.00    +0.000 HD
BRANCH  23  26
ATOM     26  N   UNL     1       1.557   7.399  20.829  0.00  0.00    +0.000 N 
ATOM     27  H   UNL     1       2.444   6.960  20.591  0.00  0.00    +0.000 HD
ATOM     28  H   UNL     1       1.490   7.569  21.827  0.00  0.00    +0.000 HD
ENDBRANCH  23  26
ENDBRANCH  16  17
ENDBRANCH   3  16
TORSDOF 6
ENDMDL
MODEL 8
REMARK VINA RESULT:      -7.1      3.837      6.205
REMARK  Name = 
REMARK  8 active torsions:
REMARK  status: ('A' for Active; 'I' for Inactive)
REMARK    1  A    between atoms: C_1  and  C_2
REMARK    2  A    between atoms: C_2  and  C_3
REMARK    3  A    between atoms: C_3  and  C_4
REMARK    4  A    between atoms: C_6  and  C_7
REMARK    5  A    between atoms: C_7  and  C_8
REMARK    6  A    between atoms: C_14  and  N_15
REMARK    7  A    between atoms: C_22  and  O_23
REMARK    8  A    between atoms: O_23  and  C_24
REMARK                            x       y       z     vdW  Elec       q    Type
REMARK                         _______ _______ _______ _____ _____    ______ ____
ROOT
ATOM      1  C   UNL     1       6.341   4.080  13.928  0.00  0.00    +0.000 A 
ATOM      2  C   UNL     1       5.514   3.293  14.746  0.00  0.00    +0.000 A 
ATOM      3  C   UNL     1       5.426   3.482  16.134  0.00  0.00    +0.000 A 
ATOM      4  C   UNL     1       6.154   4.534  16.732  0.00  0.00    +0.000 A 
ATOM      5  C   UNL     1       6.104   4.799  18.118  0.00  0.00    +0.000 A 
ATOM      6  C   UNL     1       6.857   5.818  18.680  0.00  0.00    +0.000 A 
ATOM      7  C   UNL     1       7.641   6.565  17.833  0.00  0.00    +0.000 A 
ATOM      8  N   UNL     1       7.718   6.352  16.505  0.00  0.00    +0.000 NA
ATOM      9  C   UNL     1       6.998   5.352  15.936  0.00  0.00    +0.000 A 
ATOM     10  C   UNL     1       7.093   5.104  14.541  0.00  0.00    +0.000 A 
ENDROOT
BRANCH  10  11
ATOM     11  O   UNL     1       8.065   5.863  13.923  0.00  0.00    +0.000 OA
ATOM     12  C   UNL     1       8.238   5.805  12.521  0.00  0.00    +0.000 C 
ENDBRANCH  10  11
BRANCH   1  13
ATOM     13  C   UNL     1       6.411   3.649  12.480  0.00  0.00    +0.000 C 
BRANCH  13  15
ATOM     14  C   UNL     1       4.218   3.334  11.291  0.00  0.00    +0.000 C 
ATOM     15  C   UNL     1       5.301   2.661  12.119  0.00  0.00    +0.000 C 
ENDBRANCH  13  15
ENDBRANCH   1  13
BRANCH   3  16
ATOM     16  C   UNL     1       4.580   2.504  16.930  0.00  0.00    +0.000 C 
BRANCH  16  17
ATOM     17  C   UNL     1       3.601   3.078  17.915  0.00  0.00    +0.000 A 
ATOM     18  C   UNL     1       2.515   3.839  17.535  0.00  0.00    +0.000 A 
ATOM     19  N   UNL     1       1.516   4.201  18.364  0.00  0.00    +0.000 NA
ATOM     20  C   UNL     1       1.614   3.772  19.619  0.00  0.00    +0.000 A 
ATOM     21  N   UNL     1       0.555   4.036  20.461  0.00  0.00    +0.000 N 
ATOM     22  N   UNL     1       2.655   3.103  20.118  0.00  0.00    +0.000 NA
ATOM     23  C   UNL     1       3.626   2.758  19.260  0.00  0.00    +0.000 A 
ATOM     24  H   UNL     1       0.045   4.842  20.128  0.00  0.00    +0.000 HD
ATOM     25  H   UNL     1       0.855   4.027  21.424  0.00  0.00    +0.000 HD
BRANCH  23  26
ATOM     26  N   UNL     1       4.700   2.073  19.836  0.00  0.00    +0.000 N 
ATOM     27  H   UNL     1       5.445   2.753  19.974  0.00  0.00    +0.000 HD
ATOM     28  H   UNL     1       4.453   1.619  20.709  0.00  0.00    +0.000 HD
ENDBRANCH  23  26
ENDBRANCH  16  17
ENDBRANCH   3  16
TORSDOF 6
ENDMDL
MODEL 9
REMARK VINA RESULT:      -7.1      2.953      5.996
REMARK  Name = 
REMARK  8 active torsions:
REMARK  status: ('A' for Active; 'I' for Inactive)
REMARK    1  A    between atoms: C_1  and  C_2
REMARK    2  A    between atoms: C_2  and  C_3
REMARK    3  A    between atoms: C_3  and  C_4
REMARK    4  A    between atoms: C_6  and  C_7
REMARK    5  A    between atoms: C_7  and  C_8
REMARK    6  A    between atoms: C_14  and  N_15
REMARK    7  A    between atoms: C_22  and  O_23
REMARK    8  A    between atoms: O_23  and  C_24
REMARK                            x       y       z     vdW  Elec       q    Type
REMARK                         _______ _______ _______ _____ _____    ______ ____
ROOT
ATOM      1  C   UNL     1       5.905   4.965  16.115  0.00  0.00    +0.000 A 
ATOM      2  C   UNL     1       4.983   3.962  16.457  0.00  0.00    +0.000 A 
ATOM      3  C   UNL     1       3.793   4.234  17.149  0.00  0.00    +0.000 A 
ATOM      4  C   UNL     1       3.476   5.573  17.472  0.00  0.00    +0.000 A 
ATOM      5  C   UNL     1       2.291   5.929  18.150  0.00  0.00    +0.000 A 
ATOM      6  C   UNL     1       2.025   7.248  18.483  0.00  0.00    +0.000 A 
ATOM      7  C   UNL     1       2.954   8.192  18.115  0.00  0.00    +0.000 A 
ATOM      8  N   UNL     1       4.097   7.900  17.464  0.00  0.00    +0.000 NA
ATOM      9  C   UNL     1       4.382   6.613  17.139  0.00  0.00    +0.000 A 
ATOM     10  C   UNL     1       5.597   6.293  16.476  0.00  0.00    +0.000 A 
ENDROOT
BRANCH  10  11
ATOM     11  O   UNL     1       6.448   7.373  16.361  0.00  0.00    +0.000 OA
ATOM     12  C   UNL     1       7.471   7.584  17.314  0.00  0.00    +0.000 C 
ENDBRANCH  10  11
BRANCH   1  13
ATOM     13  C   UNL     1       7.191   4.472  15.491  0.00  0.00    +0.000 C 
BRANCH  13  15
ATOM     14  C   UNL     1       6.360   3.838  13.204  0.00  0.00    +0.000 C 
ATOM     15  C   UNL     1       7.260   4.777  13.994  0.00  0.00    +0.000 C 
ENDBRANCH  13  15
ENDBRANCH   1  13
BRANCH   3  16
ATOM     16  C   UNL     1       2.925   3.056  17.557  0.00  0.00    +0.000 C 
BRANCH  16  17
ATOM     17  C   UNL     1       2.460   3.001  18.984  0.00  0.00    +0.000 A 
ATOM     18  C   UNL     1       1.141   3.173  19.350  0.00  0.00    +0.000 A 
ATOM     19  N   UNL     1       0.661   2.936  20.587  0.00  0.00    +0.000 NA
ATOM     20  C   UNL     1       1.542   2.503  21.482  0.00  0.00    +0.000 A 
ATOM     21  N   UNL     1       1.058   2.150  22.725  0.00  0.00    +0.000 N 
ATOM     22  N   UNL     1       2.853   2.379  21.267  0.00  0.00    +0.000 NA
ATOM     23  C   UNL     1       3.291   2.620  20.022  0.00  0.00    +0.000 A 
ATOM     24  H   UNL     1       0.191   2.635  22.905  0.00  0.00    +0.000 HD
ATOM     25  H   UNL     1       1.787   2.205  23.419  0.00  0.00    +0.000 HD
BRANCH  23  26
ATOM     26  N   UNL     1       4.673   2.492  19.853  0.00  0.00    +0.000 N 
ATOM     27  H   UNL     1       4.841   1.554  19.495  0.00  0.00    +0.000 HD
ATOM     28  H   UNL     1       5.059   3.195  19.233  0.00  0.00    +0.000 HD
ENDBRANCH  23  26
ENDBRANCH  16  17
ENDBRANCH   3  16
TORSDOF 6
ENDMDL
