MODEL 1
REMARK VINA RESULT:      -7.4      0.000      0.000
REMARK  Name = 
REMARK  6 active torsions:
REMARK  status: ('A' for Active; 'I' for Inactive)
REMARK    1  A    between atoms: C_1  and  O_2
REMARK    2  A    between atoms: O_2  and  C_3
REMARK    3  A    between atoms: C_6  and  N_7
REMARK    4  A    between atoms: C_8  and  C_10
REMARK    5  A    between atoms: C_10  and  C_11
REMARK    6  A    between atoms: C_10  and  N_17
REMARK                            x       y       z     vdW  Elec       q    Type
REMARK                         _______ _______ _______ _____ _____    ______ ____
ROOT
ATOM      1  C   UNL     1      -0.493  11.329  18.884  0.00  0.00    +0.000 C 
ENDROOT
BRANCH   1   2
ATOM      2  N   UNL     1      -0.592  12.291  20.022  0.00  0.00    +0.000 NA
ATOM      3  C   UNL     1       0.614  12.161  20.918  0.00  0.00    +0.000 C 
ATOM      4  C   UNL     1       1.942  12.872  20.483  0.00  0.00    +0.000 C 
ATOM      5  N   UNL     1       1.665  14.253  20.061  0.00  0.00    +0.000 N 
ATOM      6  C   UNL     1       2.776  15.058  19.766  0.00  0.00    +0.000 A 
ATOM      7  C   UNL     1       2.598  16.447  19.741  0.00  0.00    +0.000 A 
ATOM      8  C   UNL     1       3.666  17.297  19.455  0.00  0.00    +0.000 A 
ATOM      9  C   UNL     1       4.907  16.745  19.202  0.00  0.00    +0.000 A 
ATOM     10  C   UNL     1       5.018  15.367  19.259  0.00  0.00    +0.000 A 
ATOM     11  N   UNL     1       3.994  14.520  19.540  0.00  0.00    +0.000 NA
ATOM     12  C   UNL     1       0.597  14.344  19.051  0.00  0.00    +0.000 C 
ATOM     13  C   UNL     1      -0.689  13.712  19.622  0.00  0.00    +0.000 C 
ENDBRANCH   1   2
BRANCH   1  14
ATOM     14  C   UNL     1      -1.774  11.010  18.102  0.00  0.00    +0.000 A 
ATOM     15  C   UNL     1      -1.810  10.160  16.984  0.00  0.00    +0.000 A 
ATOM     16  C   UNL     1      -2.995   9.977  16.262  0.00  0.00    +0.000 A 
ATOM     17  C   UNL     1      -4.163  10.639  16.641  0.00  0.00    +0.000 A 
ATOM     18  C   UNL     1      -4.148  11.479  17.750  0.00  0.00    +0.000 A 
ATOM     19  C   UNL     1      -2.966  11.663  18.473  0.00  0.00    +0.000 A 
ENDBRANCH   1  14
BRANCH   1  21
ATOM     20  N   UNL     1       1.331   9.637  18.776  0.00  0.00    +0.000 N 
ATOM     21  C   UNL     1       0.139   9.997  19.395  0.00  0.00    +0.000 C 
ATOM     22  O   UNL     1      -0.413   9.363  20.302  0.00  0.00    +0.000 OA
ATOM     23  H   UNL     1       1.728  10.334  18.153  0.00  0.00    +0.000 HD
BRANCH  20  27
ATOM     24  C   UNL     1       3.291   5.888  19.133  0.00  0.00    +0.000 A 
ATOM     25  C   UNL     1       2.464   6.356  20.152  0.00  0.00    +0.000 A 
ATOM     26  C   UNL     1       1.829   7.595  20.039  0.00  0.00    +0.000 A 
ATOM     27  C   UNL     1       2.003   8.401  18.915  0.00  0.00    +0.000 A 
ATOM     28  C   UNL     1       2.834   7.939  17.887  0.00  0.00    +0.000 A 
ATOM     29  C   UNL     1       3.490   6.702  18.009  0.00  0.00    +0.000 A 
ATOM     30 CL   UNL     1       4.533   6.200  16.721  0.00  0.00    +0.000 Cl
BRANCH  24  32
ATOM     31  C   UNL     1       3.134   3.539  18.903  0.00  0.00    +0.000 C 
ATOM     32  O   UNL     1       3.939   4.680  19.196  0.00  0.00    +0.000 OA
ENDBRANCH  24  32
ENDBRANCH  20  27
ENDBRANCH   1  21
TORSDOF 5
ENDMDL
MODEL 2
REMARK VINA RESULT:      -7.3      1.031      1.608
REMARK  Name = 
REMARK  6 active torsions:
REMARK  status: ('A' for Active; 'I' for Inactive)
REMARK    1  A    between atoms: C_1  and  O_2
REMARK    2  A    between atoms: O_2  and  C_3
REMARK    3  A    between atoms: C_6  and  N_7
REMARK    4  A    between atoms: C_8  and  C_10
REMARK    5  A    between atoms: C_10  and  C_11
REMARK    6  A    between atoms: C_10  and  N_17
REMARK                            x       y       z     vdW  Elec       q    Type
REMARK                         _______ _______ _______ _____ _____    ______ ____
ROOT
ATOM      1  C   UNL     1      -0.416  11.397  18.910  0.00  0.00    +0.000 C 
ENDROOT
BRANCH   1   2
ATOM      2  N   UNL     1      -0.434  12.264  20.127  0.00  0.00    +0.000 NA
ATOM      3  C   UNL     1       0.837  12.075  20.916  0.00  0.00    +0.000 C 
ATOM      4  C   UNL     1       2.125  12.834  20.442  0.00  0.00    +0.000 C 
ATOM      5  N   UNL     1       1.810  14.241  20.156  0.00  0.00    +0.000 N 
ATOM      6  C   UNL     1       2.891  15.080  19.845  0.00  0.00    +0.000 A 
ATOM      7  C   UNL     1       2.705  16.465  19.946  0.00  0.00    +0.000 A 
ATOM      8  C   UNL     1       3.744  17.346  19.651  0.00  0.00    +0.000 A 
ATOM      9  C   UNL     1       4.965  16.830  19.262  0.00  0.00    +0.000 A 
ATOM     10  C   UNL     1       5.087  15.454  19.199  0.00  0.00    +0.000 A 
ATOM     11  N   UNL     1       4.092  14.575  19.487  0.00  0.00    +0.000 NA
ATOM     12  C   UNL     1       0.668  14.401  19.239  0.00  0.00    +0.000 C 
ATOM     13  C   UNL     1      -0.567  13.712  19.852  0.00  0.00    +0.000 C 
ENDBRANCH   1   2
BRANCH   1  14
ATOM     14  C   UNL     1      -1.741  11.176  18.169  0.00  0.00    +0.000 A 
ATOM     15  C   UNL     1      -2.962  11.734  18.580  0.00  0.00    +0.000 A 
ATOM     16  C   UNL     1      -4.152  11.424  17.909  0.00  0.00    +0.000 A 
ATOM     17  C   UNL     1      -4.143  10.554  16.820  0.00  0.00    +0.000 A 
ATOM     18  C   UNL     1      -2.941   9.997  16.395  0.00  0.00    +0.000 A 
ATOM     19  C   UNL     1      -1.752  10.305  17.062  0.00  0.00    +0.000 A 
ENDBRANCH   1  14
BRANCH   1  21
ATOM     20  N   UNL     1       1.398   9.714  18.635  0.00  0.00    +0.000 N 
ATOM     21  C   UNL     1       0.202  10.013  19.279  0.00  0.00    +0.000 C 
ATOM     22  O   UNL     1      -0.363   9.288  20.106  0.00  0.00    +0.000 OA
ATOM     23  H   UNL     1       1.806  10.472  18.095  0.00  0.00    +0.000 HD
BRANCH  20  27
ATOM     24  C   UNL     1       3.444   5.995  18.732  0.00  0.00    +0.000 A 
ATOM     25  C   UNL     1       3.667   6.900  17.697  0.00  0.00    +0.000 A 
ATOM     26  C   UNL     1       2.985   8.118  17.659  0.00  0.00    +0.000 A 
ATOM     27  C   UNL     1       2.061   8.465  18.644  0.00  0.00    +0.000 A 
ATOM     28  C   UNL     1       1.829   7.560  19.687  0.00  0.00    +0.000 A 
ATOM     29  C   UNL     1       2.500   6.326  19.716  0.00  0.00    +0.000 A 
ATOM     30 CL   UNL     1       2.145   5.233  21.010  0.00  0.00    +0.000 Cl
BRANCH  24  32
ATOM     31  C   UNL     1       5.470   4.850  19.155  0.00  0.00    +0.000 C 
ATOM     32  O   UNL     1       4.086   4.785  18.815  0.00  0.00    +0.000 OA
ENDBRANCH  24  32
ENDBRANCH  20  27
ENDBRANCH   1  21
TORSDOF 5
ENDMDL
MODEL 3
REMARK VINA RESULT:      -7.3      1.291      1.405
REMARK  Name = 
REMARK  6 active torsions:
REMARK  status: ('A' for Active; 'I' for Inactive)
REMARK    1  A    between atoms: C_1  and  O_2
REMARK    2  A    between atoms: O_2  and  C_3
REMARK    3  A    between atoms: C_6  and  N_7
REMARK    4  A    between atoms: C_8  and  C_10
REMARK    5  A    between atoms: C_10  and  C_11
REMARK    6  A    between atoms: C_10  and  N_17
REMARK                            x       y       z     vdW  Elec       q    Type
REMARK                         _______ _______ _______ _____ _____    ______ ____
ROOT
ATOM      1  C   UNL     1      -0.079  10.887  19.200  0.00  0.00    +0.000 C 
ENDROOT
BRANCH   1   2
ATOM      2  N   UNL     1      -0.084  11.926  20.275  0.00  0.00    +0.000 NA
ATOM      3  C   UNL     1       1.325  12.373  20.570  0.00  0.00    +0.000 C 
ATOM      4  C   UNL     1       1.986  13.424  19.613  0.00  0.00    +0.000 C 
ATOM      5  N   UNL     1       1.056  14.532  19.353  0.00  0.00    +0.000 N 
ATOM      6  C   UNL     1       1.555  15.617  18.615  0.00  0.00    +0.000 A 
ATOM      7  C   UNL     1       0.860  16.832  18.672  0.00  0.00    +0.000 A 
ATOM      8  C   UNL     1       1.310  17.943  17.961  0.00  0.00    +0.000 A 
ATOM      9  C   UNL     1       2.458  17.828  17.202  0.00  0.00    +0.000 A 
ATOM     10  C   UNL     1       3.106  16.605  17.202  0.00  0.00    +0.000 A 
ATOM     11  N   UNL     1       2.690  15.511  17.891  0.00  0.00    +0.000 NA
ATOM     12  C   UNL     1      -0.268  14.078  18.895  0.00  0.00    +0.000 C 
ATOM     13  C   UNL     1      -0.872  13.137  19.957  0.00  0.00    +0.000 C 
ENDBRANCH   1   2
BRANCH   1  14
ATOM     14  C   UNL     1      -1.381  10.651  18.425  0.00  0.00    +0.000 A 
ATOM     15  C   UNL     1      -1.450   9.916  17.230  0.00  0.00    +0.000 A 
ATOM     16  C   UNL     1      -2.656   9.808  16.526  0.00  0.00    +0.000 A 
ATOM     17  C   UNL     1      -3.810  10.430  17.001  0.00  0.00    +0.000 A 
ATOM     18  C   UNL     1      -3.761  11.156  18.187  0.00  0.00    +0.000 A 
ATOM     19  C   UNL     1      -2.560  11.265  18.892  0.00  0.00    +0.000 A 
ENDBRANCH   1  14
BRANCH   1  21
ATOM     20  N   UNL     1       1.480   8.946  19.130  0.00  0.00    +0.000 N 
ATOM     21  C   UNL     1       0.413   9.534  19.801  0.00  0.00    +0.000 C 
ATOM     22  O   UNL     1      -0.130   9.078  20.814  0.00  0.00    +0.000 OA
ATOM     23  H   UNL     1       1.906   9.515  18.404  0.00  0.00    +0.000 HD
BRANCH  20  27
ATOM     24  C   UNL     1       2.943   5.006  19.728  0.00  0.00    +0.000 A 
ATOM     25  C   UNL     1       2.186   5.638  20.712  0.00  0.00    +0.000 A 
ATOM     26  C   UNL     1       1.715   6.939  20.519  0.00  0.00    +0.000 A 
ATOM     27  C   UNL     1       1.989   7.646  19.349  0.00  0.00    +0.000 A 
ATOM     28  C   UNL     1       2.752   7.019  18.357  0.00  0.00    +0.000 A 
ATOM     29  C   UNL     1       3.243   5.717  18.557  0.00  0.00    +0.000 A 
ATOM     30 CL   UNL     1       4.211   5.008  17.310  0.00  0.00    +0.000 Cl
BRANCH  24  32
ATOM     31  C   UNL     1       2.502   2.687  19.585  0.00  0.00    +0.000 C 
ATOM     32  O   UNL     1       3.431   3.731  19.869  0.00  0.00    +0.000 OA
ENDBRANCH  24  32
ENDBRANCH  20  27
ENDBRANCH   1  21
TORSDOF 5
ENDMDL
MODEL 4
REMARK VINA RESULT:      -7.2      2.287      5.990
REMARK  Name = 
REMARK  6 active torsions:
REMARK  status: ('A' for Active; 'I' for Inactive)
REMARK    1  A    between atoms: C_1  and  O_2
REMARK    2  A    between atoms: O_2  and  C_3
REMARK    3  A    between atoms: C_6  and  N_7
REMARK    4  A    between atoms: C_8  and  C_10
REMARK    5  A    between atoms: C_10  and  C_11
REMARK    6  A    between atoms: C_10  and  N_17
REMARK                            x       y       z     vdW  Elec       q    Type
REMARK                         _______ _______ _______ _____ _____    ______ ____
ROOT
ATOM      1  C   UNL     1      -0.140  10.592  19.770  0.00  0.00    +0.000 C 
ENDROOT
BRANCH   1   2
ATOM      2  N   UNL     1      -0.447  10.719  18.313  0.00  0.00    +0.000 NA
ATOM      3  C   UNL     1      -1.384   9.618  17.882  0.00  0.00    +0.000 C 
ATOM      4  C   UNL     1      -2.914   9.788  18.179  0.00  0.00    +0.000 C 
ATOM      5  N   UNL     1      -3.361  11.133  17.788  0.00  0.00    +0.000 N 
ATOM      6  C   UNL     1      -4.738  11.391  17.874  0.00  0.00    +0.000 A 
ATOM      7  C   UNL     1      -5.253  12.485  17.168  0.00  0.00    +0.000 A 
ATOM      8  C   UNL     1      -6.612  12.788  17.214  0.00  0.00    +0.000 A 
ATOM      9  C   UNL     1      -7.448  11.985  17.966  0.00  0.00    +0.000 A 
ATOM     10  C   UNL     1      -6.879  10.910  18.626  0.00  0.00    +0.000 A 
ATOM     11  N   UNL     1      -5.559  10.593  18.592  0.00  0.00    +0.000 NA
ATOM     12  C   UNL     1      -2.533  12.206  18.365  0.00  0.00    +0.000 C 
ATOM     13  C   UNL     1      -1.070  12.003  17.923  0.00  0.00    +0.000 C 
ENDBRANCH   1   2
BRANCH   1  14
ATOM     14  C   UNL     1       0.308  11.852  20.521  0.00  0.00    +0.000 A 
ATOM     15  C   UNL     1      -0.474  12.493  21.496  0.00  0.00    +0.000 A 
ATOM     16  C   UNL     1      -0.044  13.690  22.083  0.00  0.00    +0.000 A 
ATOM     17  C   UNL     1       1.169  14.265  21.709  0.00  0.00    +0.000 A 
ATOM     18  C   UNL     1       1.959  13.640  20.750  0.00  0.00    +0.000 A 
ATOM     19  C   UNL     1       1.534  12.446  20.162  0.00  0.00    +0.000 A 
ENDBRANCH   1  14
BRANCH   1  21
ATOM     20  N   UNL     1       1.519   9.006  18.801  0.00  0.00    +0.000 N 
ATOM     21  C   UNL     1       0.925   9.470  19.971  0.00  0.00    +0.000 C 
ATOM     22  O   UNL     1       1.197   9.077  21.112  0.00  0.00    +0.000 OA
ATOM     23  H   UNL     1       1.292   9.529  17.960  0.00  0.00    +0.000 HD
BRANCH  20  27
ATOM     24  C   UNL     1       4.005   5.591  18.383  0.00  0.00    +0.000 A 
ATOM     25  C   UNL     1       3.136   5.706  19.465  0.00  0.00    +0.000 A 
ATOM     26  C   UNL     1       2.326   6.836  19.609  0.00  0.00    +0.000 A 
ATOM     27  C   UNL     1       2.364   7.880  18.685  0.00  0.00    +0.000 A 
ATOM     28  C   UNL     1       3.237   7.772  17.596  0.00  0.00    +0.000 A 
ATOM     29  C   UNL     1       4.066   6.645  17.461  0.00  0.00    +0.000 A 
ATOM     30 CL   UNL     1       5.151   6.585  16.113  0.00  0.00    +0.000 Cl
BRANCH  24  32
ATOM     31  C   UNL     1       4.165   3.313  17.767  0.00  0.00    +0.000 C 
ATOM     32  O   UNL     1       4.821   4.504  18.197  0.00  0.00    +0.000 OA
ENDBRANCH  24  32
ENDBRANCH  20  27
ENDBRANCH   1  21
TORSDOF 5
ENDMDL
MODEL 5
REMARK VINA RESULT:      -7.2      1.784      2.272
REMARK  Name = 
REMARK  6 active torsions:
REMARK  status: ('A' for Active; 'I' for Inactive)
REMARK    1  A    between atoms: C_1  and  O_2
REMARK    2  A    between atoms: O_2  and  C_3
REMARK    3  A    between atoms: C_6  and  N_7
REMARK    4  A    between atoms: C_8  and  C_10
REMARK    5  A    between atoms: C_10  and  C_11
REMARK    6  A    between atoms: C_10  and  N_17
REMARK                            x       y       z     vdW  Elec       q    Type
REMARK                         _______ _______ _______ _____ _____    ______ ____
ROOT
ATOM      1  C   UNL     1      -0.061  11.107  19.023  0.00  0.00    +0.000 C 
ENDROOT
BRANCH   1   2
ATOM      2  N   UNL     1      -0.204  11.966  20.237  0.00  0.00    +0.000 NA
ATOM      3  C   UNL     1       1.102  12.657  20.541  0.00  0.00    +0.000 C 
ATOM      4  C   UNL     1       1.468  13.942  19.722  0.00  0.00    +0.000 C 
ATOM      5  N   UNL     1       0.316  14.854  19.664  0.00  0.00    +0.000 N 
ATOM      6  C   UNL     1       0.533  16.109  19.073  0.00  0.00    +0.000 A 
ATOM      7  C   UNL     1      -0.389  17.131  19.333  0.00  0.00    +0.000 A 
ATOM      8  C   UNL     1      -0.224  18.398  18.775  0.00  0.00    +0.000 A 
ATOM      9  C   UNL     1       0.869  18.631  17.964  0.00  0.00    +0.000 A 
ATOM     10  C   UNL     1       1.750  17.584  17.761  0.00  0.00    +0.000 A 
ATOM     11  N   UNL     1       1.614  16.343  18.297  0.00  0.00    +0.000 NA
ATOM     12  C   UNL     1      -0.916  14.197  19.195  0.00  0.00    +0.000 C 
ATOM     13  C   UNL     1      -1.241  13.016  20.131  0.00  0.00    +0.000 C 
ENDBRANCH   1   2
BRANCH   1  14
ATOM     14  C   UNL     1      -1.327  10.785  18.219  0.00  0.00    +0.000 A 
ATOM     15  C   UNL     1      -2.257   9.803  18.597  0.00  0.00    +0.000 A 
ATOM     16  C   UNL     1      -3.349   9.498  17.775  0.00  0.00    +0.000 A 
ATOM     17  C   UNL     1      -3.531  10.167  16.565  0.00  0.00    +0.000 A 
ATOM     18  C   UNL     1      -2.624  11.148  16.178  0.00  0.00    +0.000 A 
ATOM     19  C   UNL     1      -1.533  11.454  16.997  0.00  0.00    +0.000 A 
ENDBRANCH   1  14
BRANCH   1  21
ATOM     20  N   UNL     1       1.622   9.338  18.534  0.00  0.00    +0.000 N 
ATOM     21  C   UNL     1       0.645   9.774  19.422  0.00  0.00    +0.000 C 
ATOM     22  O   UNL     1       0.331   9.204  20.474  0.00  0.00    +0.000 OA
ATOM     23  H   UNL     1       1.862   9.990  17.793  0.00  0.00    +0.000 HD
BRANCH  20  27
ATOM     24  C   UNL     1       3.628   5.599  18.677  0.00  0.00    +0.000 A 
ATOM     25  C   UNL     1       3.865   6.491  17.633  0.00  0.00    +0.000 A 
ATOM     26  C   UNL     1       3.196   7.716  17.580  0.00  0.00    +0.000 A 
ATOM     27  C   UNL     1       2.272   8.083  18.559  0.00  0.00    +0.000 A 
ATOM     28  C   UNL     1       2.027   7.191  19.609  0.00  0.00    +0.000 A 
ATOM     29  C   UNL     1       2.685   5.949  19.653  0.00  0.00    +0.000 A 
ATOM     30 CL   UNL     1       2.314   4.874  20.958  0.00  0.00    +0.000 Cl
BRANCH  24  32
ATOM     31  C   UNL     1       3.814   3.390  17.852  0.00  0.00    +0.000 C 
ATOM     32  O   UNL     1       4.258   4.384  18.774  0.00  0.00    +0.000 OA
ENDBRANCH  24  32
ENDBRANCH  20  27
ENDBRANCH   1  21
TORSDOF 5
ENDMDL
MODEL 6
REMARK VINA RESULT:      -7.2      3.132      4.832
REMARK  Name = 
REMARK  6 active torsions:
REMARK  status: ('A' for Active; 'I' for Inactive)
REMARK    1  A    between atoms: C_1  and  O_2
REMARK    2  A    between atoms: O_2  and  C_3
REMARK    3  A    between atoms: C_6  and  N_7
REMARK    4  A    between atoms: C_8  and  C_10
REMARK    5  A    between atoms: C_10  and  C_11
REMARK    6  A    between atoms: C_10  and  N_17
REMARK                            x       y       z     vdW  Elec       q    Type
REMARK                         _______ _______ _______ _____ _____    ______ ____
ROOT
ATOM      1  C   UNL     1       0.192  11.779  20.661  0.00  0.00    +0.000 C 
ENDROOT
BRANCH   1   2
ATOM      2  N   UNL     1      -1.223  12.259  20.684  0.00  0.00    +0.000 NA
ATOM      3  C   UNL     1      -1.847  11.967  22.026  0.00  0.00    +0.000 C 
ATOM      4  C   UNL     1      -1.537  12.940  23.215  0.00  0.00    +0.000 C 
ATOM      5  N   UNL     1      -1.690  14.337  22.783  0.00  0.00    +0.000 N 
ATOM      6  C   UNL     1      -1.572  15.323  23.776  0.00  0.00    +0.000 A 
ATOM      7  C   UNL     1      -2.081  16.599  23.505  0.00  0.00    +0.000 A 
ATOM      8  C   UNL     1      -1.993  17.617  24.453  0.00  0.00    +0.000 A 
ATOM      9  C   UNL     1      -1.400  17.343  25.671  0.00  0.00    +0.000 A 
ATOM     10  C   UNL     1      -0.934  16.058  25.881  0.00  0.00    +0.000 A 
ATOM     11  N   UNL     1      -1.012  15.049  24.974  0.00  0.00    +0.000 NA
ATOM     12  C   UNL     1      -0.928  14.649  21.562  0.00  0.00    +0.000 C 
ATOM     13  C   UNL     1      -1.387  13.707  20.430  0.00  0.00    +0.000 C 
ENDBRANCH   1   2
BRANCH   1  14
ATOM     14  C   UNL     1       1.237  12.661  19.965  0.00  0.00    +0.000 A 
ATOM     15  C   UNL     1       1.360  12.764  18.569  0.00  0.00    +0.000 A 
ATOM     16  C   UNL     1       2.390  13.520  17.996  0.00  0.00    +0.000 A 
ATOM     17  C   UNL     1       3.312  14.184  18.804  0.00  0.00    +0.000 A 
ATOM     18  C   UNL     1       3.202  14.099  20.188  0.00  0.00    +0.000 A 
ATOM     19  C   UNL     1       2.175  13.345  20.763  0.00  0.00    +0.000 A 
ENDBRANCH   1  14
BRANCH   1  21
ATOM     20  N   UNL     1       1.336   9.581  20.406  0.00  0.00    +0.000 N 
ATOM     21  C   UNL     1       0.235  10.348  20.040  0.00  0.00    +0.000 C 
ATOM     22  O   UNL     1      -0.683   9.971  19.302  0.00  0.00    +0.000 OA
ATOM     23  H   UNL     1       1.925   9.980  21.131  0.00  0.00    +0.000 HD
BRANCH  20  27
ATOM     24  C   UNL     1       2.539   5.852  18.771  0.00  0.00    +0.000 A 
ATOM     25  C   UNL     1       2.565   7.008  17.995  0.00  0.00    +0.000 A 
ATOM     26  C   UNL     1       2.158   8.233  18.529  0.00  0.00    +0.000 A 
ATOM     27  C   UNL     1       1.710   8.338  19.846  0.00  0.00    +0.000 A 
ATOM     28  C   UNL     1       1.679   7.181  20.632  0.00  0.00    +0.000 A 
ATOM     29  C   UNL     1       2.069   5.945  20.089  0.00  0.00    +0.000 A 
ATOM     30 CL   UNL     1       1.975   4.542  21.100  0.00  0.00    +0.000 Cl
BRANCH  24  32
ATOM     31  C   UNL     1       3.970   4.650  17.322  0.00  0.00    +0.000 C 
ATOM     32  O   UNL     1       2.927   4.626  18.294  0.00  0.00    +0.000 OA
ENDBRANCH  24  32
ENDBRANCH  20  27
ENDBRANCH   1  21
TORSDOF 5
ENDMDL
MODEL 7
REMARK VINA RESULT:      -7.1      4.692      8.188
REMARK  Name = 
REMARK  6 active torsions:
REMARK  status: ('A' for Active; 'I' for Inactive)
REMARK    1  A    between atoms: C_1  and  O_2
REMARK    2  A    between atoms: O_2  and  C_3
REMARK    3  A    between atoms: C_6  and  N_7
REMARK    4  A    between atoms: C_8  and  C_10
REMARK    5  A    between atoms: C_10  and  C_11
REMARK    6  A    between atoms: C_10  and  N_17
REMARK                            x       y       z     vdW  Elec       q    Type
REMARK                         _______ _______ _______ _____ _____    ______ ____
ROOT
ATOM      1  C   UNL     1      -0.596  13.129  21.115  0.00  0.00    +0.000 C 
ENDROOT
BRANCH   1   2
ATOM      2  N   UNL     1      -0.843  12.724  22.532  0.00  0.00    +0.000 NA
ATOM      3  C   UNL     1      -1.136  13.940  23.375  0.00  0.00    +0.000 C 
ATOM      4  C   UNL     1      -2.585  14.538  23.335  0.00  0.00    +0.000 C 
ATOM      5  N   UNL     1      -3.582  13.466  23.474  0.00  0.00    +0.000 N 
ATOM      6  C   UNL     1      -4.924  13.861  23.587  0.00  0.00    +0.000 A 
ATOM      7  C   UNL     1      -5.845  12.939  24.100  0.00  0.00    +0.000 A 
ATOM      8  C   UNL     1      -7.190  13.277  24.236  0.00  0.00    +0.000 A 
ATOM      9  C   UNL     1      -7.600  14.542  23.861  0.00  0.00    +0.000 A 
ATOM     10  C   UNL     1      -6.638  15.410  23.378  0.00  0.00    +0.000 A 
ATOM     11  N   UNL     1      -5.321  15.106  23.242  0.00  0.00    +0.000 NA
ATOM     12  C   UNL     1      -3.380  12.363  22.519  0.00  0.00    +0.000 C 
ATOM     13  C   UNL     1      -1.966  11.780  22.718  0.00  0.00    +0.000 C 
ENDBRANCH   1   2
BRANCH   1  14
ATOM     14  C   UNL     1      -0.804  12.073  20.021  0.00  0.00    +0.000 A 
ATOM     15  C   UNL     1       0.030  10.955  19.854  0.00  0.00    +0.000 A 
ATOM     16  C   UNL     1      -0.163  10.073  18.784  0.00  0.00    +0.000 A 
ATOM     17  C   UNL     1      -1.188  10.292  17.864  0.00  0.00    +0.000 A 
ATOM     18  C   UNL     1      -2.028  11.390  18.018  0.00  0.00    +0.000 A 
ATOM     19  C   UNL     1      -1.838  12.272  19.086  0.00  0.00    +0.000 A 
ENDBRANCH   1  14
BRANCH   1  21
ATOM     20  N   UNL     1       0.947  14.873  20.232  0.00  0.00    +0.000 N 
ATOM     21  C   UNL     1       0.845  13.714  20.994  0.00  0.00    +0.000 C 
ATOM     22  O   UNL     1       1.785  13.157  21.575  0.00  0.00    +0.000 OA
ATOM     23  H   UNL     1       0.065  15.284  19.942  0.00  0.00    +0.000 HD
BRANCH  20  27
ATOM     24  C   UNL     1       4.500  16.810  18.950  0.00  0.00    +0.000 A 
ATOM     25  C   UNL     1       3.927  15.800  18.181  0.00  0.00    +0.000 A 
ATOM     26  C   UNL     1       2.765  15.155  18.610  0.00  0.00    +0.000 A 
ATOM     27  C   UNL     1       2.146  15.493  19.813  0.00  0.00    +0.000 A 
ATOM     28  C   UNL     1       2.718  16.506  20.592  0.00  0.00    +0.000 A 
ATOM     29  C   UNL     1       3.898  17.142  20.172  0.00  0.00    +0.000 A 
ATOM     30 CL   UNL     1       4.578  18.362  21.195  0.00  0.00    +0.000 Cl
BRANCH  24  32
ATOM     31  C   UNL     1       6.859  16.758  18.777  0.00  0.00    +0.000 C 
ATOM     32  O   UNL     1       5.642  17.474  18.575  0.00  0.00    +0.000 OA
ENDBRANCH  24  32
ENDBRANCH  20  27
ENDBRANCH   1  21
TORSDOF 5
ENDMDL
MODEL 8
REMARK VINA RESULT:      -7.1      4.417      8.128
REMARK  Name = 
REMARK  6 active torsions:
REMARK  status: ('A' for Active; 'I' for Inactive)
REMARK    1  A    between atoms: C_1  and  O_2
REMARK    2  A    between atoms: O_2  and  C_3
REMARK    3  A    between atoms: C_6  and  N_7
REMARK    4  A    between atoms: C_8  and  C_10
REMARK    5  A    between atoms: C_10  and  C_11
REMARK    6  A    between atoms: C_10  and  N_17
REMARK                            x       y       z     vdW  Elec       q    Type
REMARK                         _______ _______ _______ _____ _____    ______ ____
ROOT
ATOM      1  C   UNL     1      -0.617  13.201  21.308  0.00  0.00    +0.000 C 
ENDROOT
BRANCH   1   2
ATOM      2  N   UNL     1      -0.903  12.821  22.724  0.00  0.00    +0.000 NA
ATOM      3  C   UNL     1      -1.251  14.046  23.531  0.00  0.00    +0.000 C 
ATOM      4  C   UNL     1      -2.710  14.611  23.429  0.00  0.00    +0.000 C 
ATOM      5  N   UNL     1      -3.688  13.520  23.557  0.00  0.00    +0.000 N 
ATOM      6  C   UNL     1      -5.041  13.888  23.616  0.00  0.00    +0.000 A 
ATOM      7  C   UNL     1      -5.960  12.957  24.116  0.00  0.00    +0.000 A 
ATOM      8  C   UNL     1      -7.316  13.268  24.200  0.00  0.00    +0.000 A 
ATOM      9  C   UNL     1      -7.740  14.515  23.784  0.00  0.00    +0.000 A 
ATOM     10  C   UNL     1      -6.780  15.394  23.316  0.00  0.00    +0.000 A 
ATOM     11  N   UNL     1      -5.453  15.116  23.231  0.00  0.00    +0.000 NA
ATOM     12  C   UNL     1      -3.430  12.403  22.633  0.00  0.00    +0.000 C 
ATOM     13  C   UNL     1      -2.012  11.856  22.892  0.00  0.00    +0.000 C 
ENDBRANCH   1   2
BRANCH   1  14
ATOM     14  C   UNL     1      -0.598  12.085  20.256  0.00  0.00    +0.000 A 
ATOM     15  C   UNL     1       0.398  11.097  20.191  0.00  0.00    +0.000 A 
ATOM     16  C   UNL     1       0.405  10.156  19.154  0.00  0.00    +0.000 A 
ATOM     17  C   UNL     1      -0.579  10.186  18.166  0.00  0.00    +0.000 A 
ATOM     18  C   UNL     1      -1.577  11.153  18.219  0.00  0.00    +0.000 A 
ATOM     19  C   UNL     1      -1.587  12.094  19.253  0.00  0.00    +0.000 A 
ENDBRANCH   1  14
BRANCH   1  21
ATOM     20  N   UNL     1       0.854  14.873  20.192  0.00  0.00    +0.000 N 
ATOM     21  C   UNL     1       0.734  13.981  21.252  0.00  0.00    +0.000 C 
ATOM     22  O   UNL     1       1.588  13.793  22.126  0.00  0.00    +0.000 OA
ATOM     23  H   UNL     1       0.011  15.017  19.645  0.00  0.00    +0.000 HD
BRANCH  20  27
ATOM     24  C   UNL     1       4.433  16.876  19.096  0.00  0.00    +0.000 A 
ATOM     25  C   UNL     1       3.451  17.533  19.834  0.00  0.00    +0.000 A 
ATOM     26  C   UNL     1       2.268  16.877  20.185  0.00  0.00    +0.000 A 
ATOM     27  C   UNL     1       2.030  15.556  19.806  0.00  0.00    +0.000 A 
ATOM     28  C   UNL     1       3.011  14.890  19.062  0.00  0.00    +0.000 A 
ATOM     29  C   UNL     1       4.193  15.555  18.692  0.00  0.00    +0.000 A 
ATOM     30 CL   UNL     1       5.353  14.691  17.741  0.00  0.00    +0.000 Cl
BRANCH  24  32
ATOM     31  C   UNL     1       6.637  17.469  19.715  0.00  0.00    +0.000 C 
ATOM     32  O   UNL     1       5.610  17.476  18.725  0.00  0.00    +0.000 OA
ENDBRANCH  24  32
ENDBRANCH  20  27
ENDBRANCH   1  21
TORSDOF 5
ENDMDL
MODEL 9
REMARK VINA RESULT:      -7.1      2.437      6.134
REMARK  Name = 
REMARK  6 active torsions:
REMARK  status: ('A' for Active; 'I' for Inactive)
REMARK    1  A    between atoms: C_1  and  O_2
REMARK    2  A    between atoms: O_2  and  C_3
REMARK    3  A    between atoms: C_6  and  N_7
REMARK    4  A    between atoms: C_8  and  C_10
REMARK    5  A    between atoms: C_10  and  C_11
REMARK    6  A    between atoms: C_10  and  N_17
REMARK                            x       y       z     vdW  Elec       q    Type
REMARK                         _______ _______ _______ _____ _____    ______ ____
ROOT
ATOM      1  C   UNL     1      -0.176  10.602  19.716  0.00  0.00    +0.000 C 
ENDROOT
BRANCH   1   2
ATOM      2  N   UNL     1      -0.499  10.751  18.265  0.00  0.00    +0.000 NA
ATOM      3  C   UNL     1      -1.439   9.656  17.828  0.00  0.00    +0.000 C 
ATOM      4  C   UNL     1      -2.966   9.819  18.144  0.00  0.00    +0.000 C 
ATOM      5  N   UNL     1      -3.420  11.169  17.779  0.00  0.00    +0.000 N 
ATOM      6  C   UNL     1      -4.796  11.423  17.885  0.00  0.00    +0.000 A 
ATOM      7  C   UNL     1      -5.320  12.527  17.200  0.00  0.00    +0.000 A 
ATOM      8  C   UNL     1      -6.679  12.827  17.267  0.00  0.00    +0.000 A 
ATOM      9  C   UNL     1      -7.505  12.012  18.016  0.00  0.00    +0.000 A 
ATOM     10  C   UNL     1      -6.928  10.928  18.653  0.00  0.00    +0.000 A 
ATOM     11  N   UNL     1      -5.608  10.613  18.599  0.00  0.00    +0.000 NA
ATOM     12  C   UNL     1      -2.587  12.234  18.363  0.00  0.00    +0.000 C 
ATOM     13  C   UNL     1      -1.128  12.040  17.902  0.00  0.00    +0.000 C 
ENDBRANCH   1   2
BRANCH   1  14
ATOM     14  C   UNL     1       0.290  11.850  20.478  0.00  0.00    +0.000 A 
ATOM     15  C   UNL     1      -0.483  12.495  21.457  0.00  0.00    +0.000 A 
ATOM     16  C   UNL     1      -0.036  13.679  22.055  0.00  0.00    +0.000 A 
ATOM     17  C   UNL     1       1.187  14.239  21.688  0.00  0.00    +0.000 A 
ATOM     18  C   UNL     1       1.969  13.609  20.725  0.00  0.00    +0.000 A 
ATOM     19  C   UNL     1       1.526  12.427  20.126  0.00  0.00    +0.000 A 
ENDBRANCH   1  14
BRANCH   1  21
ATOM     20  N   UNL     1       1.507   9.064  18.715  0.00  0.00    +0.000 N 
ATOM     21  C   UNL     1       0.883   9.470  19.889  0.00  0.00    +0.000 C 
ATOM     22  O   UNL     1       1.124   9.021  21.016  0.00  0.00    +0.000 OA
ATOM     23  H   UNL     1       1.303   9.628  17.895  0.00  0.00    +0.000 HD
BRANCH  20  27
ATOM     24  C   UNL     1       4.105   5.728  18.337  0.00  0.00    +0.000 A 
ATOM     25  C   UNL     1       4.174   6.786  17.434  0.00  0.00    +0.000 A 
ATOM     26  C   UNL     1       3.311   7.878  17.551  0.00  0.00    +0.000 A 
ATOM     27  C   UNL     1       2.355   7.943  18.565  0.00  0.00    +0.000 A 
ATOM     28  C   UNL     1       2.278   6.883  19.475  0.00  0.00    +0.000 A 
ATOM     29  C   UNL     1       3.132   5.774  19.346  0.00  0.00    +0.000 A 
ATOM     30 CL   UNL     1       2.964   4.477  20.480  0.00  0.00    +0.000 Cl
BRANCH  24  32
ATOM     31  C   UNL     1       6.250   4.827  18.761  0.00  0.00    +0.000 C 
ATOM     32  O   UNL     1       4.927   4.632  18.264  0.00  0.00    +0.000 OA
ENDBRANCH  24  32
ENDBRANCH  20  27
ENDBRANCH   1  21
TORSDOF 5
ENDMDL
