MODEL 1
REMARK VINA RESULT:      -8.8      0.000      0.000
REMARK  Name = 
REMARK  5 active torsions:
REMARK  status: ('A' for Active; 'I' for Inactive)
REMARK    1  A    between atoms: C_1  and  C_2
REMARK    2  A    between atoms: C_5  and  N_6
REMARK    3  A    between atoms: C_7  and  C_9
REMARK    4  A    between atoms: C_19  and  C_20
REMARK    5  A    between atoms: N_22  and  C_23
REMARK                            x       y       z     vdW  Elec       q    Type
REMARK                         _______ _______ _______ _____ _____    ______ ____
ROOT
ATOM      1  C   UNL     1      -1.581  11.396  23.471  0.00  0.00    +0.000 C 
ATOM      2  C   UNL     1      -0.714  10.644  22.507  0.00  0.00    +0.000 A 
ATOM      3  C   UNL     1       0.300   9.812  22.968  0.00  0.00    +0.000 A 
ATOM      4  C   UNL     1       1.104   9.109  22.067  0.00  0.00    +0.000 A 
ATOM      5  C   UNL     1       0.904   9.167  20.677  0.00  0.00    +0.000 A 
ATOM      6  C   UNL     1      -0.120  10.016  20.213  0.00  0.00    +0.000 A 
ATOM      7  C   UNL     1      -0.901  10.761  21.125  0.00  0.00    +0.000 A 
ENDROOT
BRANCH   5   8
ATOM      8  N   UNL     1       1.728   8.409  19.783  0.00  0.00    +0.000 N 
ATOM      9  C   UNL     1       2.007   7.052  19.947  0.00  0.00    +0.000 C 
ATOM     10  O   UNL     1       1.460   6.395  20.831  0.00  0.00    +0.000 OA
ATOM     11  H   UNL     1       2.059   8.868  18.938  0.00  0.00    +0.000 HD
BRANCH   9  12
ATOM     12  C   UNL     1       2.895   6.398  18.993  0.00  0.00    +0.000 A 
ATOM     13  S   UNL     1       3.342   7.367  17.644  0.00  0.00    +0.000 S 
ATOM     14  C   UNL     1       4.416   6.203  17.025  0.00  0.00    +0.000 A 
ATOM     15  C   UNL     1       5.236   6.365  15.893  0.00  0.00    +0.000 A 
ATOM     16  C   UNL     1       6.077   5.321  15.516  0.00  0.00    +0.000 A 
ATOM     17  C   UNL     1       6.087   4.140  16.241  0.00  0.00    +0.000 A 
ATOM     18  C   UNL     1       5.258   3.982  17.360  0.00  0.00    +0.000 A 
ATOM     19  C   UNL     1       4.400   5.034  17.786  0.00  0.00    +0.000 A 
ATOM     20  C   UNL     1       3.484   5.152  18.908  0.00  0.00    +0.000 A 
ATOM     21 CL   UNL     1       3.240   3.853  20.008  0.00  0.00    +0.000 Cl
ENDBRANCH   9  12
ENDBRANCH   5   8
BRANCH   6  22
ATOM     22  C   UNL     1      -0.526  10.130  18.787  0.00  0.00    +0.000 C 
ATOM     23  O   UNL     1       0.344  10.341  17.952  0.00  0.00    +0.000 OA
ATOM     24  N   UNL     1      -1.886  10.045  18.559  0.00  0.00    +0.000 N 
ATOM     25  H   UNL     1      -2.493   9.942  19.368  0.00  0.00    +0.000 HD
BRANCH  24  26
ATOM     26  C   UNL     1      -2.569  10.245  17.333  0.00  0.00    +0.000 A 
ATOM     27  C   UNL     1      -2.176   9.646  16.133  0.00  0.00    +0.000 A 
ATOM     28  C   UNL     1      -2.842   9.933  14.937  0.00  0.00    +0.000 A 
ATOM     29  C   UNL     1      -3.922  10.811  14.926  0.00  0.00    +0.000 A 
ATOM     30  C   UNL     1      -4.349  11.395  16.117  0.00  0.00    +0.000 A 
ATOM     31  C   UNL     1      -3.677  11.114  17.311  0.00  0.00    +0.000 A 
ATOM     32 CL   UNL     1      -4.251  11.862  18.765  0.00  0.00    +0.000 Cl
ENDBRANCH  24  26
ENDBRANCH   6  22
TORSDOF 4
ENDMDL
MODEL 2
REMARK VINA RESULT:      -8.1      1.204      1.518
REMARK  Name = 
REMARK  5 active torsions:
REMARK  status: ('A' for Active; 'I' for Inactive)
REMARK    1  A    between atoms: C_1  and  C_2
REMARK    2  A    between atoms: C_5  and  N_6
REMARK    3  A    between atoms: C_7  and  C_9
REMARK    4  A    between atoms: C_19  and  C_20
REMARK    5  A    between atoms: N_22  and  C_23
REMARK                            x       y       z     vdW  Elec       q    Type
REMARK                         _______ _______ _______ _____ _____    ______ ____
ROOT
ATOM      1  C   UNL     1      -1.604  11.127  23.537  0.00  0.00    +0.000 C 
ATOM      2  C   UNL     1      -0.713  10.438  22.549  0.00  0.00    +0.000 A 
ATOM      3  C   UNL     1       0.338   9.638  22.981  0.00  0.00    +0.000 A 
ATOM      4  C   UNL     1       1.164   8.992  22.057  0.00  0.00    +0.000 A 
ATOM      5  C   UNL     1       0.952   9.079  20.671  0.00  0.00    +0.000 A 
ATOM      6  C   UNL     1      -0.109   9.896  20.236  0.00  0.00    +0.000 A 
ATOM      7  C   UNL     1      -0.914  10.584  21.172  0.00  0.00    +0.000 A 
ENDROOT
BRANCH   5   8
ATOM      8  N   UNL     1       1.801   8.380  19.751  0.00  0.00    +0.000 N 
ATOM      9  C   UNL     1       2.096   7.020  19.850  0.00  0.00    +0.000 C 
ATOM     10  O   UNL     1       1.546   6.310  20.689  0.00  0.00    +0.000 OA
ATOM     11  H   UNL     1       2.138   8.887  18.937  0.00  0.00    +0.000 HD
BRANCH   9  12
ATOM     12  C   UNL     1       3.008   6.429  18.878  0.00  0.00    +0.000 A 
ATOM     13  S   UNL     1       3.309   4.749  19.099  0.00  0.00    +0.000 S 
ATOM     14  C   UNL     1       4.246   4.620  17.685  0.00  0.00    +0.000 A 
ATOM     15  C   UNL     1       4.800   3.431  17.177  0.00  0.00    +0.000 A 
ATOM     16  C   UNL     1       5.535   3.482  15.995  0.00  0.00    +0.000 A 
ATOM     17  C   UNL     1       5.727   4.693  15.348  0.00  0.00    +0.000 A 
ATOM     18  C   UNL     1       5.182   5.875  15.868  0.00  0.00    +0.000 A 
ATOM     19  C   UNL     1       4.409   5.857  17.063  0.00  0.00    +0.000 A 
ATOM     20  C   UNL     1       3.711   6.905  17.787  0.00  0.00    +0.000 A 
ATOM     21 CL   UNL     1       3.754   8.542  17.264  0.00  0.00    +0.000 Cl
ENDBRANCH   9  12
ENDBRANCH   5   8
BRANCH   6  22
ATOM     22  C   UNL     1      -0.530  10.032  18.815  0.00  0.00    +0.000 C 
ATOM     23  O   UNL     1       0.338  10.202  17.968  0.00  0.00    +0.000 OA
ATOM     24  N   UNL     1      -1.896  10.012  18.607  0.00  0.00    +0.000 N 
ATOM     25  H   UNL     1      -2.495   9.937  19.424  0.00  0.00    +0.000 HD
BRANCH  24  26
ATOM     26  C   UNL     1      -2.586  10.245  17.390  0.00  0.00    +0.000 A 
ATOM     27  C   UNL     1      -2.214   9.660  16.177  0.00  0.00    +0.000 A 
ATOM     28  C   UNL     1      -2.885   9.980  14.993  0.00  0.00    +0.000 A 
ATOM     29  C   UNL     1      -3.949  10.878  15.007  0.00  0.00    +0.000 A 
ATOM     30  C   UNL     1      -4.354  11.449  16.211  0.00  0.00    +0.000 A 
ATOM     31  C   UNL     1      -3.677  11.135  17.393  0.00  0.00    +0.000 A 
ATOM     32 CL   UNL     1      -4.224  11.868  18.865  0.00  0.00    +0.000 Cl
ENDBRANCH  24  26
ENDBRANCH   6  22
TORSDOF 4
ENDMDL
MODEL 3
REMARK VINA RESULT:      -7.9      3.053      3.852
REMARK  Name = 
REMARK  5 active torsions:
REMARK  status: ('A' for Active; 'I' for Inactive)
REMARK    1  A    between atoms: C_1  and  C_2
REMARK    2  A    between atoms: C_5  and  N_6
REMARK    3  A    between atoms: C_7  and  C_9
REMARK    4  A    between atoms: C_19  and  C_20
REMARK    5  A    between atoms: N_22  and  C_23
REMARK                            x       y       z     vdW  Elec       q    Type
REMARK                         _______ _______ _______ _____ _____    ______ ____
ROOT
ATOM      1  C   UNL     1      -1.691  11.532  23.445  0.00  0.00    +0.000 C 
ATOM      2  C   UNL     1      -0.808  10.773  22.502  0.00  0.00    +0.000 A 
ATOM      3  C   UNL     1      -0.687   9.391  22.603  0.00  0.00    +0.000 A 
ATOM      4  C   UNL     1       0.133   8.685  21.720  0.00  0.00    +0.000 A 
ATOM      5  C   UNL     1       0.830   9.315  20.674  0.00  0.00    +0.000 A 
ATOM      6  C   UNL     1       0.712  10.715  20.580  0.00  0.00    +0.000 A 
ATOM      7  C   UNL     1      -0.083  11.431  21.503  0.00  0.00    +0.000 A 
ENDROOT
BRANCH   5   8
ATOM      8  N   UNL     1       1.640   8.556  19.768  0.00  0.00    +0.000 N 
ATOM      9  C   UNL     1       1.988   7.220  19.971  0.00  0.00    +0.000 C 
ATOM     10  O   UNL     1       1.519   6.579  20.908  0.00  0.00    +0.000 OA
ATOM     11  H   UNL     1       1.905   8.993  18.888  0.00  0.00    +0.000 HD
BRANCH   9  12
ATOM     12  C   UNL     1       2.854   6.566  18.997  0.00  0.00    +0.000 A 
ATOM     13  S   UNL     1       3.315   7.552  17.665  0.00  0.00    +0.000 S 
ATOM     14  C   UNL     1       4.357   6.376  17.014  0.00  0.00    +0.000 A 
ATOM     15  C   UNL     1       5.172   6.542  15.880  0.00  0.00    +0.000 A 
ATOM     16  C   UNL     1       5.986   5.487  15.475  0.00  0.00    +0.000 A 
ATOM     17  C   UNL     1       5.973   4.291  16.176  0.00  0.00    +0.000 A 
ATOM     18  C   UNL     1       5.147   4.129  17.298  0.00  0.00    +0.000 A 
ATOM     19  C   UNL     1       4.318   5.192  17.751  0.00  0.00    +0.000 A 
ATOM     20  C   UNL     1       3.413   5.308  18.882  0.00  0.00    +0.000 A 
ATOM     21 CL   UNL     1       3.145   3.993  19.957  0.00  0.00    +0.000 Cl
ENDBRANCH   9  12
ENDBRANCH   5   8
BRANCH   6  22
ATOM     22  C   UNL     1       1.307  11.531  19.487  0.00  0.00    +0.000 C 
ATOM     23  O   UNL     1       1.517  10.990  18.409  0.00  0.00    +0.000 OA
ATOM     24  N   UNL     1       1.623  12.830  19.835  0.00  0.00    +0.000 N 
ATOM     25  H   UNL     1       1.455  13.114  20.796  0.00  0.00    +0.000 HD
BRANCH  24  26
ATOM     26  C   UNL     1       2.310  13.790  19.049  0.00  0.00    +0.000 A 
ATOM     27  C   UNL     1       3.622  13.613  18.602  0.00  0.00    +0.000 A 
ATOM     28  C   UNL     1       4.278  14.624  17.891  0.00  0.00    +0.000 A 
ATOM     29  C   UNL     1       3.625  15.819  17.602  0.00  0.00    +0.000 A 
ATOM     30  C   UNL     1       2.307  16.002  18.013  0.00  0.00    +0.000 A 
ATOM     31  C   UNL     1       1.655  14.995  18.732  0.00  0.00    +0.000 A 
ATOM     32 CL   UNL     1       0.014  15.272  19.216  0.00  0.00    +0.000 Cl
ENDBRANCH  24  26
ENDBRANCH   6  22
TORSDOF 4
ENDMDL
MODEL 4
REMARK VINA RESULT:      -7.8      1.861      2.384
REMARK  Name = 
REMARK  5 active torsions:
REMARK  status: ('A' for Active; 'I' for Inactive)
REMARK    1  A    between atoms: C_1  and  C_2
REMARK    2  A    between atoms: C_5  and  N_6
REMARK    3  A    between atoms: C_7  and  C_9
REMARK    4  A    between atoms: C_19  and  C_20
REMARK    5  A    between atoms: N_22  and  C_23
REMARK                            x       y       z     vdW  Elec       q    Type
REMARK                         _______ _______ _______ _____ _____    ______ ____
ROOT
ATOM      1  C   UNL     1      -1.846  12.930  23.311  0.00  0.00    +0.000 C 
ATOM      2  C   UNL     1      -1.287  11.699  22.665  0.00  0.00    +0.000 A 
ATOM      3  C   UNL     1      -0.781  10.661  23.440  0.00  0.00    +0.000 A 
ATOM      4  C   UNL     1      -0.264   9.512  22.835  0.00  0.00    +0.000 A 
ATOM      5  C   UNL     1      -0.271   9.329  21.441  0.00  0.00    +0.000 A 
ATOM      6  C   UNL     1      -0.776  10.385  20.659  0.00  0.00    +0.000 A 
ATOM      7  C   UNL     1      -1.256  11.565  21.273  0.00  0.00    +0.000 A 
ENDROOT
BRANCH   5   8
ATOM      8  N   UNL     1       0.241   8.124  20.855  0.00  0.00    +0.000 N 
ATOM      9  C   UNL     1       1.580   7.938  20.511  0.00  0.00    +0.000 C 
ATOM     10  O   UNL     1       2.431   8.777  20.796  0.00  0.00    +0.000 OA
ATOM     11  H   UNL     1      -0.394   7.335  20.763  0.00  0.00    +0.000 HD
BRANCH   9  12
ATOM     12  C   UNL     1       1.973   6.683  19.881  0.00  0.00    +0.000 A 
ATOM     13  S   UNL     1       1.507   5.268  20.742  0.00  0.00    +0.000 S 
ATOM     14  C   UNL     1       2.067   4.214  19.529  0.00  0.00    +0.000 A 
ATOM     15  C   UNL     1       1.940   2.813  19.540  0.00  0.00    +0.000 A 
ATOM     16  C   UNL     1       2.438   2.084  18.463  0.00  0.00    +0.000 A 
ATOM     17  C   UNL     1       3.061   2.736  17.411  0.00  0.00    +0.000 A 
ATOM     18  C   UNL     1       3.195   4.132  17.414  0.00  0.00    +0.000 A 
ATOM     19  C   UNL     1       2.681   4.911  18.488  0.00  0.00    +0.000 A 
ATOM     20  C   UNL     1       2.648   6.344  18.725  0.00  0.00    +0.000 A 
ATOM     21 CL   UNL     1       3.352   7.454  17.617  0.00  0.00    +0.000 Cl
ENDBRANCH   9  12
ENDBRANCH   5   8
BRANCH   6  22
ATOM     22  C   UNL     1      -0.939  10.326  19.182  0.00  0.00    +0.000 C 
ATOM     23  O   UNL     1       0.063  10.423  18.484  0.00  0.00    +0.000 OA
ATOM     24  N   UNL     1      -2.245  10.226  18.742  0.00  0.00    +0.000 N 
ATOM     25  H   UNL     1      -2.979  10.229  19.445  0.00  0.00    +0.000 HD
BRANCH  24  26
ATOM     26  C   UNL     1      -2.711  10.279  17.404  0.00  0.00    +0.000 A 
ATOM     27  C   UNL     1      -2.107   9.577  16.358  0.00  0.00    +0.000 A 
ATOM     28  C   UNL     1      -2.563   9.720  15.043  0.00  0.00    +0.000 A 
ATOM     29  C   UNL     1      -3.640  10.555  14.758  0.00  0.00    +0.000 A 
ATOM     30  C   UNL     1      -4.274  11.240  15.792  0.00  0.00    +0.000 A 
ATOM     31  C   UNL     1      -3.812  11.103  17.105  0.00  0.00    +0.000 A 
ATOM     32 CL   UNL     1      -4.640  11.973  18.355  0.00  0.00    +0.000 Cl
ENDBRANCH  24  26
ENDBRANCH   6  22
TORSDOF 4
ENDMDL
MODEL 5
REMARK VINA RESULT:      -7.8      3.002      4.149
REMARK  Name = 
REMARK  5 active torsions:
REMARK  status: ('A' for Active; 'I' for Inactive)
REMARK    1  A    between atoms: C_1  and  C_2
REMARK    2  A    between atoms: C_5  and  N_6
REMARK    3  A    between atoms: C_7  and  C_9
REMARK    4  A    between atoms: C_19  and  C_20
REMARK    5  A    between atoms: N_22  and  C_23
REMARK                            x       y       z     vdW  Elec       q    Type
REMARK                         _______ _______ _______ _____ _____    ______ ____
ROOT
ATOM      1  C   UNL     1       0.478  16.499  18.574  0.00  0.00    +0.000 C 
ATOM      2  C   UNL     1       0.677  15.032  18.807  0.00  0.00    +0.000 A 
ATOM      3  C   UNL     1       1.920  14.539  19.191  0.00  0.00    +0.000 A 
ATOM      4  C   UNL     1       2.101  13.171  19.412  0.00  0.00    +0.000 A 
ATOM      5  C   UNL     1       1.048  12.247  19.306  0.00  0.00    +0.000 A 
ATOM      6  C   UNL     1      -0.207  12.748  18.910  0.00  0.00    +0.000 A 
ATOM      7  C   UNL     1      -0.375  14.126  18.643  0.00  0.00    +0.000 A 
ENDROOT
BRANCH   5   8
ATOM      8  N   UNL     1       1.263  10.854  19.569  0.00  0.00    +0.000 N 
ATOM      9  C   UNL     1       1.770   9.957  18.628  0.00  0.00    +0.000 C 
ATOM     10  O   UNL     1       2.167  10.344  17.532  0.00  0.00    +0.000 OA
ATOM     11  H   UNL     1       1.115  10.522  20.519  0.00  0.00    +0.000 HD
BRANCH   9  12
ATOM     12  C   UNL     1       1.904   8.553  19.001  0.00  0.00    +0.000 A 
ATOM     13  S   UNL     1       2.801   7.595  17.888  0.00  0.00    +0.000 S 
ATOM     14  C   UNL     1       2.743   6.207  18.869  0.00  0.00    +0.000 A 
ATOM     15  C   UNL     1       3.373   4.980  18.590  0.00  0.00    +0.000 A 
ATOM     16  C   UNL     1       3.245   3.935  19.501  0.00  0.00    +0.000 A 
ATOM     17  C   UNL     1       2.493   4.105  20.653  0.00  0.00    +0.000 A 
ATOM     18  C   UNL     1       1.858   5.327  20.917  0.00  0.00    +0.000 A 
ATOM     19  C   UNL     1       1.983   6.423  20.019  0.00  0.00    +0.000 A 
ATOM     20  C   UNL     1       1.474   7.782  20.063  0.00  0.00    +0.000 A 
ATOM     21 CL   UNL     1       0.482   8.329  21.357  0.00  0.00    +0.000 Cl
ENDBRANCH   9  12
ENDBRANCH   5   8
BRANCH   6  22
ATOM     22  C   UNL     1      -1.446  11.930  18.834  0.00  0.00    +0.000 C 
ATOM     23  O   UNL     1      -1.357  10.781  18.419  0.00  0.00    +0.000 OA
ATOM     24  N   UNL     1      -2.606  12.592  19.191  0.00  0.00    +0.000 N 
ATOM     25  H   UNL     1      -2.527  13.573  19.445  0.00  0.00    +0.000 HD
BRANCH  24  26
ATOM     26  C   UNL     1      -3.937  12.112  19.095  0.00  0.00    +0.000 A 
ATOM     27  C   UNL     1      -4.450  11.509  17.945  0.00  0.00    +0.000 A 
ATOM     28  C   UNL     1      -5.792  11.119  17.879  0.00  0.00    +0.000 A 
ATOM     29  C   UNL     1      -6.635  11.311  18.970  0.00  0.00    +0.000 A 
ATOM     30  C   UNL     1      -6.134  11.883  20.137  0.00  0.00    +0.000 A 
ATOM     31  C   UNL     1      -4.795  12.282  20.198  0.00  0.00    +0.000 A 
ATOM     32 CL   UNL     1      -4.220  12.984  21.675  0.00  0.00    +0.000 Cl
ENDBRANCH  24  26
ENDBRANCH   6  22
TORSDOF 4
ENDMDL
MODEL 6
REMARK VINA RESULT:      -7.8      3.982      5.371
REMARK  Name = 
REMARK  5 active torsions:
REMARK  status: ('A' for Active; 'I' for Inactive)
REMARK    1  A    between atoms: C_1  and  C_2
REMARK    2  A    between atoms: C_5  and  N_6
REMARK    3  A    between atoms: C_7  and  C_9
REMARK    4  A    between atoms: C_19  and  C_20
REMARK    5  A    between atoms: N_22  and  C_23
REMARK                            x       y       z     vdW  Elec       q    Type
REMARK                         _______ _______ _______ _____ _____    ______ ____
ROOT
ATOM      1  C   UNL     1      -3.438  15.025  23.607  0.00  0.00    +0.000 C 
ATOM      2  C   UNL     1      -2.495  13.972  23.110  0.00  0.00    +0.000 A 
ATOM      3  C   UNL     1      -2.841  12.626  23.171  0.00  0.00    +0.000 A 
ATOM      4  C   UNL     1      -1.962  11.646  22.703  0.00  0.00    +0.000 A 
ATOM      5  C   UNL     1      -0.726  11.965  22.116  0.00  0.00    +0.000 A 
ATOM      6  C   UNL     1      -0.375  13.328  22.062  0.00  0.00    +0.000 A 
ATOM      7  C   UNL     1      -1.247  14.313  22.578  0.00  0.00    +0.000 A 
ENDROOT
BRANCH   5   8
ATOM      8  N   UNL     1       0.140  10.936  21.619  0.00  0.00    +0.000 N 
ATOM      9  C   UNL     1      -0.065  10.267  20.412  0.00  0.00    +0.000 C 
ATOM     10  O   UNL     1      -0.961  10.606  19.642  0.00  0.00    +0.000 OA
ATOM     11  H   UNL     1       0.994  10.743  22.137  0.00  0.00    +0.000 HD
BRANCH   9  12
ATOM     12  C   UNL     1       0.862   9.207  20.033  0.00  0.00    +0.000 A 
ATOM     13  S   UNL     1       0.972   7.909  21.158  0.00  0.00    +0.000 S 
ATOM     14  C   UNL     1       2.008   6.994  20.166  0.00  0.00    +0.000 A 
ATOM     15  C   UNL     1       2.480   5.700  20.450  0.00  0.00    +0.000 A 
ATOM     16  C   UNL     1       3.314   5.070  19.529  0.00  0.00    +0.000 A 
ATOM     17  C   UNL     1       3.680   5.723  18.363  0.00  0.00    +0.000 A 
ATOM     18  C   UNL     1       3.216   7.019  18.094  0.00  0.00    +0.000 A 
ATOM     19  C   UNL     1       2.346   7.684  19.002  0.00  0.00    +0.000 A 
ATOM     20  C   UNL     1       1.699   8.984  18.956  0.00  0.00    +0.000 A 
ATOM     21 CL   UNL     1       1.951  10.068  17.646  0.00  0.00    +0.000 Cl
ENDBRANCH   9  12
ENDBRANCH   5   8
BRANCH   6  22
ATOM     22  C   UNL     1       0.850  13.849  21.398  0.00  0.00    +0.000 C 
ATOM     23  O   UNL     1       1.790  14.193  22.103  0.00  0.00    +0.000 OA
ATOM     24  N   UNL     1       0.769  13.948  20.022  0.00  0.00    +0.000 N 
ATOM     25  H   UNL     1      -0.110  13.691  19.582  0.00  0.00    +0.000 HD
BRANCH  24  26
ATOM     26  C   UNL     1       1.722  14.523  19.142  0.00  0.00    +0.000 A 
ATOM     27  C   UNL     1       2.865  13.848  18.708  0.00  0.00    +0.000 A 
ATOM     28  C   UNL     1       3.809  14.486  17.897  0.00  0.00    +0.000 A 
ATOM     29  C   UNL     1       3.615  15.805  17.495  0.00  0.00    +0.000 A 
ATOM     30  C   UNL     1       2.466  16.485  17.892  0.00  0.00    +0.000 A 
ATOM     31  C   UNL     1       1.527  15.849  18.710  0.00  0.00    +0.000 A 
ATOM     32 CL   UNL     1       0.113  16.738  19.172  0.00  0.00    +0.000 Cl
ENDBRANCH  24  26
ENDBRANCH   6  22
TORSDOF 4
ENDMDL
MODEL 7
REMARK VINA RESULT:      -7.7      3.428      4.195
REMARK  Name = 
REMARK  5 active torsions:
REMARK  status: ('A' for Active; 'I' for Inactive)
REMARK    1  A    between atoms: C_1  and  C_2
REMARK    2  A    between atoms: C_5  and  N_6
REMARK    3  A    between atoms: C_7  and  C_9
REMARK    4  A    between atoms: C_19  and  C_20
REMARK    5  A    between atoms: N_22  and  C_23
REMARK                            x       y       z     vdW  Elec       q    Type
REMARK                         _______ _______ _______ _____ _____    ______ ____
ROOT
ATOM      1  C   UNL     1      -2.070  12.937  23.662  0.00  0.00    +0.000 C 
ATOM      2  C   UNL     1      -1.225  12.066  22.784  0.00  0.00    +0.000 A 
ATOM      3  C   UNL     1      -1.144  10.697  23.012  0.00  0.00    +0.000 A 
ATOM      4  C   UNL     1      -0.359   9.886  22.188  0.00  0.00    +0.000 A 
ATOM      5  C   UNL     1       0.340  10.394  21.080  0.00  0.00    +0.000 A 
ATOM      6  C   UNL     1       0.262  11.782  20.856  0.00  0.00    +0.000 A 
ATOM      7  C   UNL     1      -0.496  12.606  21.718  0.00  0.00    +0.000 A 
ENDROOT
BRANCH   5   8
ATOM      8  N   UNL     1       1.113   9.529  20.238  0.00  0.00    +0.000 N 
ATOM      9  C   UNL     1       1.336   8.179  20.509  0.00  0.00    +0.000 C 
ATOM     10  O   UNL     1       0.780   7.622  21.453  0.00  0.00    +0.000 OA
ATOM     11  H   UNL     1       1.446   9.902  19.352  0.00  0.00    +0.000 HD
BRANCH   9  12
ATOM     12  C   UNL     1       2.176   7.411  19.599  0.00  0.00    +0.000 A 
ATOM     13  S   UNL     1       2.657   8.253  18.178  0.00  0.00    +0.000 S 
ATOM     14  C   UNL     1       3.659   6.990  17.637  0.00  0.00    +0.000 A 
ATOM     15  C   UNL     1       4.472   7.024  16.489  0.00  0.00    +0.000 A 
ATOM     16  C   UNL     1       5.252   5.912  16.183  0.00  0.00    +0.000 A 
ATOM     17  C   UNL     1       5.208   4.788  16.992  0.00  0.00    +0.000 A 
ATOM     18  C   UNL     1       4.385   4.757  18.127  0.00  0.00    +0.000 A 
ATOM     19  C   UNL     1       3.590   5.882  18.482  0.00  0.00    +0.000 A 
ATOM     20  C   UNL     1       2.696   6.131  19.600  0.00  0.00    +0.000 A 
ATOM     21 CL   UNL     1       2.396   4.931  20.795  0.00  0.00    +0.000 Cl
ENDBRANCH   9  12
ENDBRANCH   5   8
BRANCH   6  22
ATOM     22  C   UNL     1       0.864  12.474  19.684  0.00  0.00    +0.000 C 
ATOM     23  O   UNL     1       0.835  11.907  18.599  0.00  0.00    +0.000 OA
ATOM     24  N   UNL     1       1.462  13.687  19.966  0.00  0.00    +0.000 N 
ATOM     25  H   UNL     1       1.469  13.993  20.935  0.00  0.00    +0.000 HD
BRANCH  24  26
ATOM     26  C   UNL     1       2.218  14.501  19.086  0.00  0.00    +0.000 A 
ATOM     27  C   UNL     1       3.508  14.173  18.660  0.00  0.00    +0.000 A 
ATOM     28  C   UNL     1       4.238  15.047  17.848  0.00  0.00    +0.000 A 
ATOM     29  C   UNL     1       3.683  16.255  17.436  0.00  0.00    +0.000 A 
ATOM     30  C   UNL     1       2.387  16.586  17.824  0.00  0.00    +0.000 A 
ATOM     31  C   UNL     1       1.661  15.716  18.644  0.00  0.00    +0.000 A 
ATOM     32 CL   UNL     1       0.051  16.173  19.094  0.00  0.00    +0.000 Cl
ENDBRANCH  24  26
ENDBRANCH   6  22
TORSDOF 4
ENDMDL
MODEL 8
REMARK VINA RESULT:      -7.7      3.658      4.607
REMARK  Name = 
REMARK  5 active torsions:
REMARK  status: ('A' for Active; 'I' for Inactive)
REMARK    1  A    between atoms: C_1  and  C_2
REMARK    2  A    between atoms: C_5  and  N_6
REMARK    3  A    between atoms: C_7  and  C_9
REMARK    4  A    between atoms: C_19  and  C_20
REMARK    5  A    between atoms: N_22  and  C_23
REMARK                            x       y       z     vdW  Elec       q    Type
REMARK                         _______ _______ _______ _____ _____    ______ ____
ROOT
ATOM      1  C   UNL     1      -2.717  14.003  23.686  0.00  0.00    +0.000 C 
ATOM      2  C   UNL     1      -1.785  13.020  23.045  0.00  0.00    +0.000 A 
ATOM      3  C   UNL     1      -2.006  11.653  23.165  0.00  0.00    +0.000 A 
ATOM      4  C   UNL     1      -1.138  10.738  22.562  0.00  0.00    +0.000 A 
ATOM      5  C   UNL     1      -0.043  11.145  21.780  0.00  0.00    +0.000 A 
ATOM      6  C   UNL     1       0.183  12.531  21.667  0.00  0.00    +0.000 A 
ATOM      7  C   UNL     1      -0.671  13.451  22.316  0.00  0.00    +0.000 A 
ENDROOT
BRANCH   5   8
ATOM      8  N   UNL     1       0.811  10.181  21.152  0.00  0.00    +0.000 N 
ATOM      9  C   UNL     1       0.586   9.661  19.877  0.00  0.00    +0.000 C 
ATOM     10  O   UNL     1      -0.319  10.092  19.166  0.00  0.00    +0.000 OA
ATOM     11  H   UNL     1       1.672   9.926  21.630  0.00  0.00    +0.000 HD
BRANCH   9  12
ATOM     12  C   UNL     1       1.503   8.652  19.361  0.00  0.00    +0.000 A 
ATOM     13  S   UNL     1       2.271   9.066  17.877  0.00  0.00    +0.000 S 
ATOM     14  C   UNL     1       3.251   7.676  17.870  0.00  0.00    +0.000 A 
ATOM     15  C   UNL     1       4.239   7.376  16.915  0.00  0.00    +0.000 A 
ATOM     16  C   UNL     1       4.973   6.201  17.051  0.00  0.00    +0.000 A 
ATOM     17  C   UNL     1       4.714   5.338  18.105  0.00  0.00    +0.000 A 
ATOM     18  C   UNL     1       3.718   5.638  19.045  0.00  0.00    +0.000 A 
ATOM     19  C   UNL     1       2.962   6.839  18.948  0.00  0.00    +0.000 A 
ATOM     20  C   UNL     1       1.920   7.405  19.787  0.00  0.00    +0.000 A 
ATOM     21 CL   UNL     1       1.341   6.581  21.181  0.00  0.00    +0.000 Cl
ENDBRANCH   9  12
ENDBRANCH   5   8
BRANCH   6  22
ATOM     22  C   UNL     1       1.237  13.137  20.810  0.00  0.00    +0.000 C 
ATOM     23  O   UNL     1       2.407  12.873  21.057  0.00  0.00    +0.000 OA
ATOM     24  N   UNL     1       0.773  14.005  19.841  0.00  0.00    +0.000 N 
ATOM     25  H   UNL     1      -0.227  14.181  19.806  0.00  0.00    +0.000 HD
BRANCH  24  26
ATOM     26  C   UNL     1       1.544  14.819  18.972  0.00  0.00    +0.000 A 
ATOM     27  C   UNL     1       2.645  14.342  18.256  0.00  0.00    +0.000 A 
ATOM     28  C   UNL     1       3.414  15.205  17.468  0.00  0.00    +0.000 A 
ATOM     29  C   UNL     1       3.084  16.553  17.372  0.00  0.00    +0.000 A 
ATOM     30  C   UNL     1       1.971  17.042  18.054  0.00  0.00    +0.000 A 
ATOM     31  C   UNL     1       1.208  16.180  18.848  0.00  0.00    +0.000 A 
ATOM     32 CL   UNL     1      -0.169  16.837  19.672  0.00  0.00    +0.000 Cl
ENDBRANCH  24  26
ENDBRANCH   6  22
TORSDOF 4
ENDMDL
MODEL 9
REMARK VINA RESULT:      -7.4      3.657      4.588
REMARK  Name = 
REMARK  5 active torsions:
REMARK  status: ('A' for Active; 'I' for Inactive)
REMARK    1  A    between atoms: C_1  and  C_2
REMARK    2  A    between atoms: C_5  and  N_6
REMARK    3  A    between atoms: C_7  and  C_9
REMARK    4  A    between atoms: C_19  and  C_20
REMARK    5  A    between atoms: N_22  and  C_23
REMARK                            x       y       z     vdW  Elec       q    Type
REMARK                         _______ _______ _______ _____ _____    ______ ____
ROOT
ATOM      1  C   UNL     1      -2.503  13.437  23.684  0.00  0.00    +0.000 C 
ATOM      2  C   UNL     1      -1.599  12.510  22.930  0.00  0.00    +0.000 A 
ATOM      3  C   UNL     1      -1.498  11.171  23.293  0.00  0.00    +0.000 A 
ATOM      4  C   UNL     1      -0.658  10.307  22.585  0.00  0.00    +0.000 A 
ATOM      5  C   UNL     1       0.079  10.726  21.464  0.00  0.00    +0.000 A 
ATOM      6  C   UNL     1      -0.020  12.084  21.104  0.00  0.00    +0.000 A 
ATOM      7  C   UNL     1      -0.836  12.965  21.850  0.00  0.00    +0.000 A 
ENDROOT
BRANCH   5   8
ATOM      8  N   UNL     1       0.908   9.806  20.743  0.00  0.00    +0.000 N 
ATOM      9  C   UNL     1       0.777   8.419  20.820  0.00  0.00    +0.000 C 
ATOM     10  O   UNL     1      -0.149   7.903  21.443  0.00  0.00    +0.000 OA
ATOM     11  H   UNL     1       1.574  10.189  20.076  0.00  0.00    +0.000 HD
BRANCH   9  12
ATOM     12  C   UNL     1       1.709   7.584  20.072  0.00  0.00    +0.000 A 
ATOM     13  S   UNL     1       2.082   6.077  20.813  0.00  0.00    +0.000 S 
ATOM     14  C   UNL     1       3.017   5.538  19.498  0.00  0.00    +0.000 A 
ATOM     15  C   UNL     1       3.619   4.272  19.387  0.00  0.00    +0.000 A 
ATOM     16  C   UNL     1       4.346   3.970  18.238  0.00  0.00    +0.000 A 
ATOM     17  C   UNL     1       4.482   4.916  17.234  0.00  0.00    +0.000 A 
ATOM     18  C   UNL     1       3.890   6.181  17.358  0.00  0.00    +0.000 A 
ATOM     19  C   UNL     1       3.124   6.516  18.510  0.00  0.00    +0.000 A 
ATOM     20  C   UNL     1       2.385   7.713  18.874  0.00  0.00    +0.000 A 
ATOM     21 CL   UNL     1       2.355   9.096  17.853  0.00  0.00    +0.000 Cl
ENDBRANCH   9  12
ENDBRANCH   5   8
BRANCH   6  22
ATOM     22  C   UNL     1       0.618  12.676  19.898  0.00  0.00    +0.000 C 
ATOM     23  O   UNL     1       0.695  11.990  18.887  0.00  0.00    +0.000 OA
ATOM     24  N   UNL     1       1.124  13.950  20.072  0.00  0.00    +0.000 N 
ATOM     25  H   UNL     1       1.048  14.364  20.997  0.00  0.00    +0.000 HD
BRANCH  24  26
ATOM     26  C   UNL     1       1.889  14.708  19.150  0.00  0.00    +0.000 A 
ATOM     27  C   UNL     1       3.154  14.316  18.704  0.00  0.00    +0.000 A 
ATOM     28  C   UNL     1       3.898  15.136  17.849  0.00  0.00    +0.000 A 
ATOM     29  C   UNL     1       3.380  16.352  17.414  0.00  0.00    +0.000 A 
ATOM     30  C   UNL     1       2.107  16.747  17.822  0.00  0.00    +0.000 A 
ATOM     31  C   UNL     1       1.369  15.930  18.685  0.00  0.00    +0.000 A 
ATOM     32 CL   UNL     1      -0.210  16.464  19.159  0.00  0.00    +0.000 Cl
ENDBRANCH  24  26
ENDBRANCH   6  22
TORSDOF 4
ENDMDL
