MODEL 1
REMARK VINA RESULT:      -8.5      0.000      0.000
REMARK  Name = 
REMARK  9 active torsions:
REMARK  status: ('A' for Active; 'I' for Inactive)
REMARK    1  A    between atoms: C_1  and  O_2
REMARK    2  A    between atoms: O_2  and  C_3
REMARK    3  A    between atoms: C_6  and  O_7
REMARK    4  A    between atoms: O_7  and  C_8
REMARK    5  A    between atoms: C_8  and  C_9
REMARK    6  A    between atoms: C_9  and  N_10
REMARK    7  A    between atoms: C_11  and  C_13
REMARK    8  A    between atoms: C_13  and  C_14
REMARK    9  A    between atoms: C_13  and  C_20
REMARK                            x       y       z     vdW  Elec       q    Type
REMARK                         _______ _______ _______ _____ _____    ______ ____
ROOT
ATOM      1  N   UNL     1       5.724   6.228  18.509  0.00  0.00    +0.000 N 
ATOM      2  C   UNL     1       4.441   6.374  18.010  0.00  0.00    +0.000 C 
ATOM      3  O   UNL     1       4.247   6.608  16.818  0.00  0.00    +0.000 OA
ATOM      4  H   UNL     1       5.870   6.037  19.492  0.00  0.00    +0.000 HD
ENDROOT
BRANCH   1   5
ATOM      5  C   UNL     1       6.883   6.348  17.639  0.00  0.00    +0.000 C 
BRANCH   5   6
ATOM      6  C   UNL     1       7.133   5.098  16.791  0.00  0.00    +0.000 C 
BRANCH   6   7
ATOM      7  O   UNL     1       7.584   5.516  15.498  0.00  0.00    +0.000 OA
BRANCH   7  11
ATOM      8  C   UNL     1       5.781   3.425  12.364  0.00  0.00    +0.000 A 
ATOM      9  C   UNL     1       5.283   3.387  13.667  0.00  0.00    +0.000 A 
ATOM     10  C   UNL     1       5.909   4.107  14.686  0.00  0.00    +0.000 A 
ATOM     11  C   UNL     1       7.065   4.843  14.425  0.00  0.00    +0.000 A 
ATOM     12  C   UNL     1       7.570   4.875  13.126  0.00  0.00    +0.000 A 
ATOM     13  C   UNL     1       6.930   4.168  12.098  0.00  0.00    +0.000 A 
BRANCH   8  15
ATOM     14  C   UNL     1       3.849   3.221  11.013  0.00  0.00    +0.000 C 
ATOM     15  O   UNL     1       5.089   2.677  11.452  0.00  0.00    +0.000 OA
ENDBRANCH   8  15
ENDBRANCH   7  11
ENDBRANCH   6   7
ENDBRANCH   5   6
ENDBRANCH   1   5
BRANCH   2  16
ATOM     16  C   UNL     1       3.298   6.175  19.047  0.00  0.00    +0.000 C 
BRANCH  16  17
ATOM     17  C   UNL     1       2.388   7.408  19.030  0.00  0.00    +0.000 A 
ATOM     18  C   UNL     1       2.170   8.131  17.845  0.00  0.00    +0.000 A 
ATOM     19  C   UNL     1       1.443   9.321  17.853  0.00  0.00    +0.000 A 
ATOM     20  C   UNL     1       0.900   9.795  19.044  0.00  0.00    +0.000 A 
ATOM     21  C   UNL     1       1.061   9.064  20.220  0.00  0.00    +0.000 A 
ATOM     22  C   UNL     1       1.797   7.877  20.216  0.00  0.00    +0.000 A 
ENDBRANCH  16  17
BRANCH  16  23
ATOM     23  C   UNL     1       2.593   4.821  18.875  0.00  0.00    +0.000 A 
ATOM     24  C   UNL     1       2.941   3.965  17.814  0.00  0.00    +0.000 A 
ATOM     25  C   UNL     1       2.306   2.733  17.635  0.00  0.00    +0.000 A 
ATOM     26  C   UNL     1       1.329   2.315  18.533  0.00  0.00    +0.000 A 
ATOM     27  C   UNL     1       1.009   3.119  19.623  0.00  0.00    +0.000 A 
ATOM     28  C   UNL     1       1.643   4.354  19.801  0.00  0.00    +0.000 A 
ENDBRANCH  16  23
ENDBRANCH   2  16
TORSDOF 8
ENDMDL
MODEL 2
REMARK VINA RESULT:      -8.4      0.953      3.879
REMARK  Name = 
REMARK  9 active torsions:
REMARK  status: ('A' for Active; 'I' for Inactive)
REMARK    1  A    between atoms: C_1  and  O_2
REMARK    2  A    between atoms: O_2  and  C_3
REMARK    3  A    between atoms: C_6  and  O_7
REMARK    4  A    between atoms: O_7  and  C_8
REMARK    5  A    between atoms: C_8  and  C_9
REMARK    6  A    between atoms: C_9  and  N_10
REMARK    7  A    between atoms: C_11  and  C_13
REMARK    8  A    between atoms: C_13  and  C_14
REMARK    9  A    between atoms: C_13  and  C_20
REMARK                            x       y       z     vdW  Elec       q    Type
REMARK                         _______ _______ _______ _____ _____    ______ ____
ROOT
ATOM      1  N   UNL     1       5.305   5.722  17.625  0.00  0.00    +0.000 N 
ATOM      2  C   UNL     1       4.378   5.776  18.652  0.00  0.00    +0.000 C 
ATOM      3  O   UNL     1       4.732   5.745  19.829  0.00  0.00    +0.000 OA
ATOM      4  H   UNL     1       5.001   5.748  16.661  0.00  0.00    +0.000 HD
ENDROOT
BRANCH   1   5
ATOM      5  C   UNL     1       6.729   5.627  17.908  0.00  0.00    +0.000 C 
BRANCH   5   6
ATOM      6  C   UNL     1       7.515   4.895  16.817  0.00  0.00    +0.000 C 
BRANCH   6   7
ATOM      7  O   UNL     1       7.399   5.643  15.602  0.00  0.00    +0.000 OA
BRANCH   7  11
ATOM      8  C   UNL     1       5.983   3.460  12.335  0.00  0.00    +0.000 A 
ATOM      9  C   UNL     1       5.387   3.384  13.595  0.00  0.00    +0.000 A 
ATOM     10  C   UNL     1       5.886   4.136  14.660  0.00  0.00    +0.000 A 
ATOM     11  C   UNL     1       7.010   4.945  14.492  0.00  0.00    +0.000 A 
ATOM     12  C   UNL     1       7.613   5.015  13.236  0.00  0.00    +0.000 A 
ATOM     13  C   UNL     1       7.101   4.275  12.161  0.00  0.00    +0.000 A 
BRANCH   8  15
ATOM     14  C   UNL     1       5.925   1.351  11.265  0.00  0.00    +0.000 C 
ATOM     15  O   UNL     1       5.414   2.674  11.372  0.00  0.00    +0.000 OA
ENDBRANCH   8  15
ENDBRANCH   7  11
ENDBRANCH   6   7
ENDBRANCH   5   6
ENDBRANCH   1   5
BRANCH   2  16
ATOM     16  C   UNL     1       2.895   5.923  18.200  0.00  0.00    +0.000 C 
BRANCH  16  17
ATOM     17  C   UNL     1       2.108   4.693  18.664  0.00  0.00    +0.000 A 
ATOM     18  C   UNL     1       1.534   4.642  19.946  0.00  0.00    +0.000 A 
ATOM     19  C   UNL     1       0.924   3.477  20.413  0.00  0.00    +0.000 A 
ATOM     20  C   UNL     1       0.856   2.352  19.596  0.00  0.00    +0.000 A 
ATOM     21  C   UNL     1       1.373   2.402  18.302  0.00  0.00    +0.000 A 
ATOM     22  C   UNL     1       1.993   3.564  17.836  0.00  0.00    +0.000 A 
ENDBRANCH  16  17
BRANCH  16  23
ATOM     23  C   UNL     1       2.305   7.285  18.597  0.00  0.00    +0.000 A 
ATOM     24  C   UNL     1       1.940   7.543  19.931  0.00  0.00    +0.000 A 
ATOM     25  C   UNL     1       1.393   8.772  20.311  0.00  0.00    +0.000 A 
ATOM     26  C   UNL     1       1.227   9.783  19.368  0.00  0.00    +0.000 A 
ATOM     27  C   UNL     1       1.634   9.569  18.055  0.00  0.00    +0.000 A 
ATOM     28  C   UNL     1       2.180   8.339  17.674  0.00  0.00    +0.000 A 
ENDBRANCH  16  23
ENDBRANCH   2  16
TORSDOF 8
ENDMDL
MODEL 3
REMARK VINA RESULT:      -8.3      4.134      7.449
REMARK  Name = 
REMARK  9 active torsions:
REMARK  status: ('A' for Active; 'I' for Inactive)
REMARK    1  A    between atoms: C_1  and  O_2
REMARK    2  A    between atoms: O_2  and  C_3
REMARK    3  A    between atoms: C_6  and  O_7
REMARK    4  A    between atoms: O_7  and  C_8
REMARK    5  A    between atoms: C_8  and  C_9
REMARK    6  A    between atoms: C_9  and  N_10
REMARK    7  A    between atoms: C_11  and  C_13
REMARK    8  A    between atoms: C_13  and  C_14
REMARK    9  A    between atoms: C_13  and  C_20
REMARK                            x       y       z     vdW  Elec       q    Type
REMARK                         _______ _______ _______ _____ _____    ______ ____
ROOT
ATOM      1  N   UNL     1       5.996   6.981  17.326  0.00  0.00    +0.000 N 
ATOM      2  C   UNL     1       5.142   6.212  18.099  0.00  0.00    +0.000 C 
ATOM      3  O   UNL     1       5.544   5.637  19.109  0.00  0.00    +0.000 OA
ATOM      4  H   UNL     1       5.653   7.448  16.497  0.00  0.00    +0.000 HD
ENDROOT
BRANCH   1   5
ATOM      5  C   UNL     1       7.397   7.133  17.687  0.00  0.00    +0.000 C 
BRANCH   5   6
ATOM      6  C   UNL     1       7.878   8.585  17.644  0.00  0.00    +0.000 C 
BRANCH   6   7
ATOM      7  O   UNL     1       8.680   8.827  18.805  0.00  0.00    +0.000 OA
BRANCH   7  11
ATOM      8  C   UNL     1      10.224  12.643  19.512  0.00  0.00    +0.000 A 
ATOM      9  C   UNL     1       9.867  11.781  20.550  0.00  0.00    +0.000 A 
ATOM     10  C   UNL     1       9.361  10.509  20.273  0.00  0.00    +0.000 A 
ATOM     11  C   UNL     1       9.170  10.095  18.954  0.00  0.00    +0.000 A 
ATOM     12  C   UNL     1       9.517  10.958  17.915  0.00  0.00    +0.000 A 
ATOM     13  C   UNL     1      10.043  12.229  18.193  0.00  0.00    +0.000 A 
BRANCH   8  15
ATOM     14  C   UNL     1       9.864  14.978  19.621  0.00  0.00    +0.000 C 
ATOM     15  O   UNL     1      10.701  13.862  19.905  0.00  0.00    +0.000 OA
ENDBRANCH   8  15
ENDBRANCH   7  11
ENDBRANCH   6   7
ENDBRANCH   5   6
ENDBRANCH   1   5
BRANCH   2  16
ATOM     16  C   UNL     1       3.661   6.178  17.618  0.00  0.00    +0.000 C 
BRANCH  16  17
ATOM     17  C   UNL     1       3.142   4.739  17.703  0.00  0.00    +0.000 A 
ATOM     18  C   UNL     1       1.817   4.469  18.084  0.00  0.00    +0.000 A 
ATOM     19  C   UNL     1       1.380   3.158  18.281  0.00  0.00    +0.000 A 
ATOM     20  C   UNL     1       2.255   2.095  18.074  0.00  0.00    +0.000 A 
ATOM     21  C   UNL     1       3.558   2.342  17.645  0.00  0.00    +0.000 A 
ATOM     22  C   UNL     1       4.001   3.654  17.457  0.00  0.00    +0.000 A 
ENDBRANCH  16  17
BRANCH  16  23
ATOM     23  C   UNL     1       2.803   7.242  18.319  0.00  0.00    +0.000 A 
ATOM     24  C   UNL     1       2.298   8.340  17.598  0.00  0.00    +0.000 A 
ATOM     25  C   UNL     1       1.522   9.323  18.219  0.00  0.00    +0.000 A 
ATOM     26  C   UNL     1       1.209   9.213  19.571  0.00  0.00    +0.000 A 
ATOM     27  C   UNL     1       1.650   8.107  20.290  0.00  0.00    +0.000 A 
ATOM     28  C   UNL     1       2.428   7.124  19.669  0.00  0.00    +0.000 A 
ENDBRANCH  16  23
ENDBRANCH   2  16
TORSDOF 8
ENDMDL
MODEL 4
REMARK VINA RESULT:      -8.3      3.772      8.324
REMARK  Name = 
REMARK  9 active torsions:
REMARK  status: ('A' for Active; 'I' for Inactive)
REMARK    1  A    between atoms: C_1  and  O_2
REMARK    2  A    between atoms: O_2  and  C_3
REMARK    3  A    between atoms: C_6  and  O_7
REMARK    4  A    between atoms: O_7  and  C_8
REMARK    5  A    between atoms: C_8  and  C_9
REMARK    6  A    between atoms: C_9  and  N_10
REMARK    7  A    between atoms: C_11  and  C_13
REMARK    8  A    between atoms: C_13  and  C_14
REMARK    9  A    between atoms: C_13  and  C_20
REMARK                            x       y       z     vdW  Elec       q    Type
REMARK                         _______ _______ _______ _____ _____    ______ ____
ROOT
ATOM      1  N   UNL     1       2.223   8.492  17.657  0.00  0.00    +0.000 N 
ATOM      2  C   UNL     1       2.500   7.510  18.593  0.00  0.00    +0.000 C 
ATOM      3  O   UNL     1       2.368   7.725  19.797  0.00  0.00    +0.000 OA
ATOM      4  H   UNL     1       2.337   8.302  16.670  0.00  0.00    +0.000 HD
ENDROOT
BRANCH   1   5
ATOM      5  C   UNL     1       1.766   9.810  18.070  0.00  0.00    +0.000 C 
BRANCH   5   6
ATOM      6  C   UNL     1       0.328   9.814  18.596  0.00  0.00    +0.000 C 
BRANCH   6   7
ATOM      7  O   UNL     1      -0.216  11.124  18.405  0.00  0.00    +0.000 OA
BRANCH   7  11
ATOM      8  C   UNL     1      -4.344  11.163  17.773  0.00  0.00    +0.000 A 
ATOM      9  C   UNL     1      -3.470  10.467  16.937  0.00  0.00    +0.000 A 
ATOM     10  C   UNL     1      -2.096  10.472  17.186  0.00  0.00    +0.000 A 
ATOM     11  C   UNL     1      -1.573  11.203  18.253  0.00  0.00    +0.000 A 
ATOM     12  C   UNL     1      -2.443  11.908  19.084  0.00  0.00    +0.000 A 
ATOM     13  C   UNL     1      -3.825  11.888  18.845  0.00  0.00    +0.000 A 
BRANCH   8  15
ATOM     14  C   UNL     1      -6.578  10.877  18.496  0.00  0.00    +0.000 C 
ATOM     15  O   UNL     1      -5.664  11.092  17.426  0.00  0.00    +0.000 OA
ENDBRANCH   8  15
ENDBRANCH   7  11
ENDBRANCH   6   7
ENDBRANCH   5   6
ENDBRANCH   1   5
BRANCH   2  16
ATOM     16  C   UNL     1       2.935   6.136  18.005  0.00  0.00    +0.000 C 
BRANCH  16  17
ATOM     17  C   UNL     1       4.464   6.035  18.051  0.00  0.00    +0.000 A 
ATOM     18  C   UNL     1       5.118   5.444  19.145  0.00  0.00    +0.000 A 
ATOM     19  C   UNL     1       6.510   5.462  19.244  0.00  0.00    +0.000 A 
ATOM     20  C   UNL     1       7.271   6.050  18.238  0.00  0.00    +0.000 A 
ATOM     21  C   UNL     1       6.641   6.594  17.119  0.00  0.00    +0.000 A 
ATOM     22  C   UNL     1       5.247   6.586  17.023  0.00  0.00    +0.000 A 
ENDBRANCH  16  17
BRANCH  16  23
ATOM     23  C   UNL     1       2.168   4.968  18.642  0.00  0.00    +0.000 A 
ATOM     24  C   UNL     1       1.925   3.790  17.910  0.00  0.00    +0.000 A 
ATOM     25  C   UNL     1       1.222   2.719  18.468  0.00  0.00    +0.000 A 
ATOM     26  C   UNL     1       0.772   2.790  19.783  0.00  0.00    +0.000 A 
ATOM     27  C   UNL     1       1.050   3.921  20.544  0.00  0.00    +0.000 A 
ATOM     28  C   UNL     1       1.753   4.994  19.985  0.00  0.00    +0.000 A 
ENDBRANCH  16  23
ENDBRANCH   2  16
TORSDOF 8
ENDMDL
MODEL 5
REMARK VINA RESULT:      -8.1      1.874      7.507
REMARK  Name = 
REMARK  9 active torsions:
REMARK  status: ('A' for Active; 'I' for Inactive)
REMARK    1  A    between atoms: C_1  and  O_2
REMARK    2  A    between atoms: O_2  and  C_3
REMARK    3  A    between atoms: C_6  and  O_7
REMARK    4  A    between atoms: O_7  and  C_8
REMARK    5  A    between atoms: C_8  and  C_9
REMARK    6  A    between atoms: C_9  and  N_10
REMARK    7  A    between atoms: C_11  and  C_13
REMARK    8  A    between atoms: C_13  and  C_14
REMARK    9  A    between atoms: C_13  and  C_20
REMARK                            x       y       z     vdW  Elec       q    Type
REMARK                         _______ _______ _______ _____ _____    ______ ____
ROOT
ATOM      1  N   UNL     1       4.632   2.740  17.360  0.00  0.00    +0.000 N 
ATOM      2  C   UNL     1       4.892   3.816  16.529  0.00  0.00    +0.000 C 
ATOM      3  O   UNL     1       3.982   4.535  16.118  0.00  0.00    +0.000 OA
ATOM      4  H   UNL     1       5.389   2.156  17.690  0.00  0.00    +0.000 HD
ENDROOT
BRANCH   1   5
ATOM      5  C   UNL     1       3.274   2.426  17.773  0.00  0.00    +0.000 C 
BRANCH   5   6
ATOM      6  C   UNL     1       3.076   2.479  19.291  0.00  0.00    +0.000 C 
BRANCH   6   7
ATOM      7  O   UNL     1       3.848   3.568  19.806  0.00  0.00    +0.000 OA
BRANCH   7  11
ATOM      8  C   UNL     1       2.009   7.316  19.913  0.00  0.00    +0.000 A 
ATOM      9  C   UNL     1       3.096   7.045  19.081  0.00  0.00    +0.000 A 
ATOM     10  C   UNL     1       3.678   5.776  19.068  0.00  0.00    +0.000 A 
ATOM     11  C   UNL     1       3.208   4.771  19.915  0.00  0.00    +0.000 A 
ATOM     12  C   UNL     1       2.127   5.043  20.754  0.00  0.00    +0.000 A 
ATOM     13  C   UNL     1       1.529   6.312  20.753  0.00  0.00    +0.000 A 
BRANCH   8  15
ATOM     14  C   UNL     1       1.559   9.204  18.560  0.00  0.00    +0.000 C 
ATOM     15  O   UNL     1       1.526   8.593  19.845  0.00  0.00    +0.000 OA
ENDBRANCH   8  15
ENDBRANCH   7  11
ENDBRANCH   6   7
ENDBRANCH   5   6
ENDBRANCH   1   5
BRANCH   2  16
ATOM     16  C   UNL     1       6.396   4.059  16.207  0.00  0.00    +0.000 C 
BRANCH  16  17
ATOM     17  C   UNL     1       6.564   4.206  14.691  0.00  0.00    +0.000 A 
ATOM     18  C   UNL     1       5.801   3.433  13.800  0.00  0.00    +0.000 A 
ATOM     19  C   UNL     1       6.039   3.477  12.426  0.00  0.00    +0.000 A 
ATOM     20  C   UNL     1       7.030   4.314  11.919  0.00  0.00    +0.000 A 
ATOM     21  C   UNL     1       7.761   5.127  12.783  0.00  0.00    +0.000 A 
ATOM     22  C   UNL     1       7.530   5.077  14.160  0.00  0.00    +0.000 A 
ENDBRANCH  16  17
BRANCH  16  23
ATOM     23  C   UNL     1       6.992   5.189  17.059  0.00  0.00    +0.000 A 
ATOM     24  C   UNL     1       6.852   6.532  16.662  0.00  0.00    +0.000 A 
ATOM     25  C   UNL     1       7.395   7.574  17.419  0.00  0.00    +0.000 A 
ATOM     26  C   UNL     1       8.064   7.298  18.608  0.00  0.00    +0.000 A 
ATOM     27  C   UNL     1       8.165   5.983  19.049  0.00  0.00    +0.000 A 
ATOM     28  C   UNL     1       7.624   4.939  18.291  0.00  0.00    +0.000 A 
ENDBRANCH  16  23
ENDBRANCH   2  16
TORSDOF 8
ENDMDL
MODEL 6
REMARK VINA RESULT:      -8.1      0.837      3.935
REMARK  Name = 
REMARK  9 active torsions:
REMARK  status: ('A' for Active; 'I' for Inactive)
REMARK    1  A    between atoms: C_1  and  O_2
REMARK    2  A    between atoms: O_2  and  C_3
REMARK    3  A    between atoms: C_6  and  O_7
REMARK    4  A    between atoms: O_7  and  C_8
REMARK    5  A    between atoms: C_8  and  C_9
REMARK    6  A    between atoms: C_9  and  N_10
REMARK    7  A    between atoms: C_11  and  C_13
REMARK    8  A    between atoms: C_13  and  C_14
REMARK    9  A    between atoms: C_13  and  C_20
REMARK                            x       y       z     vdW  Elec       q    Type
REMARK                         _______ _______ _______ _____ _____    ______ ____
ROOT
ATOM      1  N   UNL     1       5.389   5.500  18.485  0.00  0.00    +0.000 N 
ATOM      2  C   UNL     1       4.634   6.413  17.767  0.00  0.00    +0.000 C 
ATOM      3  O   UNL     1       5.170   7.321  17.135  0.00  0.00    +0.000 OA
ATOM      4  H   UNL     1       4.936   4.757  19.001  0.00  0.00    +0.000 HD
ENDROOT
BRANCH   1   5
ATOM      5  C   UNL     1       6.840   5.588  18.512  0.00  0.00    +0.000 C 
BRANCH   5   6
ATOM      6  C   UNL     1       7.519   4.700  17.465  0.00  0.00    +0.000 C 
BRANCH   6   7
ATOM      7  O   UNL     1       7.559   5.417  16.226  0.00  0.00    +0.000 OA
BRANCH   7  11
ATOM      8  C   UNL     1       5.919   3.625  12.828  0.00  0.00    +0.000 A 
ATOM      9  C   UNL     1       7.103   4.362  12.783  0.00  0.00    +0.000 A 
ATOM     10  C   UNL     1       7.624   4.940  13.943  0.00  0.00    +0.000 A 
ATOM     11  C   UNL     1       6.948   4.821  15.158  0.00  0.00    +0.000 A 
ATOM     12  C   UNL     1       5.759   4.093  15.204  0.00  0.00    +0.000 A 
ATOM     13  C   UNL     1       5.246   3.497  14.043  0.00  0.00    +0.000 A 
BRANCH   8  15
ATOM     14  C   UNL     1       4.115   3.247  11.345  0.00  0.00    +0.000 C 
ATOM     15  O   UNL     1       5.503   3.114  11.631  0.00  0.00    +0.000 OA
ENDBRANCH   8  15
ENDBRANCH   7  11
ENDBRANCH   6   7
ENDBRANCH   5   6
ENDBRANCH   1   5
BRANCH   2  16
ATOM     16  C   UNL     1       3.097   6.168  17.792  0.00  0.00    +0.000 C 
BRANCH  16  17
ATOM     17  C   UNL     1       2.828   4.731  18.251  0.00  0.00    +0.000 A 
ATOM     18  C   UNL     1       2.841   4.392  19.615  0.00  0.00    +0.000 A 
ATOM     19  C   UNL     1       2.719   3.065  20.026  0.00  0.00    +0.000 A 
ATOM     20  C   UNL     1       2.556   2.056  19.080  0.00  0.00    +0.000 A 
ATOM     21  C   UNL     1       2.487   2.379  17.726  0.00  0.00    +0.000 A 
ATOM     22  C   UNL     1       2.619   3.707  17.311  0.00  0.00    +0.000 A 
ENDBRANCH  16  17
BRANCH  16  23
ATOM     23  C   UNL     1       2.351   7.267  18.561  0.00  0.00    +0.000 A 
ATOM     24  C   UNL     1       2.159   7.161  19.951  0.00  0.00    +0.000 A 
ATOM     25  C   UNL     1       1.475   8.146  20.669  0.00  0.00    +0.000 A 
ATOM     26  C   UNL     1       0.993   9.277  20.016  0.00  0.00    +0.000 A 
ATOM     27  C   UNL     1       1.221   9.431  18.652  0.00  0.00    +0.000 A 
ATOM     28  C   UNL     1       1.904   8.444  17.933  0.00  0.00    +0.000 A 
ENDBRANCH  16  23
ENDBRANCH   2  16
TORSDOF 8
ENDMDL
MODEL 7
REMARK VINA RESULT:      -8.1      0.944      3.785
REMARK  Name = 
REMARK  9 active torsions:
REMARK  status: ('A' for Active; 'I' for Inactive)
REMARK    1  A    between atoms: C_1  and  O_2
REMARK    2  A    between atoms: O_2  and  C_3
REMARK    3  A    between atoms: C_6  and  O_7
REMARK    4  A    between atoms: O_7  and  C_8
REMARK    5  A    between atoms: C_8  and  C_9
REMARK    6  A    between atoms: C_9  and  N_10
REMARK    7  A    between atoms: C_11  and  C_13
REMARK    8  A    between atoms: C_13  and  C_14
REMARK    9  A    between atoms: C_13  and  C_20
REMARK                            x       y       z     vdW  Elec       q    Type
REMARK                         _______ _______ _______ _____ _____    ______ ____
ROOT
ATOM      1  N   UNL     1       5.330   5.490  18.676  0.00  0.00    +0.000 N 
ATOM      2  C   UNL     1       4.633   6.406  17.907  0.00  0.00    +0.000 C 
ATOM      3  O   UNL     1       5.221   7.276  17.266  0.00  0.00    +0.000 OA
ATOM      4  H   UNL     1       4.834   4.781  19.200  0.00  0.00    +0.000 HD
ENDROOT
BRANCH   1   5
ATOM      5  C   UNL     1       6.782   5.528  18.749  0.00  0.00    +0.000 C 
BRANCH   5   6
ATOM      6  C   UNL     1       7.463   4.607  17.733  0.00  0.00    +0.000 C 
BRANCH   6   7
ATOM      7  O   UNL     1       7.584   5.316  16.495  0.00  0.00    +0.000 OA
BRANCH   7  11
ATOM      8  C   UNL     1       5.826   3.710  13.063  0.00  0.00    +0.000 A 
ATOM      9  C   UNL     1       6.981   4.491  13.011  0.00  0.00    +0.000 A 
ATOM     10  C   UNL     1       7.543   5.003  14.183  0.00  0.00    +0.000 A 
ATOM     11  C   UNL     1       6.937   4.774  15.418  0.00  0.00    +0.000 A 
ATOM     12  C   UNL     1       5.777   4.002  15.472  0.00  0.00    +0.000 A 
ATOM     13  C   UNL     1       5.223   3.470  14.298  0.00  0.00    +0.000 A 
BRANCH   8  15
ATOM     14  C   UNL     1       5.784   1.966  11.466  0.00  0.00    +0.000 C 
ATOM     15  O   UNL     1       5.365   3.269  11.855  0.00  0.00    +0.000 OA
ENDBRANCH   8  15
ENDBRANCH   7  11
ENDBRANCH   6   7
ENDBRANCH   5   6
ENDBRANCH   1   5
BRANCH   2  16
ATOM     16  C   UNL     1       3.088   6.216  17.888  0.00  0.00    +0.000 C 
BRANCH  16  17
ATOM     17  C   UNL     1       2.750   4.821  18.422  0.00  0.00    +0.000 A 
ATOM     18  C   UNL     1       2.402   3.776  17.550  0.00  0.00    +0.000 A 
ATOM     19  C   UNL     1       1.976   2.541  18.042  0.00  0.00    +0.000 A 
ATOM     20  C   UNL     1       1.917   2.324  19.416  0.00  0.00    +0.000 A 
ATOM     21  C   UNL     1       2.309   3.332  20.296  0.00  0.00    +0.000 A 
ATOM     22  C   UNL     1       2.726   4.572  19.805  0.00  0.00    +0.000 A 
ENDBRANCH  16  17
BRANCH  16  23
ATOM     23  C   UNL     1       2.354   7.386  18.560  0.00  0.00    +0.000 A 
ATOM     24  C   UNL     1       1.848   8.449  17.790  0.00  0.00    +0.000 A 
ATOM     25  C   UNL     1       1.186   9.527  18.383  0.00  0.00    +0.000 A 
ATOM     26  C   UNL     1       0.987   9.551  19.761  0.00  0.00    +0.000 A 
ATOM     27  C   UNL     1       1.429   8.483  20.536  0.00  0.00    +0.000 A 
ATOM     28  C   UNL     1       2.094   7.405  19.942  0.00  0.00    +0.000 A 
ENDBRANCH  16  23
ENDBRANCH   2  16
TORSDOF 8
ENDMDL
MODEL 8
REMARK VINA RESULT:      -8.0      3.863      8.479
REMARK  Name = 
REMARK  9 active torsions:
REMARK  status: ('A' for Active; 'I' for Inactive)
REMARK    1  A    between atoms: C_1  and  O_2
REMARK    2  A    between atoms: O_2  and  C_3
REMARK    3  A    between atoms: C_6  and  O_7
REMARK    4  A    between atoms: O_7  and  C_8
REMARK    5  A    between atoms: C_8  and  C_9
REMARK    6  A    between atoms: C_9  and  N_10
REMARK    7  A    between atoms: C_11  and  C_13
REMARK    8  A    between atoms: C_13  and  C_14
REMARK    9  A    between atoms: C_13  and  C_20
REMARK                            x       y       z     vdW  Elec       q    Type
REMARK                         _______ _______ _______ _____ _____    ______ ____
ROOT
ATOM      1  N   UNL     1       2.334   8.422  17.638  0.00  0.00    +0.000 N 
ATOM      2  C   UNL     1       2.597   7.404  18.539  0.00  0.00    +0.000 C 
ATOM      3  O   UNL     1       2.320   7.524  19.731  0.00  0.00    +0.000 OA
ATOM      4  H   UNL     1       2.568   8.311  16.660  0.00  0.00    +0.000 HD
ENDROOT
BRANCH   1   5
ATOM      5  C   UNL     1       1.720   9.666  18.075  0.00  0.00    +0.000 C 
BRANCH   5   6
ATOM      6  C   UNL     1       0.195   9.667  17.943  0.00  0.00    +0.000 C 
BRANCH   6   7
ATOM      7  O   UNL     1      -0.313  10.824  18.616  0.00  0.00    +0.000 OA
BRANCH   7  11
ATOM      8  C   UNL     1      -4.399  11.682  18.505  0.00  0.00    +0.000 A 
ATOM      9  C   UNL     1      -3.538  12.284  19.422  0.00  0.00    +0.000 A 
ATOM     10  C   UNL     1      -2.175  11.977  19.422  0.00  0.00    +0.000 A 
ATOM     11  C   UNL     1      -1.662  11.034  18.531  0.00  0.00    +0.000 A 
ATOM     12  C   UNL     1      -2.523  10.423  17.620  0.00  0.00    +0.000 A 
ATOM     13  C   UNL     1      -3.888  10.746  17.606  0.00  0.00    +0.000 A 
BRANCH   8  15
ATOM     14  C   UNL     1      -6.317  12.521  17.403  0.00  0.00    +0.000 C 
ATOM     15  O   UNL     1      -5.710  12.056  18.603  0.00  0.00    +0.000 OA
ENDBRANCH   8  15
ENDBRANCH   7  11
ENDBRANCH   6   7
ENDBRANCH   5   6
ENDBRANCH   1   5
BRANCH   2  16
ATOM     16  C   UNL     1       3.212   6.114  17.921  0.00  0.00    +0.000 C 
BRANCH  16  17
ATOM     17  C   UNL     1       4.731   6.141  18.122  0.00  0.00    +0.000 A 
ATOM     18  C   UNL     1       5.569   6.815  17.217  0.00  0.00    +0.000 A 
ATOM     19  C   UNL     1       6.957   6.738  17.330  0.00  0.00    +0.000 A 
ATOM     20  C   UNL     1       7.531   6.005  18.365  0.00  0.00    +0.000 A 
ATOM     21  C   UNL     1       6.715   5.374  19.303  0.00  0.00    +0.000 A 
ATOM     22  C   UNL     1       5.325   5.442  19.186  0.00  0.00    +0.000 A 
ENDBRANCH  16  17
BRANCH  16  23
ATOM     23  C   UNL     1       2.496   4.845  18.406  0.00  0.00    +0.000 A 
ATOM     24  C   UNL     1       2.537   3.666  17.640  0.00  0.00    +0.000 A 
ATOM     25  C   UNL     1       1.884   2.503  18.059  0.00  0.00    +0.000 A 
ATOM     26  C   UNL     1       1.202   2.484  19.272  0.00  0.00    +0.000 A 
ATOM     27  C   UNL     1       1.196   3.622  20.073  0.00  0.00    +0.000 A 
ATOM     28  C   UNL     1       1.848   4.787  19.653  0.00  0.00    +0.000 A 
ENDBRANCH  16  23
ENDBRANCH   2  16
TORSDOF 8
ENDMDL
MODEL 9
REMARK VINA RESULT:      -8.0      3.844      8.327
REMARK  Name = 
REMARK  9 active torsions:
REMARK  status: ('A' for Active; 'I' for Inactive)
REMARK    1  A    between atoms: C_1  and  O_2
REMARK    2  A    between atoms: O_2  and  C_3
REMARK    3  A    between atoms: C_6  and  O_7
REMARK    4  A    between atoms: O_7  and  C_8
REMARK    5  A    between atoms: C_8  and  C_9
REMARK    6  A    between atoms: C_9  and  N_10
REMARK    7  A    between atoms: C_11  and  C_13
REMARK    8  A    between atoms: C_13  and  C_14
REMARK    9  A    between atoms: C_13  and  C_20
REMARK                            x       y       z     vdW  Elec       q    Type
REMARK                         _______ _______ _______ _____ _____    ______ ____
ROOT
ATOM      1  N   UNL     1       2.221   8.482  17.636  0.00  0.00    +0.000 N 
ATOM      2  C   UNL     1       2.508   7.522  18.591  0.00  0.00    +0.000 C 
ATOM      3  O   UNL     1       2.406   7.771  19.792  0.00  0.00    +0.000 OA
ATOM      4  H   UNL     1       2.310   8.264  16.652  0.00  0.00    +0.000 HD
ENDROOT
BRANCH   1   5
ATOM      5  C   UNL     1       1.791   9.816  18.023  0.00  0.00    +0.000 C 
BRANCH   5   6
ATOM      6  C   UNL     1       0.393   9.843  18.647  0.00  0.00    +0.000 C 
BRANCH   6   7
ATOM      7  O   UNL     1      -0.571   9.803  17.590  0.00  0.00    +0.000 OA
BRANCH   7  11
ATOM      8  C   UNL     1      -4.341  11.493  18.204  0.00  0.00    +0.000 A 
ATOM      9  C   UNL     1      -4.124  10.477  17.272  0.00  0.00    +0.000 A 
ATOM     10  C   UNL     1      -2.850   9.932  17.102  0.00  0.00    +0.000 A 
ATOM     11  C   UNL     1      -1.767  10.421  17.833  0.00  0.00    +0.000 A 
ATOM     12  C   UNL     1      -1.979  11.443  18.758  0.00  0.00    +0.000 A 
ATOM     13  C   UNL     1      -3.263  11.978  18.944  0.00  0.00    +0.000 A 
BRANCH   8  15
ATOM     14  C   UNL     1      -6.085  12.704  17.161  0.00  0.00    +0.000 C 
ATOM     15  O   UNL     1      -5.626  11.952  18.279  0.00  0.00    +0.000 OA
ENDBRANCH   8  15
ENDBRANCH   7  11
ENDBRANCH   6   7
ENDBRANCH   5   6
ENDBRANCH   1   5
BRANCH   2  16
ATOM     16  C   UNL     1       2.911   6.127  18.031  0.00  0.00    +0.000 C 
BRANCH  16  17
ATOM     17  C   UNL     1       4.440   6.019  18.014  0.00  0.00    +0.000 A 
ATOM     18  C   UNL     1       5.225   6.975  17.348  0.00  0.00    +0.000 A 
ATOM     19  C   UNL     1       6.606   6.812  17.229  0.00  0.00    +0.000 A 
ATOM     20  C   UNL     1       7.226   5.702  17.794  0.00  0.00    +0.000 A 
ATOM     21  C   UNL     1       6.470   4.770  18.504  0.00  0.00    +0.000 A 
ATOM     22  C   UNL     1       5.086   4.927  18.616  0.00  0.00    +0.000 A 
ENDBRANCH  16  17
BRANCH  16  23
ATOM     23  C   UNL     1       2.168   4.984  18.738  0.00  0.00    +0.000 A 
ATOM     24  C   UNL     1       1.642   3.909  17.998  0.00  0.00    +0.000 A 
ATOM     25  C   UNL     1       0.955   2.864  18.622  0.00  0.00    +0.000 A 
ATOM     26  C   UNL     1       0.805   2.855  20.006  0.00  0.00    +0.000 A 
ATOM     27  C   UNL     1       1.366   3.879  20.763  0.00  0.00    +0.000 A 
ATOM     28  C   UNL     1       2.052   4.926  20.138  0.00  0.00    +0.000 A 
ENDBRANCH  16  23
ENDBRANCH   2  16
TORSDOF 8
ENDMDL
