MODEL 1
REMARK VINA RESULT:      -7.8      0.000      0.000
REMARK  Name = 
REMARK  5 active torsions:
REMARK  status: ('A' for Active; 'I' for Inactive)
REMARK    1  A    between atoms: C_1  and  C_2
REMARK    2  A    between atoms: C_2  and  O_3
REMARK    3  A    between atoms: O_3  and  C_4
REMARK    4  A    between atoms: C_4  and  C_6
REMARK    5  A    between atoms: C_16  and  C_17
REMARK                            x       y       z     vdW  Elec       q    Type
REMARK                         _______ _______ _______ _____ _____    ______ ____
ROOT
ATOM      1  C   UNL     1       0.119  12.508  21.269  0.00  0.00    +0.000 C 
ATOM      2  C   UNL     1      -0.003  11.066  20.751  0.00  0.00    +0.000 C 
ATOM      3  C   UNL     1       0.451  10.076  21.847  0.00  0.00    +0.000 C 
ATOM      4  O   UNL     1       0.323  10.275  23.052  0.00  0.00    +0.000 OA
ATOM      5  C   UNL     1       1.056   8.783  21.449  0.00  0.00    +0.000 C 
ATOM      6  C   UNL     1       1.505   8.571  20.207  0.00  0.00    +0.000 C 
ATOM      7  C   UNL     1       2.069   7.280  19.845  0.00  0.00    +0.000 C 
ATOM      8  C   UNL     1       2.471   7.065  18.576  0.00  0.00    +0.000 C 
ATOM      9  O   UNL     1       2.431   8.084  17.612  0.00  0.00    +0.000 OA
ATOM     10  C   UNL     1       1.919   9.322  17.973  0.00  0.00    +0.000 C 
ATOM     11  C   UNL     1       1.451   9.608  19.197  0.00  0.00    +0.000 C 
ATOM     12  C   UNL     1       0.877  10.949  19.499  0.00  0.00    +0.000 C 
ATOM     13  O   UNL     1       1.065  11.885  18.719  0.00  0.00    +0.000 OA
ENDROOT
BRANCH   8  14
ATOM     14  C   UNL     1       2.920   5.792  18.083  0.00  0.00    +0.000 A 
ATOM     15  C   UNL     1       4.244   5.514  17.608  0.00  0.00    +0.000 A 
ATOM     16  C   UNL     1       4.401   4.204  17.216  0.00  0.00    +0.000 A 
ATOM     17  S   UNL     1       2.965   3.301  17.416  0.00  0.00    +0.000 S 
ATOM     18  C   UNL     1       2.130   4.660  18.039  0.00  0.00    +0.000 A 
ENDBRANCH   8  14
BRANCH   2  19
ATOM     19  O   UNL     1      -1.334  10.796  20.223  0.00  0.00    +0.000 OA
BRANCH  19  20
ATOM     20  C   UNL     1      -1.901  11.735  19.409  0.00  0.00    +0.000 C 
ATOM     21  O   UNL     1      -1.977  12.918  19.691  0.00  0.00    +0.000 OA
BRANCH  20  22
ATOM     22  C   UNL     1      -2.382  11.136  18.175  0.00  0.00    +0.000 A 
ATOM     23  C   UNL     1      -1.791  10.244  17.300  0.00  0.00    +0.000 A 
ATOM     24  C   UNL     1      -2.643   9.914  16.199  0.00  0.00    +0.000 A 
ATOM     25  C   UNL     1      -3.851  10.570  16.260  0.00  0.00    +0.000 A 
ATOM     26  S   UNL     1      -3.958  11.574  17.634  0.00  0.00    +0.000 S 
ENDBRANCH  20  22
ENDBRANCH  19  20
ENDBRANCH   2  19
TORSDOF 4
ENDMDL
MODEL 2
REMARK VINA RESULT:      -7.8      1.646      1.954
REMARK  Name = 
REMARK  5 active torsions:
REMARK  status: ('A' for Active; 'I' for Inactive)
REMARK    1  A    between atoms: C_1  and  C_2
REMARK    2  A    between atoms: C_2  and  O_3
REMARK    3  A    between atoms: O_3  and  C_4
REMARK    4  A    between atoms: C_4  and  C_6
REMARK    5  A    between atoms: C_16  and  C_17
REMARK                            x       y       z     vdW  Elec       q    Type
REMARK                         _______ _______ _______ _____ _____    ______ ____
ROOT
ATOM      1  C   UNL     1       0.776  12.174  19.229  0.00  0.00    +0.000 C 
ATOM      2  C   UNL     1       0.490  10.681  19.455  0.00  0.00    +0.000 C 
ATOM      3  C   UNL     1       0.687  10.331  20.947  0.00  0.00    +0.000 C 
ATOM      4  O   UNL     1       0.478  11.111  21.872  0.00  0.00    +0.000 OA
ATOM      5  C   UNL     1       1.127   8.966  21.318  0.00  0.00    +0.000 C 
ATOM      6  C   UNL     1       1.654   8.129  20.416  0.00  0.00    +0.000 C 
ATOM      7  C   UNL     1       2.051   6.786  20.812  0.00  0.00    +0.000 C 
ATOM      8  C   UNL     1       2.534   5.938  19.881  0.00  0.00    +0.000 C 
ATOM      9  O   UNL     1       2.736   6.344  18.553  0.00  0.00    +0.000 OA
ATOM     10  C   UNL     1       2.383   7.636  18.191  0.00  0.00    +0.000 C 
ATOM     11  C   UNL     1       1.850   8.530  19.038  0.00  0.00    +0.000 C 
ATOM     12  C   UNL     1       1.457   9.887  18.566  0.00  0.00    +0.000 C 
ATOM     13  O   UNL     1       1.854  10.293  17.473  0.00  0.00    +0.000 OA
ENDROOT
BRANCH   8  14
ATOM     14  C   UNL     1       2.832   4.555  20.136  0.00  0.00    +0.000 A 
ATOM     15  C   UNL     1       2.247   3.766  21.180  0.00  0.00    +0.000 A 
ATOM     16  C   UNL     1       2.700   2.466  21.177  0.00  0.00    +0.000 A 
ATOM     17  S   UNL     1       3.826   2.184  19.924  0.00  0.00    +0.000 S 
ATOM     18  C   UNL     1       3.703   3.802  19.374  0.00  0.00    +0.000 A 
ENDBRANCH   8  14
BRANCH   2  19
ATOM     19  O   UNL     1      -0.810  10.298  18.923  0.00  0.00    +0.000 OA
BRANCH  19  20
ATOM     20  C   UNL     1      -1.831  11.201  19.017  0.00  0.00    +0.000 C 
ATOM     21  O   UNL     1      -2.003  11.930  19.979  0.00  0.00    +0.000 OA
BRANCH  20  22
ATOM     22  C   UNL     1      -2.662  11.179  17.825  0.00  0.00    +0.000 A 
ATOM     23  C   UNL     1      -2.361  10.899  16.505  0.00  0.00    +0.000 A 
ATOM     24  C   UNL     1      -3.506  10.993  15.652  0.00  0.00    +0.000 A 
ATOM     25  C   UNL     1      -4.641  11.351  16.343  0.00  0.00    +0.000 A 
ATOM     26  S   UNL     1      -4.330  11.570  18.004  0.00  0.00    +0.000 S 
ENDBRANCH  20  22
ENDBRANCH  19  20
ENDBRANCH   2  19
TORSDOF 4
ENDMDL
MODEL 3
REMARK VINA RESULT:      -7.6      2.532      3.967
REMARK  Name = 
REMARK  5 active torsions:
REMARK  status: ('A' for Active; 'I' for Inactive)
REMARK    1  A    between atoms: C_1  and  C_2
REMARK    2  A    between atoms: C_2  and  O_3
REMARK    3  A    between atoms: O_3  and  C_4
REMARK    4  A    between atoms: C_4  and  C_6
REMARK    5  A    between atoms: C_16  and  C_17
REMARK                            x       y       z     vdW  Elec       q    Type
REMARK                         _______ _______ _______ _____ _____    ______ ____
ROOT
ATOM      1  C   UNL     1      -1.204  11.925  21.208  0.00  0.00    +0.000 C 
ATOM      2  C   UNL     1       0.105  11.412  20.589  0.00  0.00    +0.000 C 
ATOM      3  C   UNL     1       0.017  11.479  19.048  0.00  0.00    +0.000 C 
ATOM      4  O   UNL     1      -0.629  12.322  18.430  0.00  0.00    +0.000 OA
ATOM      5  C   UNL     1       0.772  10.496  18.236  0.00  0.00    +0.000 C 
ATOM      6  C   UNL     1       1.271   9.377  18.774  0.00  0.00    +0.000 C 
ATOM      7  C   UNL     1       2.030   8.448  17.951  0.00  0.00    +0.000 C 
ATOM      8  C   UNL     1       2.569   7.349  18.518  0.00  0.00    +0.000 C 
ATOM      9  O   UNL     1       2.350   7.040  19.869  0.00  0.00    +0.000 OA
ATOM     10  C   UNL     1       1.599   7.916  20.640  0.00  0.00    +0.000 C 
ATOM     11  C   UNL     1       1.069   9.056  20.172  0.00  0.00    +0.000 C 
ATOM     12  C   UNL     1       0.309   9.969  21.070  0.00  0.00    +0.000 C 
ATOM     13  O   UNL     1      -0.065   9.569  22.174  0.00  0.00    +0.000 OA
ENDROOT
BRANCH   8  14
ATOM     14  C   UNL     1       3.441   6.438  17.830  0.00  0.00    +0.000 A 
ATOM     15  C   UNL     1       3.262   5.017  17.768  0.00  0.00    +0.000 A 
ATOM     16  C   UNL     1       4.236   4.393  17.020  0.00  0.00    +0.000 A 
ATOM     17  S   UNL     1       5.368   5.507  16.390  0.00  0.00    +0.000 S 
ATOM     18  C   UNL     1       4.550   6.830  17.107  0.00  0.00    +0.000 A 
ENDBRANCH   8  14
BRANCH   2  19
ATOM     19  O   UNL     1       1.266  12.094  21.147  0.00  0.00    +0.000 OA
BRANCH  19  20
ATOM     20  C   UNL     1       1.203  13.451  21.287  0.00  0.00    +0.000 C 
ATOM     21  O   UNL     1       0.716  14.009  22.255  0.00  0.00    +0.000 OA
BRANCH  20  22
ATOM     22  C   UNL     1       1.797  14.125  20.145  0.00  0.00    +0.000 A 
ATOM     23  C   UNL     1       2.857  13.777  19.328  0.00  0.00    +0.000 A 
ATOM     24  C   UNL     1       3.100  14.747  18.305  0.00  0.00    +0.000 A 
ATOM     25  C   UNL     1       2.227  15.809  18.378  0.00  0.00    +0.000 A 
ATOM     26  S   UNL     1       1.125  15.637  19.667  0.00  0.00    +0.000 S 
ENDBRANCH  20  22
ENDBRANCH  19  20
ENDBRANCH   2  19
TORSDOF 4
ENDMDL
MODEL 4
REMARK VINA RESULT:      -7.6      2.689      4.099
REMARK  Name = 
REMARK  5 active torsions:
REMARK  status: ('A' for Active; 'I' for Inactive)
REMARK    1  A    between atoms: C_1  and  C_2
REMARK    2  A    between atoms: C_2  and  O_3
REMARK    3  A    between atoms: O_3  and  C_4
REMARK    4  A    between atoms: C_4  and  C_6
REMARK    5  A    between atoms: C_16  and  C_17
REMARK                            x       y       z     vdW  Elec       q    Type
REMARK                         _______ _______ _______ _____ _____    ______ ____
ROOT
ATOM      1  C   UNL     1      -0.727  12.705  21.330  0.00  0.00    +0.000 C 
ATOM      2  C   UNL     1       0.461  11.983  20.675  0.00  0.00    +0.000 C 
ATOM      3  C   UNL     1       0.264  11.935  19.143  0.00  0.00    +0.000 C 
ATOM      4  O   UNL     1      -0.323  12.799  18.495  0.00  0.00    +0.000 OA
ATOM      5  C   UNL     1       0.832  10.802  18.375  0.00  0.00    +0.000 C 
ATOM      6  C   UNL     1       1.233   9.677  18.977  0.00  0.00    +0.000 C 
ATOM      7  C   UNL     1       1.811   8.596  18.193  0.00  0.00    +0.000 C 
ATOM      8  C   UNL     1       2.257   7.489  18.820  0.00  0.00    +0.000 C 
ATOM      9  O   UNL     1       2.107   7.320  20.205  0.00  0.00    +0.000 OA
ATOM     10  C   UNL     1       1.528   8.343  20.941  0.00  0.00    +0.000 C 
ATOM     11  C   UNL     1       1.102   9.499  20.408  0.00  0.00    +0.000 C 
ATOM     12  C   UNL     1       0.528  10.570  21.269  0.00  0.00    +0.000 C 
ATOM     13  O   UNL     1       0.195  10.311  22.427  0.00  0.00    +0.000 OA
ENDROOT
BRANCH   8  14
ATOM     14  C   UNL     1       2.958   6.422  18.160  0.00  0.00    +0.000 A 
ATOM     15  C   UNL     1       4.181   6.572  17.427  0.00  0.00    +0.000 A 
ATOM     16  C   UNL     1       4.643   5.378  16.919  0.00  0.00    +0.000 A 
ATOM     17  S   UNL     1       3.615   4.074  17.318  0.00  0.00    +0.000 S 
ATOM     18  C   UNL     1       2.553   5.103  18.183  0.00  0.00    +0.000 A 
ENDBRANCH   8  14
BRANCH   2  19
ATOM     19  O   UNL     1       1.734  12.557  21.090  0.00  0.00    +0.000 OA
BRANCH  19  20
ATOM     20  C   UNL     1       1.812  13.915  21.216  0.00  0.00    +0.000 C 
ATOM     21  O   UNL     1       1.531  14.517  22.238  0.00  0.00    +0.000 OA
BRANCH  20  22
ATOM     22  C   UNL     1       2.277  14.530  19.985  0.00  0.00    +0.000 A 
ATOM     23  C   UNL     1       3.187  14.102  19.035  0.00  0.00    +0.000 A 
ATOM     24  C   UNL     1       3.340  15.038  17.964  0.00  0.00    +0.000 A 
ATOM     25  C   UNL     1       2.552  16.154  18.132  0.00  0.00    +0.000 A 
ATOM     26  S   UNL     1       1.636  16.074  19.567  0.00  0.00    +0.000 S 
ENDBRANCH  20  22
ENDBRANCH  19  20
ENDBRANCH   2  19
TORSDOF 4
ENDMDL
MODEL 5
REMARK VINA RESULT:      -7.5      1.670      2.363
REMARK  Name = 
REMARK  5 active torsions:
REMARK  status: ('A' for Active; 'I' for Inactive)
REMARK    1  A    between atoms: C_1  and  C_2
REMARK    2  A    between atoms: C_2  and  O_3
REMARK    3  A    between atoms: O_3  and  C_4
REMARK    4  A    between atoms: C_4  and  C_6
REMARK    5  A    between atoms: C_16  and  C_17
REMARK                            x       y       z     vdW  Elec       q    Type
REMARK                         _______ _______ _______ _____ _____    ______ ____
ROOT
ATOM      1  C   UNL     1       0.961  12.277  20.099  0.00  0.00    +0.000 C 
ATOM      2  C   UNL     1       0.545  10.803  19.966  0.00  0.00    +0.000 C 
ATOM      3  C   UNL     1       0.619  10.113  21.346  0.00  0.00    +0.000 C 
ATOM      4  O   UNL     1       0.414  10.683  22.415  0.00  0.00    +0.000 OA
ATOM      5  C   UNL     1       0.927   8.665  21.416  0.00  0.00    +0.000 C 
ATOM      6  C   UNL     1       1.443   8.006  20.372  0.00  0.00    +0.000 C 
ATOM      7  C   UNL     1       1.707   6.579  20.468  0.00  0.00    +0.000 C 
ATOM      8  C   UNL     1       2.180   5.919  19.391  0.00  0.00    +0.000 C 
ATOM      9  O   UNL     1       2.497   6.591  18.201  0.00  0.00    +0.000 OA
ATOM     10  C   UNL     1       2.269   7.957  18.127  0.00  0.00    +0.000 C 
ATOM     11  C   UNL     1       1.756   8.684  19.131  0.00  0.00    +0.000 C 
ATOM     12  C   UNL     1       1.500  10.142  18.963  0.00  0.00    +0.000 C 
ATOM     13  O   UNL     1       1.997  10.744  18.010  0.00  0.00    +0.000 OA
ENDROOT
BRANCH   8  14
ATOM     14  C   UNL     1       2.353   4.493  19.337  0.00  0.00    +0.000 A 
ATOM     15  C   UNL     1       1.324   3.530  19.599  0.00  0.00    +0.000 A 
ATOM     16  C   UNL     1       1.765   2.233  19.452  0.00  0.00    +0.000 A 
ATOM     17  S   UNL     1       3.410   2.165  19.000  0.00  0.00    +0.000 S 
ATOM     18  C   UNL     1       3.536   3.873  18.989  0.00  0.00    +0.000 A 
ENDBRANCH   8  14
BRANCH   2  19
ATOM     19  O   UNL     1      -0.745  10.667  19.305  0.00  0.00    +0.000 OA
BRANCH  19  20
ATOM     20  C   UNL     1      -1.328  11.796  18.801  0.00  0.00    +0.000 C 
ATOM     21  O   UNL     1      -0.889  12.416  17.848  0.00  0.00    +0.000 OA
BRANCH  20  22
ATOM     22  C   UNL     1      -2.529  12.141  19.542  0.00  0.00    +0.000 A 
ATOM     23  C   UNL     1      -2.702  12.686  20.801  0.00  0.00    +0.000 A 
ATOM     24  C   UNL     1      -4.082  12.867  21.133  0.00  0.00    +0.000 A 
ATOM     25  C   UNL     1      -4.919  12.447  20.125  0.00  0.00    +0.000 A 
ATOM     26  S   UNL     1      -4.049  11.842  18.789  0.00  0.00    +0.000 S 
ENDBRANCH  20  22
ENDBRANCH  19  20
ENDBRANCH   2  19
TORSDOF 4
ENDMDL
MODEL 6
REMARK VINA RESULT:      -7.4      1.958      2.566
REMARK  Name = 
REMARK  5 active torsions:
REMARK  status: ('A' for Active; 'I' for Inactive)
REMARK    1  A    between atoms: C_1  and  C_2
REMARK    2  A    between atoms: C_2  and  O_3
REMARK    3  A    between atoms: O_3  and  C_4
REMARK    4  A    between atoms: C_4  and  C_6
REMARK    5  A    between atoms: C_16  and  C_17
REMARK                            x       y       z     vdW  Elec       q    Type
REMARK                         _______ _______ _______ _____ _____    ______ ____
ROOT
ATOM      1  C   UNL     1       0.335  12.665  20.642  0.00  0.00    +0.000 C 
ATOM      2  C   UNL     1      -0.002  11.172  20.504  0.00  0.00    +0.000 C 
ATOM      3  C   UNL     1      -0.006  10.506  21.898  0.00  0.00    +0.000 C 
ATOM      4  O   UNL     1      -0.322  11.081  22.937  0.00  0.00    +0.000 OA
ATOM      5  C   UNL     1       0.361   9.076  22.018  0.00  0.00    +0.000 C 
ATOM      6  C   UNL     1       0.988   8.426  21.031  0.00  0.00    +0.000 C 
ATOM      7  C   UNL     1       1.309   7.015  21.174  0.00  0.00    +0.000 C 
ATOM      8  C   UNL     1       1.896   6.362  20.150  0.00  0.00    +0.000 C 
ATOM      9  O   UNL     1       2.275   7.031  18.976  0.00  0.00    +0.000 OA
ATOM     10  C   UNL     1       1.992   8.384  18.860  0.00  0.00    +0.000 C 
ATOM     11  C   UNL     1       1.367   9.100  19.806  0.00  0.00    +0.000 C 
ATOM     12  C   UNL     1       1.060  10.542  19.592  0.00  0.00    +0.000 C 
ATOM     13  O   UNL     1       1.603  11.153  18.670  0.00  0.00    +0.000 OA
ENDROOT
BRANCH   8  14
ATOM     14  C   UNL     1       2.137   4.946  20.136  0.00  0.00    +0.000 A 
ATOM     15  C   UNL     1       1.173   3.943  20.485  0.00  0.00    +0.000 A 
ATOM     16  C   UNL     1       1.670   2.665  20.360  0.00  0.00    +0.000 A 
ATOM     17  S   UNL     1       3.292   2.660  19.823  0.00  0.00    +0.000 S 
ATOM     18  C   UNL     1       3.331   4.371  19.746  0.00  0.00    +0.000 A 
ENDBRANCH   8  14
BRANCH   2  19
ATOM     19  O   UNL     1      -1.228  10.966  19.745  0.00  0.00    +0.000 OA
BRANCH  19  20
ATOM     20  C   UNL     1      -1.819  12.058  19.177  0.00  0.00    +0.000 C 
ATOM     21  O   UNL     1      -1.296  12.737  18.310  0.00  0.00    +0.000 OA
BRANCH  20  22
ATOM     22  C   UNL     1      -3.141  12.288  19.734  0.00  0.00    +0.000 A 
ATOM     23  C   UNL     1      -4.404  12.109  19.199  0.00  0.00    +0.000 A 
ATOM     24  C   UNL     1      -5.442  12.463  20.117  0.00  0.00    +0.000 A 
ATOM     25  C   UNL     1      -4.943  12.909  21.320  0.00  0.00    +0.000 A 
ATOM     26  S   UNL     1      -3.239  12.900  21.342  0.00  0.00    +0.000 S 
ENDBRANCH  20  22
ENDBRANCH  19  20
ENDBRANCH   2  19
TORSDOF 4
ENDMDL
MODEL 7
REMARK VINA RESULT:      -7.4      2.645      7.970
REMARK  Name = 
REMARK  5 active torsions:
REMARK  status: ('A' for Active; 'I' for Inactive)
REMARK    1  A    between atoms: C_1  and  C_2
REMARK    2  A    between atoms: C_2  and  O_3
REMARK    3  A    between atoms: O_3  and  C_4
REMARK    4  A    between atoms: C_4  and  C_6
REMARK    5  A    between atoms: C_16  and  C_17
REMARK                            x       y       z     vdW  Elec       q    Type
REMARK                         _______ _______ _______ _____ _____    ______ ____
ROOT
ATOM      1  C   UNL     1       5.640   4.550  18.262  0.00  0.00    +0.000 C 
ATOM      2  C   UNL     1       4.327   5.253  17.882  0.00  0.00    +0.000 C 
ATOM      3  C   UNL     1       4.599   6.317  16.795  0.00  0.00    +0.000 C 
ATOM      4  O   UNL     1       5.478   6.223  15.942  0.00  0.00    +0.000 OA
ATOM      5  C   UNL     1       3.744   7.525  16.734  0.00  0.00    +0.000 C 
ATOM      6  C   UNL     1       2.956   7.880  17.756  0.00  0.00    +0.000 C 
ATOM      7  C   UNL     1       2.110   9.058  17.649  0.00  0.00    +0.000 C 
ATOM      8  C   UNL     1       1.285   9.375  18.668  0.00  0.00    +0.000 C 
ATOM      9  O   UNL     1       1.279   8.638  19.863  0.00  0.00    +0.000 OA
ATOM     10  C   UNL     1       2.111   7.533  19.967  0.00  0.00    +0.000 C 
ATOM     11  C   UNL     1       2.926   7.117  18.987  0.00  0.00    +0.000 C 
ATOM     12  C   UNL     1       3.762   5.895  19.156  0.00  0.00    +0.000 C 
ATOM     13  O   UNL     1       3.913   5.410  20.279  0.00  0.00    +0.000 OA
ENDROOT
BRANCH   8  14
ATOM     14  C   UNL     1       0.317  10.436  18.616  0.00  0.00    +0.000 A 
ATOM     15  C   UNL     1      -1.036  10.294  18.166  0.00  0.00    +0.000 A 
ATOM     16  C   UNL     1      -1.746  11.471  18.244  0.00  0.00    +0.000 A 
ATOM     17  S   UNL     1      -0.796  12.751  18.858  0.00  0.00    +0.000 S 
ATOM     18  C   UNL     1       0.568  11.729  19.032  0.00  0.00    +0.000 A 
ENDBRANCH   8  14
BRANCH   2  19
ATOM     19  O   UNL     1       3.289   4.296  17.527  0.00  0.00    +0.000 OA
BRANCH  19  20
ATOM     20  C   UNL     1       3.415   3.016  17.987  0.00  0.00    +0.000 C 
ATOM     21  O   UNL     1       3.970   2.126  17.365  0.00  0.00    +0.000 OA
BRANCH  20  22
ATOM     22  C   UNL     1       2.816   2.869  19.302  0.00  0.00    +0.000 A 
ATOM     23  C   UNL     1       3.340   2.420  20.501  0.00  0.00    +0.000 A 
ATOM     24  C   UNL     1       2.379   2.448  21.560  0.00  0.00    +0.000 A 
ATOM     25  C   UNL     1       1.152   2.906  21.139  0.00  0.00    +0.000 A 
ATOM     26  S   UNL     1       1.158   3.300  19.480  0.00  0.00    +0.000 S 
ENDBRANCH  20  22
ENDBRANCH  19  20
ENDBRANCH   2  19
TORSDOF 4
ENDMDL
MODEL 8
REMARK VINA RESULT:      -7.4      1.710      2.060
REMARK  Name = 
REMARK  5 active torsions:
REMARK  status: ('A' for Active; 'I' for Inactive)
REMARK    1  A    between atoms: C_1  and  C_2
REMARK    2  A    between atoms: C_2  and  O_3
REMARK    3  A    between atoms: O_3  and  C_4
REMARK    4  A    between atoms: C_4  and  C_6
REMARK    5  A    between atoms: C_16  and  C_17
REMARK                            x       y       z     vdW  Elec       q    Type
REMARK                         _______ _______ _______ _____ _____    ______ ____
ROOT
ATOM      1  C   UNL     1       1.019  12.463  19.373  0.00  0.00    +0.000 C 
ATOM      2  C   UNL     1       0.555  11.005  19.513  0.00  0.00    +0.000 C 
ATOM      3  C   UNL     1       0.563  10.595  21.003  0.00  0.00    +0.000 C 
ATOM      4  O   UNL     1       0.346  11.368  21.933  0.00  0.00    +0.000 OA
ATOM      5  C   UNL     1       0.816   9.180  21.363  0.00  0.00    +0.000 C 
ATOM      6  C   UNL     1       1.339   8.315  20.486  0.00  0.00    +0.000 C 
ATOM      7  C   UNL     1       1.548   6.927  20.867  0.00  0.00    +0.000 C 
ATOM      8  C   UNL     1       2.029   6.056  19.956  0.00  0.00    +0.000 C 
ATOM      9  O   UNL     1       2.405   6.474  18.670  0.00  0.00    +0.000 OA
ATOM     10  C   UNL     1       2.230   7.806  18.325  0.00  0.00    +0.000 C 
ATOM     11  C   UNL     1       1.713   8.729  19.149  0.00  0.00    +0.000 C 
ATOM     12  C   UNL     1       1.515  10.134  18.693  0.00  0.00    +0.000 C 
ATOM     13  O   UNL     1       2.061  10.523  17.659  0.00  0.00    +0.000 OA
ENDROOT
BRANCH   8  14
ATOM     14  C   UNL     1       2.152   4.643  20.186  0.00  0.00    +0.000 A 
ATOM     15  C   UNL     1       2.170   3.641  19.160  0.00  0.00    +0.000 A 
ATOM     16  C   UNL     1       2.321   2.369  19.666  0.00  0.00    +0.000 A 
ATOM     17  S   UNL     1       2.443   2.370  21.369  0.00  0.00    +0.000 S 
ATOM     18  C   UNL     1       2.305   4.076  21.435  0.00  0.00    +0.000 A 
ENDBRANCH   8  14
BRANCH   2  19
ATOM     19  O   UNL     1      -0.719  10.781  18.844  0.00  0.00    +0.000 OA
BRANCH  19  20
ATOM     20  C   UNL     1      -1.731  11.668  19.082  0.00  0.00    +0.000 C 
ATOM     21  O   UNL     1      -1.707  12.498  19.974  0.00  0.00    +0.000 OA
BRANCH  20  22
ATOM     22  C   UNL     1      -2.816  11.493  18.131  0.00  0.00    +0.000 A 
ATOM     23  C   UNL     1      -4.173  11.737  18.237  0.00  0.00    +0.000 A 
ATOM     24  C   UNL     1      -4.880  11.421  17.035  0.00  0.00    +0.000 A 
ATOM     25  C   UNL     1      -4.046  10.937  16.053  0.00  0.00    +0.000 A 
ATOM     26  S   UNL     1      -2.425  10.866  16.575  0.00  0.00    +0.000 S 
ENDBRANCH  20  22
ENDBRANCH  19  20
ENDBRANCH   2  19
TORSDOF 4
ENDMDL
MODEL 9
REMARK VINA RESULT:      -7.3      2.531      7.903
REMARK  Name = 
REMARK  5 active torsions:
REMARK  status: ('A' for Active; 'I' for Inactive)
REMARK    1  A    between atoms: C_1  and  C_2
REMARK    2  A    between atoms: C_2  and  O_3
REMARK    3  A    between atoms: O_3  and  C_4
REMARK    4  A    between atoms: C_4  and  C_6
REMARK    5  A    between atoms: C_16  and  C_17
REMARK                            x       y       z     vdW  Elec       q    Type
REMARK                         _______ _______ _______ _____ _____    ______ ____
ROOT
ATOM      1  C   UNL     1       5.346   4.730  18.337  0.00  0.00    +0.000 C 
ATOM      2  C   UNL     1       4.040   5.455  17.975  0.00  0.00    +0.000 C 
ATOM      3  C   UNL     1       4.320   6.535  16.907  0.00  0.00    +0.000 C 
ATOM      4  O   UNL     1       5.195   6.447  16.048  0.00  0.00    +0.000 OA
ATOM      5  C   UNL     1       3.479   7.755  16.871  0.00  0.00    +0.000 C 
ATOM      6  C   UNL     1       2.699   8.099  17.903  0.00  0.00    +0.000 C 
ATOM      7  C   UNL     1       1.866   9.289  17.821  0.00  0.00    +0.000 C 
ATOM      8  C   UNL     1       1.049   9.596  18.849  0.00  0.00    +0.000 C 
ATOM      9  O   UNL     1       1.038   8.837  20.030  0.00  0.00    +0.000 OA
ATOM     10  C   UNL     1       1.858   7.721  20.110  0.00  0.00    +0.000 C 
ATOM     11  C   UNL     1       2.665   7.314  19.119  0.00  0.00    +0.000 C 
ATOM     12  C   UNL     1       3.487   6.080  19.263  0.00  0.00    +0.000 C 
ATOM     13  O   UNL     1       3.637   5.572  20.376  0.00  0.00    +0.000 OA
ENDROOT
BRANCH   8  14
ATOM     14  C   UNL     1       0.093  10.669  18.820  0.00  0.00    +0.000 A 
ATOM     15  C   UNL     1       0.424  12.063  18.763  0.00  0.00    +0.000 A 
ATOM     16  C   UNL     1      -0.691  12.870  18.723  0.00  0.00    +0.000 A 
ATOM     17  S   UNL     1      -2.138  11.962  18.753  0.00  0.00    +0.000 S 
ATOM     18  C   UNL     1      -1.275  10.484  18.808  0.00  0.00    +0.000 A 
ENDBRANCH   8  14
BRANCH   2  19
ATOM     19  O   UNL     1       2.989   4.517  17.606  0.00  0.00    +0.000 OA
BRANCH  19  20
ATOM     20  C   UNL     1       3.120   3.219  18.012  0.00  0.00    +0.000 C 
ATOM     21  O   UNL     1       3.711   2.366  17.372  0.00  0.00    +0.000 OA
BRANCH  20  22
ATOM     22  C   UNL     1       2.477   3.003  19.297  0.00  0.00    +0.000 A 
ATOM     23  C   UNL     1       1.178   3.222  19.718  0.00  0.00    +0.000 A 
ATOM     24  C   UNL     1       0.979   2.857  21.087  0.00  0.00    +0.000 A 
ATOM     25  C   UNL     1       2.131   2.382  21.672  0.00  0.00    +0.000 A 
ATOM     26  S   UNL     1       3.440   2.374  20.580  0.00  0.00    +0.000 S 
ENDBRANCH  20  22
ENDBRANCH  19  20
ENDBRANCH   2  19
TORSDOF 4
ENDMDL
