MODEL 1
REMARK VINA RESULT:      -8.3      0.000      0.000
REMARK  Name = 
REMARK  6 active torsions:
REMARK  status: ('A' for Active; 'I' for Inactive)
REMARK    1  A    between atoms: C_1  and  C_2
REMARK    2  A    between atoms: C_2  and  O_3
REMARK    3  A    between atoms: O_3  and  C_4
REMARK    4  A    between atoms: C_7  and  C_8
REMARK    5  A    between atoms: C_14  and  C_16
REMARK    6  A    between atoms: C_21  and  C_22
REMARK                            x       y       z     vdW  Elec       q    Type
REMARK                         _______ _______ _______ _____ _____    ______ ____
ROOT
ATOM      1  C   UNL     1       4.266   3.858  19.138  0.00  0.00    +0.000 A 
ATOM      2  N   UNL     1       4.308   2.669  19.757  0.00  0.00    +0.000 NA
ATOM      3  O   UNL     1       3.306   2.704  20.705  0.00  0.00    +0.000 OA
ATOM      4  N   UNL     1       2.631   3.906  20.672  0.00  0.00    +0.000 NA
ATOM      5  C   UNL     1       3.200   4.629  19.706  0.00  0.00    +0.000 A 
ATOM      6  N   UNL     1       2.783   5.907  19.332  0.00  0.00    +0.000 N 
ATOM      7  C   UNL     1       1.920   6.670  20.096  0.00  0.00    +0.000 C 
ATOM      8  O   UNL     1       1.433   6.333  21.173  0.00  0.00    +0.000 OA
ATOM      9  H   UNL     1       3.209   6.314  18.520  0.00  0.00    +0.000 HD
ENDROOT
BRANCH   7  10
ATOM     10  C   UNL     1       1.638   8.066  19.633  0.00  0.00    +0.000 A 
ATOM     11  C   UNL     1       2.091   8.357  18.326  0.00  0.00    +0.000 A 
ATOM     12  C   UNL     1       1.973   9.635  17.786  0.00  0.00    +0.000 A 
ATOM     13  C   UNL     1       1.394  10.646  18.540  0.00  0.00    +0.000 A 
ATOM     14  C   UNL     1       0.936  10.375  19.832  0.00  0.00    +0.000 A 
ATOM     15  C   UNL     1       1.061   9.094  20.406  0.00  0.00    +0.000 A 
ATOM     16  C   UNL     1       0.612   8.923  21.829  0.00  0.00    +0.000 C 
ENDBRANCH   7  10
BRANCH   1  20
ATOM     17  C   UNL     1       6.935   4.932  15.972  0.00  0.00    +0.000 A 
ATOM     18  C   UNL     1       5.759   4.242  15.694  0.00  0.00    +0.000 A 
ATOM     19  C   UNL     1       4.899   3.873  16.733  0.00  0.00    +0.000 A 
ATOM     20  C   UNL     1       5.216   4.171  18.069  0.00  0.00    +0.000 A 
ATOM     21  C   UNL     1       6.460   4.757  18.337  0.00  0.00    +0.000 A 
ATOM     22  C   UNL     1       7.307   5.149  17.295  0.00  0.00    +0.000 A 
BRANCH  17  23
ATOM     23  O   UNL     1       7.658   5.336  14.885  0.00  0.00    +0.000 OA
BRANCH  23  25
ATOM     24  C   UNL     1       7.992   5.516  12.529  0.00  0.00    +0.000 C 
ATOM     25  C   UNL     1       7.185   4.851  13.627  0.00  0.00    +0.000 C 
ENDBRANCH  23  25
ENDBRANCH  17  23
ENDBRANCH   1  20
TORSDOF 4
ENDMDL
MODEL 2
REMARK VINA RESULT:      -8.2      3.008      5.038
REMARK  Name = 
REMARK  6 active torsions:
REMARK  status: ('A' for Active; 'I' for Inactive)
REMARK    1  A    between atoms: C_1  and  C_2
REMARK    2  A    between atoms: C_2  and  O_3
REMARK    3  A    between atoms: O_3  and  C_4
REMARK    4  A    between atoms: C_7  and  C_8
REMARK    5  A    between atoms: C_14  and  C_16
REMARK    6  A    between atoms: C_21  and  C_22
REMARK                            x       y       z     vdW  Elec       q    Type
REMARK                         _______ _______ _______ _____ _____    ______ ____
ROOT
ATOM      1  C   UNL     1       6.628   5.399  15.959  0.00  0.00    +0.000 A 
ATOM      2  N   UNL     1       7.683   6.226  16.017  0.00  0.00    +0.000 NA
ATOM      3  O   UNL     1       7.701   6.719  17.306  0.00  0.00    +0.000 OA
ATOM      4  N   UNL     1       6.670   6.195  18.055  0.00  0.00    +0.000 NA
ATOM      5  C   UNL     1       6.002   5.370  17.248  0.00  0.00    +0.000 A 
ATOM      6  N   UNL     1       4.896   4.612  17.638  0.00  0.00    +0.000 N 
ATOM      7  C   UNL     1       4.210   4.835  18.817  0.00  0.00    +0.000 C 
ATOM      8  O   UNL     1       4.472   5.710  19.640  0.00  0.00    +0.000 OA
ATOM      9  H   UNL     1       4.539   3.942  16.982  0.00  0.00    +0.000 HD
ENDROOT
BRANCH   7  10
ATOM     10  C   UNL     1       2.978   4.021  19.063  0.00  0.00    +0.000 A 
ATOM     11  C   UNL     1       2.918   2.808  18.340  0.00  0.00    +0.000 A 
ATOM     12  C   UNL     1       1.799   1.981  18.404  0.00  0.00    +0.000 A 
ATOM     13  C   UNL     1       0.721   2.348  19.197  0.00  0.00    +0.000 A 
ATOM     14  C   UNL     1       0.765   3.541  19.922  0.00  0.00    +0.000 A 
ATOM     15  C   UNL     1       1.879   4.402  19.860  0.00  0.00    +0.000 A 
ATOM     16  C   UNL     1       1.798   5.700  20.612  0.00  0.00    +0.000 C 
ENDBRANCH   7  10
BRANCH   1  20
ATOM     17  C   UNL     1       5.563   3.528  12.262  0.00  0.00    +0.000 A 
ATOM     18  C   UNL     1       4.686   3.496  13.342  0.00  0.00    +0.000 A 
ATOM     19  C   UNL     1       5.046   4.090  14.556  0.00  0.00    +0.000 A 
ATOM     20  C   UNL     1       6.300   4.704  14.713  0.00  0.00    +0.000 A 
ATOM     21  C   UNL     1       7.213   4.620  13.654  0.00  0.00    +0.000 A 
ATOM     22  C   UNL     1       6.843   4.049  12.432  0.00  0.00    +0.000 A 
BRANCH  17  23
ATOM     23  O   UNL     1       5.083   3.012  11.092  0.00  0.00    +0.000 OA
BRANCH  23  25
ATOM     24  C   UNL     1       3.265   4.064   9.960  0.00  0.00    +0.000 C 
ATOM     25  C   UNL     1       3.659   3.005  10.970  0.00  0.00    +0.000 C 
ENDBRANCH  23  25
ENDBRANCH  17  23
ENDBRANCH   1  20
TORSDOF 4
ENDMDL
MODEL 3
REMARK VINA RESULT:      -8.1      3.262      5.283
REMARK  Name = 
REMARK  6 active torsions:
REMARK  status: ('A' for Active; 'I' for Inactive)
REMARK    1  A    between atoms: C_1  and  C_2
REMARK    2  A    between atoms: C_2  and  O_3
REMARK    3  A    between atoms: O_3  and  C_4
REMARK    4  A    between atoms: C_7  and  C_8
REMARK    5  A    between atoms: C_14  and  C_16
REMARK    6  A    between atoms: C_21  and  C_22
REMARK                            x       y       z     vdW  Elec       q    Type
REMARK                         _______ _______ _______ _____ _____    ______ ____
ROOT
ATOM      1  C   UNL     1       6.658   5.448  16.018  0.00  0.00    +0.000 A 
ATOM      2  N   UNL     1       7.710   6.277  16.080  0.00  0.00    +0.000 NA
ATOM      3  O   UNL     1       7.717   6.777  17.367  0.00  0.00    +0.000 OA
ATOM      4  N   UNL     1       6.681   6.255  18.110  0.00  0.00    +0.000 NA
ATOM      5  C   UNL     1       6.021   5.425  17.301  0.00  0.00    +0.000 A 
ATOM      6  N   UNL     1       4.914   4.666  17.686  0.00  0.00    +0.000 N 
ATOM      7  C   UNL     1       4.216   4.894  18.857  0.00  0.00    +0.000 C 
ATOM      8  O   UNL     1       4.470   5.773  19.678  0.00  0.00    +0.000 OA
ATOM      9  H   UNL     1       4.564   3.992  17.030  0.00  0.00    +0.000 HD
ENDROOT
BRANCH   7  10
ATOM     10  C   UNL     1       2.984   4.078  19.098  0.00  0.00    +0.000 A 
ATOM     11  C   UNL     1       2.026   4.691  19.937  0.00  0.00    +0.000 A 
ATOM     12  C   UNL     1       0.864   4.024  20.317  0.00  0.00    +0.000 A 
ATOM     13  C   UNL     1       0.634   2.734  19.860  0.00  0.00    +0.000 A 
ATOM     14  C   UNL     1       1.568   2.115  19.026  0.00  0.00    +0.000 A 
ATOM     15  C   UNL     1       2.760   2.763  18.642  0.00  0.00    +0.000 A 
ATOM     16  C   UNL     1       3.738   1.985  17.809  0.00  0.00    +0.000 C 
ENDBRANCH   7  10
BRANCH   1  20
ATOM     17  C   UNL     1       5.613   3.547  12.330  0.00  0.00    +0.000 A 
ATOM     18  C   UNL     1       4.787   3.422  13.443  0.00  0.00    +0.000 A 
ATOM     19  C   UNL     1       5.141   4.026  14.653  0.00  0.00    +0.000 A 
ATOM     20  C   UNL     1       6.342   4.746  14.772  0.00  0.00    +0.000 A 
ATOM     21  C   UNL     1       7.216   4.759  13.677  0.00  0.00    +0.000 A 
ATOM     22  C   UNL     1       6.848   4.176  12.460  0.00  0.00    +0.000 A 
BRANCH  17  23
ATOM     23  O   UNL     1       5.133   3.008  11.170  0.00  0.00    +0.000 OA
BRANCH  23  25
ATOM     24  C   UNL     1       3.311   4.017  10.005  0.00  0.00    +0.000 C 
ATOM     25  C   UNL     1       3.709   2.994  11.051  0.00  0.00    +0.000 C 
ENDBRANCH  23  25
ENDBRANCH  17  23
ENDBRANCH   1  20
TORSDOF 4
ENDMDL
MODEL 4
REMARK VINA RESULT:      -8.1      0.360      1.447
REMARK  Name = 
REMARK  6 active torsions:
REMARK  status: ('A' for Active; 'I' for Inactive)
REMARK    1  A    between atoms: C_1  and  C_2
REMARK    2  A    between atoms: C_2  and  O_3
REMARK    3  A    between atoms: O_3  and  C_4
REMARK    4  A    between atoms: C_7  and  C_8
REMARK    5  A    between atoms: C_14  and  C_16
REMARK    6  A    between atoms: C_21  and  C_22
REMARK                            x       y       z     vdW  Elec       q    Type
REMARK                         _______ _______ _______ _____ _____    ______ ____
ROOT
ATOM      1  C   UNL     1       4.221   3.854  19.181  0.00  0.00    +0.000 A 
ATOM      2  N   UNL     1       4.231   2.668  19.807  0.00  0.00    +0.000 NA
ATOM      3  O   UNL     1       3.233   2.738  20.758  0.00  0.00    +0.000 OA
ATOM      4  N   UNL     1       2.592   3.957  20.719  0.00  0.00    +0.000 NA
ATOM      5  C   UNL     1       3.179   4.658  19.747  0.00  0.00    +0.000 A 
ATOM      6  N   UNL     1       2.797   5.945  19.366  0.00  0.00    +0.000 N 
ATOM      7  C   UNL     1       1.957   6.737  20.126  0.00  0.00    +0.000 C 
ATOM      8  O   UNL     1       1.463   6.420  21.207  0.00  0.00    +0.000 OA
ATOM      9  H   UNL     1       3.232   6.335  18.550  0.00  0.00    +0.000 HD
ENDROOT
BRANCH   7  10
ATOM     10  C   UNL     1       1.714   8.137  19.655  0.00  0.00    +0.000 A 
ATOM     11  C   UNL     1       0.930   8.925  20.528  0.00  0.00    +0.000 A 
ATOM     12  C   UNL     1       0.552  10.223  20.192  0.00  0.00    +0.000 A 
ATOM     13  C   UNL     1       0.956  10.759  18.977  0.00  0.00    +0.000 A 
ATOM     14  C   UNL     1       1.735   9.996  18.104  0.00  0.00    +0.000 A 
ATOM     15  C   UNL     1       2.114   8.675  18.415  0.00  0.00    +0.000 A 
ATOM     16  C   UNL     1       2.883   7.910  17.377  0.00  0.00    +0.000 C 
ENDBRANCH   7  10
BRANCH   1  20
ATOM     17  C   UNL     1       6.920   4.838  16.010  0.00  0.00    +0.000 A 
ATOM     18  C   UNL     1       5.692   4.247  15.729  0.00  0.00    +0.000 A 
ATOM     19  C   UNL     1       4.821   3.906  16.768  0.00  0.00    +0.000 A 
ATOM     20  C   UNL     1       5.178   4.133  18.108  0.00  0.00    +0.000 A 
ATOM     21  C   UNL     1       6.465   4.617  18.376  0.00  0.00    +0.000 A 
ATOM     22  C   UNL     1       7.324   4.981  17.335  0.00  0.00    +0.000 A 
BRANCH  17  23
ATOM     23  O   UNL     1       7.655   5.226  14.927  0.00  0.00    +0.000 OA
BRANCH  23  25
ATOM     24  C   UNL     1       7.966   5.452  12.571  0.00  0.00    +0.000 C 
ATOM     25  C   UNL     1       7.157   4.779  13.663  0.00  0.00    +0.000 C 
ENDBRANCH  23  25
ENDBRANCH  17  23
ENDBRANCH   1  20
TORSDOF 4
ENDMDL
MODEL 5
REMARK VINA RESULT:      -8.1      2.954      5.050
REMARK  Name = 
REMARK  6 active torsions:
REMARK  status: ('A' for Active; 'I' for Inactive)
REMARK    1  A    between atoms: C_1  and  C_2
REMARK    2  A    between atoms: C_2  and  O_3
REMARK    3  A    between atoms: O_3  and  C_4
REMARK    4  A    between atoms: C_7  and  C_8
REMARK    5  A    between atoms: C_14  and  C_16
REMARK    6  A    between atoms: C_21  and  C_22
REMARK                            x       y       z     vdW  Elec       q    Type
REMARK                         _______ _______ _______ _____ _____    ______ ____
ROOT
ATOM      1  C   UNL     1       6.702   5.532  16.062  0.00  0.00    +0.000 A 
ATOM      2  N   UNL     1       7.732   6.383  16.176  0.00  0.00    +0.000 NA
ATOM      3  O   UNL     1       7.698   6.840  17.478  0.00  0.00    +0.000 OA
ATOM      4  N   UNL     1       6.658   6.270  18.180  0.00  0.00    +0.000 NA
ATOM      5  C   UNL     1       6.036   5.452  17.329  0.00  0.00    +0.000 A 
ATOM      6  N   UNL     1       4.939   4.656  17.664  0.00  0.00    +0.000 N 
ATOM      7  C   UNL     1       4.211   4.829  18.825  0.00  0.00    +0.000 C 
ATOM      8  O   UNL     1       4.426   5.686  19.680  0.00  0.00    +0.000 OA
ATOM      9  H   UNL     1       4.620   3.996  16.978  0.00  0.00    +0.000 HD
ENDROOT
BRANCH   7  10
ATOM     10  C   UNL     1       2.993   3.977  19.010  0.00  0.00    +0.000 A 
ATOM     11  C   UNL     1       2.972   2.800  18.228  0.00  0.00    +0.000 A 
ATOM     12  C   UNL     1       1.871   1.947  18.232  0.00  0.00    +0.000 A 
ATOM     13  C   UNL     1       0.772   2.253  19.023  0.00  0.00    +0.000 A 
ATOM     14  C   UNL     1       0.778   3.409  19.806  0.00  0.00    +0.000 A 
ATOM     15  C   UNL     1       1.874   4.296  19.805  0.00  0.00    +0.000 A 
ATOM     16  C   UNL     1       1.751   5.553  20.618  0.00  0.00    +0.000 C 
ENDBRANCH   7  10
BRANCH   1  20
ATOM     17  C   UNL     1       6.012   3.426  12.402  0.00  0.00    +0.000 A 
ATOM     18  C   UNL     1       7.199   4.128  12.596  0.00  0.00    +0.000 A 
ATOM     19  C   UNL     1       7.413   4.833  13.784  0.00  0.00    +0.000 A 
ATOM     20  C   UNL     1       6.430   4.865  14.788  0.00  0.00    +0.000 A 
ATOM     21  C   UNL     1       5.197   4.254  14.524  0.00  0.00    +0.000 A 
ATOM     22  C   UNL     1       4.994   3.527  13.346  0.00  0.00    +0.000 A 
BRANCH  17  23
ATOM     23  O   UNL     1       5.939   2.687  11.256  0.00  0.00    +0.000 OA
BRANCH  23  25
ATOM     24  C   UNL     1       6.197   0.315  11.216  0.00  0.00    +0.000 C 
ATOM     25  C   UNL     1       6.914   1.649  11.139  0.00  0.00    +0.000 C 
ENDBRANCH  23  25
ENDBRANCH  17  23
ENDBRANCH   1  20
TORSDOF 4
ENDMDL
MODEL 6
REMARK VINA RESULT:      -8.1      1.716      6.943
REMARK  Name = 
REMARK  6 active torsions:
REMARK  status: ('A' for Active; 'I' for Inactive)
REMARK    1  A    between atoms: C_1  and  C_2
REMARK    2  A    between atoms: C_2  and  O_3
REMARK    3  A    between atoms: O_3  and  C_4
REMARK    4  A    between atoms: C_7  and  C_8
REMARK    5  A    between atoms: C_14  and  C_16
REMARK    6  A    between atoms: C_21  and  C_22
REMARK                            x       y       z     vdW  Elec       q    Type
REMARK                         _______ _______ _______ _____ _____    ______ ____
ROOT
ATOM      1  C   UNL     1       2.245   5.799  20.126  0.00  0.00    +0.000 A 
ATOM      2  N   UNL     1       1.609   5.221  21.155  0.00  0.00    +0.000 NA
ATOM      3  O   UNL     1       2.092   3.929  21.216  0.00  0.00    +0.000 OA
ATOM      4  N   UNL     1       3.035   3.703  20.237  0.00  0.00    +0.000 NA
ATOM      5  C   UNL     1       3.153   4.846  19.559  0.00  0.00    +0.000 A 
ATOM      6  N   UNL     1       4.037   5.042  18.497  0.00  0.00    +0.000 N 
ATOM      7  C   UNL     1       4.687   4.004  17.857  0.00  0.00    +0.000 C 
ATOM      8  O   UNL     1       4.564   2.811  18.129  0.00  0.00    +0.000 OA
ATOM      9  H   UNL     1       4.123   5.973  18.132  0.00  0.00    +0.000 HD
ENDROOT
BRANCH   7  10
ATOM     10  C   UNL     1       5.525   4.343  16.664  0.00  0.00    +0.000 A 
ATOM     11  C   UNL     1       4.887   4.143  15.419  0.00  0.00    +0.000 A 
ATOM     12  C   UNL     1       5.564   4.339  14.218  0.00  0.00    +0.000 A 
ATOM     13  C   UNL     1       6.891   4.745  14.239  0.00  0.00    +0.000 A 
ATOM     14  C   UNL     1       7.536   4.953  15.460  0.00  0.00    +0.000 A 
ATOM     15  C   UNL     1       6.876   4.744  16.689  0.00  0.00    +0.000 A 
ATOM     16  C   UNL     1       7.679   4.916  17.947  0.00  0.00    +0.000 C 
ENDBRANCH   7  10
BRANCH   1  20
ATOM     17  C   UNL     1       1.239   9.795  18.977  0.00  0.00    +0.000 A 
ATOM     18  C   UNL     1       1.885   8.949  18.081  0.00  0.00    +0.000 A 
ATOM     19  C   UNL     1       2.232   7.651  18.465  0.00  0.00    +0.000 A 
ATOM     20  C   UNL     1       1.957   7.188  19.763  0.00  0.00    +0.000 A 
ATOM     21  C   UNL     1       1.417   8.093  20.686  0.00  0.00    +0.000 A 
ATOM     22  C   UNL     1       1.047   9.383  20.292  0.00  0.00    +0.000 A 
BRANCH  17  23
ATOM     23  O   UNL     1       0.851  11.006  18.478  0.00  0.00    +0.000 OA
BRANCH  23  25
ATOM     24  C   UNL     1      -1.423  10.543  17.920  0.00  0.00    +0.000 C 
ATOM     25  C   UNL     1      -0.495  11.383  18.776  0.00  0.00    +0.000 C 
ENDBRANCH  23  25
ENDBRANCH  17  23
ENDBRANCH   1  20
TORSDOF 4
ENDMDL
MODEL 7
REMARK VINA RESULT:      -8.0      3.491      5.726
REMARK  Name = 
REMARK  6 active torsions:
REMARK  status: ('A' for Active; 'I' for Inactive)
REMARK    1  A    between atoms: C_1  and  C_2
REMARK    2  A    between atoms: C_2  and  O_3
REMARK    3  A    between atoms: O_3  and  C_4
REMARK    4  A    between atoms: C_7  and  C_8
REMARK    5  A    between atoms: C_14  and  C_16
REMARK    6  A    between atoms: C_21  and  C_22
REMARK                            x       y       z     vdW  Elec       q    Type
REMARK                         _______ _______ _______ _____ _____    ______ ____
ROOT
ATOM      1  C   UNL     1       6.864   5.360  16.434  0.00  0.00    +0.000 A 
ATOM      2  N   UNL     1       7.476   5.031  15.286  0.00  0.00    +0.000 NA
ATOM      3  O   UNL     1       6.790   3.937  14.797  0.00  0.00    +0.000 OA
ATOM      4  N   UNL     1       5.748   3.590  15.629  0.00  0.00    +0.000 NA
ATOM      5  C   UNL     1       5.768   4.460  16.639  0.00  0.00    +0.000 A 
ATOM      6  N   UNL     1       4.846   4.469  17.688  0.00  0.00    +0.000 N 
ATOM      7  C   UNL     1       3.984   3.420  17.940  0.00  0.00    +0.000 C 
ATOM      8  O   UNL     1       3.928   2.373  17.297  0.00  0.00    +0.000 OA
ATOM      9  H   UNL     1       4.888   5.236  18.334  0.00  0.00    +0.000 HD
ENDROOT
BRANCH   7  10
ATOM     10  C   UNL     1       3.121   3.512  19.160  0.00  0.00    +0.000 A 
ATOM     11  C   UNL     1       3.501   2.655  20.218  0.00  0.00    +0.000 A 
ATOM     12  C   UNL     1       2.751   2.569  21.388  0.00  0.00    +0.000 A 
ATOM     13  C   UNL     1       1.607   3.345  21.525  0.00  0.00    +0.000 A 
ATOM     14  C   UNL     1       1.220   4.201  20.492  0.00  0.00    +0.000 A 
ATOM     15  C   UNL     1       1.954   4.291  19.292  0.00  0.00    +0.000 A 
ATOM     16  C   UNL     1       1.412   5.181  18.210  0.00  0.00    +0.000 C 
ENDBRANCH   7  10
BRANCH   1  20
ATOM     17  C   UNL     1       8.466   8.610  18.709  0.00  0.00    +0.000 A 
ATOM     18  C   UNL     1       8.516   7.312  19.208  0.00  0.00    +0.000 A 
ATOM     19  C   UNL     1       7.973   6.254  18.473  0.00  0.00    +0.000 A 
ATOM     20  C   UNL     1       7.350   6.485  17.235  0.00  0.00    +0.000 A 
ATOM     21  C   UNL     1       7.203   7.812  16.807  0.00  0.00    +0.000 A 
ATOM     22  C   UNL     1       7.769   8.865  17.531  0.00  0.00    +0.000 A 
BRANCH  17  23
ATOM     23  O   UNL     1       9.112   9.558  19.452  0.00  0.00    +0.000 OA
BRANCH  23  25
ATOM     24  C   UNL     1      10.539  11.227  18.519  0.00  0.00    +0.000 C 
ATOM     25  C   UNL     1       9.112  10.872  18.889  0.00  0.00    +0.000 C 
ENDBRANCH  23  25
ENDBRANCH  17  23
ENDBRANCH   1  20
TORSDOF 4
ENDMDL
MODEL 8
REMARK VINA RESULT:      -8.0      1.704      6.857
REMARK  Name = 
REMARK  6 active torsions:
REMARK  status: ('A' for Active; 'I' for Inactive)
REMARK    1  A    between atoms: C_1  and  C_2
REMARK    2  A    between atoms: C_2  and  O_3
REMARK    3  A    between atoms: O_3  and  C_4
REMARK    4  A    between atoms: C_7  and  C_8
REMARK    5  A    between atoms: C_14  and  C_16
REMARK    6  A    between atoms: C_21  and  C_22
REMARK                            x       y       z     vdW  Elec       q    Type
REMARK                         _______ _______ _______ _____ _____    ______ ____
ROOT
ATOM      1  C   UNL     1       2.207   5.848  20.071  0.00  0.00    +0.000 A 
ATOM      2  N   UNL     1       1.542   5.276  21.086  0.00  0.00    +0.000 NA
ATOM      3  O   UNL     1       1.986   3.969  21.134  0.00  0.00    +0.000 OA
ATOM      4  N   UNL     1       2.933   3.729  20.162  0.00  0.00    +0.000 NA
ATOM      5  C   UNL     1       3.093   4.877  19.502  0.00  0.00    +0.000 A 
ATOM      6  N   UNL     1       3.995   5.061  18.453  0.00  0.00    +0.000 N 
ATOM      7  C   UNL     1       4.621   4.012  17.806  0.00  0.00    +0.000 C 
ATOM      8  O   UNL     1       4.459   2.820  18.060  0.00  0.00    +0.000 OA
ATOM      9  H   UNL     1       4.113   5.994  18.102  0.00  0.00    +0.000 HD
ENDROOT
BRANCH   7  10
ATOM     10  C   UNL     1       5.483   4.343  16.627  0.00  0.00    +0.000 A 
ATOM     11  C   UNL     1       4.862   4.155  15.371  0.00  0.00    +0.000 A 
ATOM     12  C   UNL     1       5.560   4.345  14.182  0.00  0.00    +0.000 A 
ATOM     13  C   UNL     1       6.893   4.732  14.225  0.00  0.00    +0.000 A 
ATOM     14  C   UNL     1       7.521   4.927  15.457  0.00  0.00    +0.000 A 
ATOM     15  C   UNL     1       6.839   4.724  16.674  0.00  0.00    +0.000 A 
ATOM     16  C   UNL     1       7.624   4.881  17.945  0.00  0.00    +0.000 C 
ENDBRANCH   7  10
BRANCH   1  20
ATOM     17  C   UNL     1       1.338   9.888  18.962  0.00  0.00    +0.000 A 
ATOM     18  C   UNL     1       2.005   9.046  18.077  0.00  0.00    +0.000 A 
ATOM     19  C   UNL     1       2.307   7.733  18.450  0.00  0.00    +0.000 A 
ATOM     20  C   UNL     1       1.965   7.251  19.725  0.00  0.00    +0.000 A 
ATOM     21  C   UNL     1       1.403   8.149  20.642  0.00  0.00    +0.000 A 
ATOM     22  C   UNL     1       1.078   9.454  20.259  0.00  0.00    +0.000 A 
BRANCH  17  23
ATOM     23  O   UNL     1       0.998  11.117  18.470  0.00  0.00    +0.000 OA
BRANCH  23  25
ATOM     24  C   UNL     1       2.108  13.207  18.162  0.00  0.00    +0.000 C 
ATOM     25  C   UNL     1       1.553  12.228  19.178  0.00  0.00    +0.000 C 
ENDBRANCH  23  25
ENDBRANCH  17  23
ENDBRANCH   1  20
TORSDOF 4
ENDMDL
MODEL 9
REMARK VINA RESULT:      -7.9      3.275      5.265
REMARK  Name = 
REMARK  6 active torsions:
REMARK  status: ('A' for Active; 'I' for Inactive)
REMARK    1  A    between atoms: C_1  and  C_2
REMARK    2  A    between atoms: C_2  and  O_3
REMARK    3  A    between atoms: O_3  and  C_4
REMARK    4  A    between atoms: C_7  and  C_8
REMARK    5  A    between atoms: C_14  and  C_16
REMARK    6  A    between atoms: C_21  and  C_22
REMARK                            x       y       z     vdW  Elec       q    Type
REMARK                         _______ _______ _______ _____ _____    ______ ____
ROOT
ATOM      1  C   UNL     1       6.639   5.537  16.112  0.00  0.00    +0.000 A 
ATOM      2  N   UNL     1       7.684   6.371  16.218  0.00  0.00    +0.000 NA
ATOM      3  O   UNL     1       7.658   6.841  17.515  0.00  0.00    +0.000 OA
ATOM      4  N   UNL     1       6.609   6.295  18.222  0.00  0.00    +0.000 NA
ATOM      5  C   UNL     1       5.973   5.480  17.380  0.00  0.00    +0.000 A 
ATOM      6  N   UNL     1       4.863   4.706  17.722  0.00  0.00    +0.000 N 
ATOM      7  C   UNL     1       4.138   4.902  18.882  0.00  0.00    +0.000 C 
ATOM      8  O   UNL     1       4.367   5.764  19.729  0.00  0.00    +0.000 OA
ATOM      9  H   UNL     1       4.532   4.045  17.043  0.00  0.00    +0.000 HD
ENDROOT
BRANCH   7  10
ATOM     10  C   UNL     1       2.906   4.073  19.075  0.00  0.00    +0.000 A 
ATOM     11  C   UNL     1       1.948   4.635  19.950  0.00  0.00    +0.000 A 
ATOM     12  C   UNL     1       0.787   3.947  20.292  0.00  0.00    +0.000 A 
ATOM     13  C   UNL     1       0.557   2.686  19.760  0.00  0.00    +0.000 A 
ATOM     14  C   UNL     1       1.490   2.117  18.890  0.00  0.00    +0.000 A 
ATOM     15  C   UNL     1       2.681   2.787  18.544  0.00  0.00    +0.000 A 
ATOM     16  C   UNL     1       3.658   2.059  17.665  0.00  0.00    +0.000 C 
ENDBRANCH   7  10
BRANCH   1  20
ATOM     17  C   UNL     1       5.920   3.411  12.470  0.00  0.00    +0.000 A 
ATOM     18  C   UNL     1       7.099   4.130  12.641  0.00  0.00    +0.000 A 
ATOM     19  C   UNL     1       7.322   4.842  13.824  0.00  0.00    +0.000 A 
ATOM     20  C   UNL     1       6.356   4.862  14.844  0.00  0.00    +0.000 A 
ATOM     21  C   UNL     1       5.127   4.233  14.603  0.00  0.00    +0.000 A 
ATOM     22  C   UNL     1       4.916   3.500  13.431  0.00  0.00    +0.000 A 
BRANCH  17  23
ATOM     23  O   UNL     1       5.837   2.668  11.326  0.00  0.00    +0.000 OA
BRANCH  23  25
ATOM     24  C   UNL     1       6.236   0.316  11.236  0.00  0.00    +0.000 C 
ATOM     25  C   UNL     1       6.869   1.692  11.161  0.00  0.00    +0.000 C 
ENDBRANCH  23  25
ENDBRANCH  17  23
ENDBRANCH   1  20
TORSDOF 4
ENDMDL
