MODEL 1
REMARK VINA RESULT:      -6.9      0.000      0.000
REMARK  Name = 
REMARK  0 active torsions:
REMARK  status: ('A' for Active; 'I' for Inactive)
REMARK                            x       y       z     vdW  Elec       q    Type
REMARK                         _______ _______ _______ _____ _____    ______ ____
ROOT
ATOM      1  F   UNL     1       0.371   1.855  18.589  0.00  0.00    +0.000 F 
ATOM      2  C   UNL     1       1.491   2.569  18.405  0.00  0.00    +0.000 A 
ATOM      3  C   UNL     1       2.716   1.922  18.335  0.00  0.00    +0.000 A 
ATOM      4  C   UNL     1       3.885   2.664  18.121  0.00  0.00    +0.000 A 
ATOM      5  C   UNL     1       3.845   4.059  17.955  0.00  0.00    +0.000 A 
ATOM      6  C   UNL     1       2.582   4.697  18.078  0.00  0.00    +0.000 A 
ATOM      7  C   UNL     1       1.414   3.948  18.287  0.00  0.00    +0.000 A 
ATOM      8  C   UNL     1       2.454   6.199  17.924  0.00  0.00    +0.000 C 
ATOM      9  C   UNL     1       3.806   6.904  17.778  0.00  0.00    +0.000 C 
ATOM     10  C   UNL     1       4.686   6.026  16.886  0.00  0.00    +0.000 C 
ATOM     11  C   UNL     1       5.913   6.785  16.313  0.00  0.00    +0.000 C 
ATOM     12  N   UNL     1       7.277   6.492  16.745  0.00  0.00    +0.000 NA
ATOM     13  C   UNL     1       7.409   5.355  17.649  0.00  0.00    +0.000 C 
ATOM     14  C   UNL     1       6.323   4.261  17.612  0.00  0.00    +0.000 C 
ATOM     15  N   UNL     1       4.982   4.828  17.675  0.00  0.00    +0.000 N 
ATOM     16  H   UNL     1       7.688   7.322  17.178  0.00  0.00    +0.000 HD
ENDROOT
TORSDOF 0
ENDMDL
MODEL 2
REMARK VINA RESULT:      -6.9      1.562      1.562
REMARK  Name = 
REMARK  0 active torsions:
REMARK  status: ('A' for Active; 'I' for Inactive)
REMARK                            x       y       z     vdW  Elec       q    Type
REMARK                         _______ _______ _______ _____ _____    ______ ____
ROOT
ATOM      1  F   UNL     1       0.916   2.874  21.524  0.00  0.00    +0.000 F 
ATOM      2  C   UNL     1       1.880   3.414  20.765  0.00  0.00    +0.000 A 
ATOM      3  C   UNL     1       3.086   2.745  20.606  0.00  0.00    +0.000 A 
ATOM      4  C   UNL     1       4.086   3.296  19.795  0.00  0.00    +0.000 A 
ATOM      5  C   UNL     1       3.891   4.511  19.117  0.00  0.00    +0.000 A 
ATOM      6  C   UNL     1       2.665   5.194  19.336  0.00  0.00    +0.000 A 
ATOM      7  C   UNL     1       1.664   4.634  20.145  0.00  0.00    +0.000 A 
ATOM      8  C   UNL     1       2.380   6.516  18.652  0.00  0.00    +0.000 C 
ATOM      9  C   UNL     1       3.578   7.052  17.863  0.00  0.00    +0.000 C 
ATOM     10  C   UNL     1       4.244   5.860  17.173  0.00  0.00    +0.000 C 
ATOM     11  C   UNL     1       5.199   6.282  16.025  0.00  0.00    +0.000 C 
ATOM     12  N   UNL     1       6.649   6.132  16.129  0.00  0.00    +0.000 NA
ATOM     13  C   UNL     1       7.116   5.442  17.326  0.00  0.00    +0.000 C 
ATOM     14  C   UNL     1       6.152   4.465  18.030  0.00  0.00    +0.000 C 
ATOM     15  N   UNL     1       4.841   5.062  18.248  0.00  0.00    +0.000 N 
ATOM     16  H   UNL     1       7.096   7.049  16.066  0.00  0.00    +0.000 HD
ENDROOT
TORSDOF 0
ENDMDL
MODEL 3
REMARK VINA RESULT:      -6.9      2.878      4.829
REMARK  Name = 
REMARK  0 active torsions:
REMARK  status: ('A' for Active; 'I' for Inactive)
REMARK                            x       y       z     vdW  Elec       q    Type
REMARK                         _______ _______ _______ _____ _____    ______ ____
ROOT
ATOM      1  F   UNL     1       7.162   5.476  14.990  0.00  0.00    +0.000 F 
ATOM      2  C   UNL     1       6.093   5.199  15.749  0.00  0.00    +0.000 A 
ATOM      3  C   UNL     1       5.697   3.881  15.928  0.00  0.00    +0.000 A 
ATOM      4  C   UNL     1       4.594   3.588  16.739  0.00  0.00    +0.000 A 
ATOM      5  C   UNL     1       3.882   4.603  17.399  0.00  0.00    +0.000 A 
ATOM      6  C   UNL     1       4.282   5.945  17.161  0.00  0.00    +0.000 A 
ATOM      7  C   UNL     1       5.392   6.232  16.351  0.00  0.00    +0.000 A 
ATOM      8  C   UNL     1       3.560   7.100  17.825  0.00  0.00    +0.000 C 
ATOM      9  C   UNL     1       2.325   6.657  18.616  0.00  0.00    +0.000 C 
ATOM     10  C   UNL     1       2.680   5.351  19.327  0.00  0.00    +0.000 C 
ATOM     11  C   UNL     1       1.698   5.002  20.477  0.00  0.00    +0.000 C 
ATOM     12  N   UNL     1       0.766   3.880  20.388  0.00  0.00    +0.000 NA
ATOM     13  C   UNL     1       0.919   3.042  19.204  0.00  0.00    +0.000 C 
ATOM     14  C   UNL     1       2.293   3.006  18.504  0.00  0.00    +0.000 C 
ATOM     15  N   UNL     1       2.814   4.346  18.268  0.00  0.00    +0.000 N 
ATOM     16  H   UNL     1      -0.195   4.223  20.441  0.00  0.00    +0.000 HD
ENDROOT
TORSDOF 0
ENDMDL
MODEL 4
REMARK VINA RESULT:      -6.6      1.679      2.117
REMARK  Name = 
REMARK  0 active torsions:
REMARK  status: ('A' for Active; 'I' for Inactive)
REMARK                            x       y       z     vdW  Elec       q    Type
REMARK                         _______ _______ _______ _____ _____    ______ ____
ROOT
ATOM      1  F   UNL     1       0.622   3.566  20.005  0.00  0.00    +0.000 F 
ATOM      2  C   UNL     1       1.713   3.748  19.248  0.00  0.00    +0.000 A 
ATOM      3  C   UNL     1       1.680   3.416  17.901  0.00  0.00    +0.000 A 
ATOM      4  C   UNL     1       2.812   3.626  17.103  0.00  0.00    +0.000 A 
ATOM      5  C   UNL     1       3.985   4.188  17.633  0.00  0.00    +0.000 A 
ATOM      6  C   UNL     1       4.004   4.475  19.024  0.00  0.00    +0.000 A 
ATOM      7  C   UNL     1       2.865   4.267  19.817  0.00  0.00    +0.000 A 
ATOM      8  C   UNL     1       5.235   5.071  19.677  0.00  0.00    +0.000 C 
ATOM      9  C   UNL     1       6.428   5.174  18.722  0.00  0.00    +0.000 C 
ATOM     10  C   UNL     1       5.888   5.611  17.360  0.00  0.00    +0.000 C 
ATOM     11  C   UNL     1       6.995   6.155  16.417  0.00  0.00    +0.000 C 
ATOM     12  N   UNL     1       7.426   5.426  15.226  0.00  0.00    +0.000 NA
ATOM     13  C   UNL     1       6.654   4.226  14.922  0.00  0.00    +0.000 C 
ATOM     14  C   UNL     1       5.204   4.138  15.440  0.00  0.00    +0.000 C 
ATOM     15  N   UNL     1       5.115   4.473  16.855  0.00  0.00    +0.000 N 
ATOM     16  H   UNL     1       8.416   5.183  15.308  0.00  0.00    +0.000 HD
ENDROOT
TORSDOF 0
ENDMDL
MODEL 5
REMARK VINA RESULT:      -6.6      3.212      5.272
REMARK  Name = 
REMARK  0 active torsions:
REMARK  status: ('A' for Active; 'I' for Inactive)
REMARK                            x       y       z     vdW  Elec       q    Type
REMARK                         _______ _______ _______ _____ _____    ______ ____
ROOT
ATOM      1  F   UNL     1       8.741   7.800  18.537  0.00  0.00    +0.000 F 
ATOM      2  C   UNL     1       7.837   6.815  18.438  0.00  0.00    +0.000 A 
ATOM      3  C   UNL     1       7.563   6.019  19.541  0.00  0.00    +0.000 A 
ATOM      4  C   UNL     1       6.602   5.004  19.447  0.00  0.00    +0.000 A 
ATOM      5  C   UNL     1       5.889   4.782  18.257  0.00  0.00    +0.000 A 
ATOM      6  C   UNL     1       6.224   5.582  17.133  0.00  0.00    +0.000 A 
ATOM      7  C   UNL     1       7.184   6.601  17.235  0.00  0.00    +0.000 A 
ATOM      8  C   UNL     1       5.510   5.398  15.809  0.00  0.00    +0.000 C 
ATOM      9  C   UNL     1       4.547   4.207  15.809  0.00  0.00    +0.000 C 
ATOM     10  C   UNL     1       3.845   4.186  17.167  0.00  0.00    +0.000 C 
ATOM     11  C   UNL     1       2.562   3.311  17.171  0.00  0.00    +0.000 C 
ATOM     12  N   UNL     1       2.489   2.048  17.902  0.00  0.00    +0.000 NA
ATOM     13  C   UNL     1       3.653   1.739  18.725  0.00  0.00    +0.000 C 
ATOM     14  C   UNL     1       4.527   2.908  19.223  0.00  0.00    +0.000 C 
ATOM     15  N   UNL     1       4.877   3.821  18.142  0.00  0.00    +0.000 N 
ATOM     16  H   UNL     1       2.319   1.280  17.249  0.00  0.00    +0.000 HD
ENDROOT
TORSDOF 0
ENDMDL
MODEL 6
REMARK VINA RESULT:      -6.6      2.870      5.219
REMARK  Name = 
REMARK  0 active torsions:
REMARK  status: ('A' for Active; 'I' for Inactive)
REMARK                            x       y       z     vdW  Elec       q    Type
REMARK                         _______ _______ _______ _____ _____    ______ ____
ROOT
ATOM      1  F   UNL     1       6.558   5.396  14.498  0.00  0.00    +0.000 F 
ATOM      2  C   UNL     1       5.711   5.209  15.520  0.00  0.00    +0.000 A 
ATOM      3  C   UNL     1       5.174   6.306  16.179  0.00  0.00    +0.000 A 
ATOM      4  C   UNL     1       4.271   6.114  17.232  0.00  0.00    +0.000 A 
ATOM      5  C   UNL     1       3.876   4.826  17.629  0.00  0.00    +0.000 A 
ATOM      6  C   UNL     1       4.477   3.722  16.966  0.00  0.00    +0.000 A 
ATOM      7  C   UNL     1       5.377   3.922  15.908  0.00  0.00    +0.000 A 
ATOM      8  C   UNL     1       4.114   2.300  17.342  0.00  0.00    +0.000 C 
ATOM      9  C   UNL     1       3.185   2.220  18.558  0.00  0.00    +0.000 C 
ATOM     10  C   UNL     1       2.168   3.356  18.433  0.00  0.00    +0.000 C 
ATOM     11  C   UNL     1       0.928   3.161  19.346  0.00  0.00    +0.000 C 
ATOM     12  N   UNL     1       0.681   4.011  20.508  0.00  0.00    +0.000 NA
ATOM     13  C   UNL     1       1.606   5.127  20.667  0.00  0.00    +0.000 C 
ATOM     14  C   UNL     1       2.325   5.666  19.413  0.00  0.00    +0.000 C 
ATOM     15  N   UNL     1       2.928   4.593  18.633  0.00  0.00    +0.000 N 
ATOM     16  H   UNL     1       0.682   3.443  21.358  0.00  0.00    +0.000 HD
ENDROOT
TORSDOF 0
ENDMDL
MODEL 7
REMARK VINA RESULT:      -6.5      2.954      5.042
REMARK  Name = 
REMARK  0 active torsions:
REMARK  status: ('A' for Active; 'I' for Inactive)
REMARK                            x       y       z     vdW  Elec       q    Type
REMARK                         _______ _______ _______ _____ _____    ______ ____
ROOT
ATOM      1  F   UNL     1       8.055   7.360  17.075  0.00  0.00    +0.000 F 
ATOM      2  C   UNL     1       7.041   6.568  17.449  0.00  0.00    +0.000 A 
ATOM      3  C   UNL     1       7.298   5.267  17.856  0.00  0.00    +0.000 A 
ATOM      4  C   UNL     1       6.242   4.444  18.269  0.00  0.00    +0.000 A 
ATOM      5  C   UNL     1       4.919   4.914  18.301  0.00  0.00    +0.000 A 
ATOM      6  C   UNL     1       4.682   6.235  17.835  0.00  0.00    +0.000 A 
ATOM      7  C   UNL     1       5.744   7.056  17.427  0.00  0.00    +0.000 A 
ATOM      8  C   UNL     1       3.281   6.814  17.824  0.00  0.00    +0.000 C 
ATOM      9  C   UNL     1       2.208   5.794  18.217  0.00  0.00    +0.000 C 
ATOM     10  C   UNL     1       2.775   4.951  19.361  0.00  0.00    +0.000 C 
ATOM     11  C   UNL     1       1.680   4.168  20.134  0.00  0.00    +0.000 C 
ATOM     12  N   UNL     1       1.566   2.713  20.055  0.00  0.00    +0.000 NA
ATOM     13  C   UNL     1       2.628   2.049  19.308  0.00  0.00    +0.000 C 
ATOM     14  C   UNL     1       3.992   2.758  19.188  0.00  0.00    +0.000 C 
ATOM     15  N   UNL     1       3.845   4.145  18.767  0.00  0.00    +0.000 N 
ATOM     16  H   UNL     1       0.659   2.458  19.659  0.00  0.00    +0.000 HD
ENDROOT
TORSDOF 0
ENDMDL
MODEL 8
REMARK VINA RESULT:      -6.5      1.721      2.827
REMARK  Name = 
REMARK  0 active torsions:
REMARK  status: ('A' for Active; 'I' for Inactive)
REMARK                            x       y       z     vdW  Elec       q    Type
REMARK                         _______ _______ _______ _____ _____    ______ ____
ROOT
ATOM      1  F   UNL     1       0.831   2.642  21.838  0.00  0.00    +0.000 F 
ATOM      2  C   UNL     1       1.550   3.250  20.884  0.00  0.00    +0.000 A 
ATOM      3  C   UNL     1       1.665   4.632  20.885  0.00  0.00    +0.000 A 
ATOM      4  C   UNL     1       2.435   5.268  19.903  0.00  0.00    +0.000 A 
ATOM      5  C   UNL     1       3.116   4.533  18.919  0.00  0.00    +0.000 A 
ATOM      6  C   UNL     1       2.943   3.123  18.917  0.00  0.00    +0.000 A 
ATOM      7  C   UNL     1       2.174   2.491  19.907  0.00  0.00    +0.000 A 
ATOM      8  C   UNL     1       3.633   2.258  17.882  0.00  0.00    +0.000 C 
ATOM      9  C   UNL     1       4.374   3.073  16.818  0.00  0.00    +0.000 C 
ATOM     10  C   UNL     1       5.041   4.253  17.526  0.00  0.00    +0.000 C 
ATOM     11  C   UNL     1       6.151   4.923  16.672  0.00  0.00    +0.000 C 
ATOM     12  N   UNL     1       5.992   6.260  16.106  0.00  0.00    +0.000 NA
ATOM     13  C   UNL     1       4.780   6.963  16.511  0.00  0.00    +0.000 C 
ATOM     14  C   UNL     1       4.116   6.569  17.845  0.00  0.00    +0.000 C 
ATOM     15  N   UNL     1       3.947   5.126  17.960  0.00  0.00    +0.000 N 
ATOM     16  H   UNL     1       6.034   6.212  15.086  0.00  0.00    +0.000 HD
ENDROOT
TORSDOF 0
ENDMDL
MODEL 9
REMARK VINA RESULT:      -6.5      1.157      1.163
REMARK  Name = 
REMARK  0 active torsions:
REMARK  status: ('A' for Active; 'I' for Inactive)
REMARK                            x       y       z     vdW  Elec       q    Type
REMARK                         _______ _______ _______ _____ _____    ______ ____
ROOT
ATOM      1  F   UNL     1       0.346   2.685  19.792  0.00  0.00    +0.000 F 
ATOM      2  C   UNL     1       1.428   3.115  19.127  0.00  0.00    +0.000 A 
ATOM      3  C   UNL     1       2.192   2.214  18.400  0.00  0.00    +0.000 A 
ATOM      4  C   UNL     1       3.309   2.664  17.686  0.00  0.00    +0.000 A 
ATOM      5  C   UNL     1       3.669   4.022  17.672  0.00  0.00    +0.000 A 
ATOM      6  C   UNL     1       2.894   4.913  18.462  0.00  0.00    +0.000 A 
ATOM      7  C   UNL     1       1.773   4.456  19.171  0.00  0.00    +0.000 A 
ATOM      8  C   UNL     1       3.222   6.392  18.512  0.00  0.00    +0.000 C 
ATOM      9  C   UNL     1       4.510   6.745  17.761  0.00  0.00    +0.000 C 
ATOM     10  C   UNL     1       4.539   5.906  16.482  0.00  0.00    +0.000 C 
ATOM     11  C   UNL     1       5.548   6.442  15.431  0.00  0.00    +0.000 C 
ATOM     12  N   UNL     1       6.773   5.720  15.095  0.00  0.00    +0.000 NA
ATOM     13  C   UNL     1       6.910   4.409  15.717  0.00  0.00    +0.000 C 
ATOM     14  C   UNL     1       5.629   3.665  16.146  0.00  0.00    +0.000 C 
ATOM     15  N   UNL     1       4.739   4.522  16.920  0.00  0.00    +0.000 N 
ATOM     16  H   UNL     1       7.587   6.294  15.325  0.00  0.00    +0.000 HD
ENDROOT
TORSDOF 0
ENDMDL
