MODEL 1
REMARK VINA RESULT:      -8.4      0.000      0.000
REMARK  Name = 
REMARK  2 active torsions:
REMARK  status: ('A' for Active; 'I' for Inactive)
REMARK    1  A    between atoms: C_2  and  C_11
REMARK    2  A    between atoms: N_3  and  C_4
REMARK                            x       y       z     vdW  Elec       q    Type
REMARK                         _______ _______ _______ _____ _____    ______ ____
ROOT
ATOM      1  C   UNL     1       7.443   5.547  17.236  0.00  0.00    +0.000 C 
ATOM      2  C   UNL     1       6.837   6.047  15.909  0.00  0.00    +0.000 C 
ATOM      3  C   UNL     1       5.326   6.251  15.976  0.00  0.00    +0.000 C 
ATOM      4  C   UNL     1       4.670   5.003  16.533  0.00  0.00    +0.000 C 
ATOM      5  N   UNL     1       5.171   4.821  17.908  0.00  0.00    +0.000 N 
ATOM      6  C   UNL     1       4.273   4.243  18.787  0.00  0.00    +0.000 C 
ATOM      7  N   UNL     1       4.196   2.988  19.112  0.00  0.00    +0.000 NA
ATOM      8  S   UNL     1       2.901   2.731  20.106  0.00  0.00    +0.000 S 
ATOM      9  O   UNL     1       3.354   2.334  21.422  0.00  0.00    +0.000 OA
ATOM     10  O   UNL     1       1.851   2.036  19.395  0.00  0.00    +0.000 OA
ATOM     11  C   UNL     1       2.420   4.399  20.213  0.00  0.00    +0.000 A 
ATOM     12  C   UNL     1       1.399   4.981  20.938  0.00  0.00    +0.000 A 
ATOM     13  C   UNL     1       1.260   6.371  20.837  0.00  0.00    +0.000 A 
ATOM     14  C   UNL     1       2.125   7.126  20.024  0.00  0.00    +0.000 A 
ATOM     15  C   UNL     1       3.141   6.503  19.299  0.00  0.00    +0.000 A 
ATOM     16  C   UNL     1       3.269   5.130  19.414  0.00  0.00    +0.000 A 
ATOM     17  C   UNL     1       6.601   4.458  17.934  0.00  0.00    +0.000 C 
ENDROOT
BRANCH   1  19
ATOM     18  O   UNL     1       8.134   6.560  19.285  0.00  0.00    +0.000 OA
ATOM     19  C   UNL     1       7.826   6.747  18.111  0.00  0.00    +0.000 C 
ATOM     20  N   UNL     1       7.868   7.967  17.464  0.00  0.00    +0.000 N 
ATOM     21  H   UNL     1       7.461   7.992  16.538  0.00  0.00    +0.000 HD
BRANCH  20  22
ATOM     22  C   UNL     1       8.307   9.201  17.990  0.00  0.00    +0.000 A 
ATOM     23  C   UNL     1       9.102   9.331  19.135  0.00  0.00    +0.000 A 
ATOM     24  C   UNL     1       9.513  10.597  19.577  0.00  0.00    +0.000 A 
ATOM     25  C   UNL     1       9.125  11.732  18.876  0.00  0.00    +0.000 A 
ATOM     26  F   UNL     1       9.514  12.939  19.300  0.00  0.00    +0.000 F 
ATOM     27  C   UNL     1       8.338  11.625  17.738  0.00  0.00    +0.000 A 
ATOM     28  C   UNL     1       7.934  10.362  17.295  0.00  0.00    +0.000 A 
ENDBRANCH  20  22
ENDBRANCH   1  19
TORSDOF 2
ENDMDL
MODEL 2
REMARK VINA RESULT:      -8.0      4.102      5.962
REMARK  Name = 
REMARK  2 active torsions:
REMARK  status: ('A' for Active; 'I' for Inactive)
REMARK    1  A    between atoms: C_2  and  C_11
REMARK    2  A    between atoms: N_3  and  C_4
REMARK                            x       y       z     vdW  Elec       q    Type
REMARK                         _______ _______ _______ _____ _____    ______ ____
ROOT
ATOM      1  C   UNL     1       2.905   2.994  20.687  0.00  0.00    +0.000 C 
ATOM      2  C   UNL     1       1.802   2.343  19.830  0.00  0.00    +0.000 C 
ATOM      3  C   UNL     1       0.992   3.352  19.021  0.00  0.00    +0.000 C 
ATOM      4  C   UNL     1       0.504   4.459  19.935  0.00  0.00    +0.000 C 
ATOM      5  N   UNL     1       1.696   5.145  20.467  0.00  0.00    +0.000 N 
ATOM      6  C   UNL     1       1.533   6.497  20.713  0.00  0.00    +0.000 C 
ATOM      7  N   UNL     1       1.238   7.054  21.848  0.00  0.00    +0.000 NA
ATOM      8  S   UNL     1       1.030   8.682  21.651  0.00  0.00    +0.000 S 
ATOM      9  O   UNL     1       2.070   9.405  22.351  0.00  0.00    +0.000 OA
ATOM     10  O   UNL     1      -0.371   9.026  21.755  0.00  0.00    +0.000 OA
ATOM     11  C   UNL     1       1.434   8.713  19.960  0.00  0.00    +0.000 A 
ATOM     12  C   UNL     1       1.523   9.784  19.092  0.00  0.00    +0.000 A 
ATOM     13  C   UNL     1       1.889   9.500  17.770  0.00  0.00    +0.000 A 
ATOM     14  C   UNL     1       2.145   8.180  17.358  0.00  0.00    +0.000 A 
ATOM     15  C   UNL     1       2.036   7.122  18.262  0.00  0.00    +0.000 A 
ATOM     16  C   UNL     1       1.679   7.419  19.566  0.00  0.00    +0.000 A 
ATOM     17  C   UNL     1       2.460   4.291  21.396  0.00  0.00    +0.000 C 
ENDROOT
BRANCH   1  19
ATOM     18  O   UNL     1       5.121   2.324  20.098  0.00  0.00    +0.000 OA
ATOM     19  C   UNL     1       4.198   3.101  19.867  0.00  0.00    +0.000 C 
ATOM     20  N   UNL     1       4.185   4.040  18.856  0.00  0.00    +0.000 N 
ATOM     21  H   UNL     1       3.415   4.697  18.870  0.00  0.00    +0.000 HD
BRANCH  20  22
ATOM     22  C   UNL     1       5.180   4.261  17.878  0.00  0.00    +0.000 A 
ATOM     23  C   UNL     1       6.474   4.715  18.160  0.00  0.00    +0.000 A 
ATOM     24  C   UNL     1       7.409   4.886  17.130  0.00  0.00    +0.000 A 
ATOM     25  C   UNL     1       7.048   4.607  15.818  0.00  0.00    +0.000 A 
ATOM     26  F   UNL     1       7.940   4.775  14.835  0.00  0.00    +0.000 F 
ATOM     27  C   UNL     1       5.772   4.155  15.516  0.00  0.00    +0.000 A 
ATOM     28  C   UNL     1       4.842   3.980  16.545  0.00  0.00    +0.000 A 
ENDBRANCH  20  22
ENDBRANCH   1  19
TORSDOF 2
ENDMDL
MODEL 3
REMARK VINA RESULT:      -7.9      9.391     12.455
REMARK  Name = 
REMARK  2 active torsions:
REMARK  status: ('A' for Active; 'I' for Inactive)
REMARK    1  A    between atoms: C_2  and  C_11
REMARK    2  A    between atoms: N_3  and  C_4
REMARK                            x       y       z     vdW  Elec       q    Type
REMARK                         _______ _______ _______ _____ _____    ______ ____
ROOT
ATOM      1  C   UNL     1      -4.135  13.519  23.931  0.00  0.00    +0.000 C 
ATOM      2  C   UNL     1      -3.363  14.842  24.107  0.00  0.00    +0.000 C 
ATOM      3  C   UNL     1      -2.063  14.893  23.311  0.00  0.00    +0.000 C 
ATOM      4  C   UNL     1      -1.245  13.649  23.596  0.00  0.00    +0.000 C 
ATOM      5  N   UNL     1      -2.029  12.492  23.125  0.00  0.00    +0.000 N 
ATOM      6  C   UNL     1      -1.279  11.430  22.652  0.00  0.00    +0.000 C 
ATOM      7  N   UNL     1      -0.923  10.370  23.313  0.00  0.00    +0.000 NA
ATOM      8  S   UNL     1       0.062   9.419  22.386  0.00  0.00    +0.000 S 
ATOM      9  O   UNL     1      -0.598   8.168  22.082  0.00  0.00    +0.000 OA
ATOM     10  O   UNL     1       1.425   9.493  22.863  0.00  0.00    +0.000 OA
ATOM     11  C   UNL     1      -0.027  10.405  20.956  0.00  0.00    +0.000 A 
ATOM     12  C   UNL     1       0.531  10.207  19.709  0.00  0.00    +0.000 A 
ATOM     13  C   UNL     1       0.271  11.179  18.735  0.00  0.00    +0.000 A 
ATOM     14  C   UNL     1      -0.520  12.304  19.030  0.00  0.00    +0.000 A 
ATOM     15  C   UNL     1      -1.061  12.476  20.305  0.00  0.00    +0.000 A 
ATOM     16  C   UNL     1      -0.800  11.504  21.255  0.00  0.00    +0.000 A 
ATOM     17  C   UNL     1      -3.233  12.266  23.945  0.00  0.00    +0.000 C 
ENDROOT
BRANCH   1  19
ATOM     18  O   UNL     1      -5.806  14.623  22.630  0.00  0.00    +0.000 OA
ATOM     19  C   UNL     1      -5.085  13.634  22.732  0.00  0.00    +0.000 C 
ATOM     20  N   UNL     1      -4.992  12.620  21.799  0.00  0.00    +0.000 N 
ATOM     21  H   UNL     1      -4.458  11.807  22.078  0.00  0.00    +0.000 HD
BRANCH  20  22
ATOM     22  C   UNL     1      -5.649  12.540  20.551  0.00  0.00    +0.000 A 
ATOM     23  C   UNL     1      -7.033  12.663  20.382  0.00  0.00    +0.000 A 
ATOM     24  C   UNL     1      -7.603  12.593  19.103  0.00  0.00    +0.000 A 
ATOM     25  C   UNL     1      -6.789  12.396  17.995  0.00  0.00    +0.000 A 
ATOM     26  F   UNL     1      -7.334  12.325  16.775  0.00  0.00    +0.000 F 
ATOM     27  C   UNL     1      -5.415  12.273  18.140  0.00  0.00    +0.000 A 
ATOM     28  C   UNL     1      -4.847  12.348  19.416  0.00  0.00    +0.000 A 
ENDBRANCH  20  22
ENDBRANCH   1  19
TORSDOF 2
ENDMDL
MODEL 4
REMARK VINA RESULT:      -7.7     10.411     12.647
REMARK  Name = 
REMARK  2 active torsions:
REMARK  status: ('A' for Active; 'I' for Inactive)
REMARK    1  A    between atoms: C_2  and  C_11
REMARK    2  A    between atoms: N_3  and  C_4
REMARK                            x       y       z     vdW  Elec       q    Type
REMARK                         _______ _______ _______ _____ _____    ______ ____
ROOT
ATOM      1  C   UNL     1      -6.087  11.476  17.941  0.00  0.00    +0.000 C 
ATOM      2  C   UNL     1      -6.762  12.653  17.208  0.00  0.00    +0.000 C 
ATOM      3  C   UNL     1      -6.740  13.953  18.004  0.00  0.00    +0.000 C 
ATOM      4  C   UNL     1      -7.268  13.700  19.403  0.00  0.00    +0.000 C 
ATOM      5  N   UNL     1      -6.350  12.746  20.052  0.00  0.00    +0.000 N 
ATOM      6  C   UNL     1      -6.213  12.903  21.420  0.00  0.00    +0.000 C 
ATOM      7  N   UNL     1      -6.850  12.255  22.348  0.00  0.00    +0.000 NA
ATOM      8  S   UNL     1      -6.453  12.850  23.838  0.00  0.00    +0.000 S 
ATOM      9  O   UNL     1      -5.731  11.851  24.596  0.00  0.00    +0.000 OA
ATOM     10  O   UNL     1      -7.556  13.607  24.387  0.00  0.00    +0.000 OA
ATOM     11  C   UNL     1      -5.283  14.004  23.268  0.00  0.00    +0.000 A 
ATOM     12  C   UNL     1      -4.474  14.868  23.978  0.00  0.00    +0.000 A 
ATOM     13  C   UNL     1      -3.608  15.681  23.237  0.00  0.00    +0.000 A 
ATOM     14  C   UNL     1      -3.579  15.614  21.833  0.00  0.00    +0.000 A 
ATOM     15  C   UNL     1      -4.417  14.734  21.147  0.00  0.00    +0.000 A 
ATOM     16  C   UNL     1      -5.263  13.933  21.894  0.00  0.00    +0.000 A 
ATOM     17  C   UNL     1      -6.424  11.404  19.445  0.00  0.00    +0.000 C 
ENDROOT
BRANCH   1  19
ATOM     18  O   UNL     1      -4.240  11.597  16.431  0.00  0.00    +0.000 OA
ATOM     19  C   UNL     1      -4.591  11.448  17.598  0.00  0.00    +0.000 C 
ATOM     20  N   UNL     1      -3.736  11.332  18.675  0.00  0.00    +0.000 N 
ATOM     21  H   UNL     1      -4.164  11.082  19.558  0.00  0.00    +0.000 HD
BRANCH  20  22
ATOM     22  C   UNL     1      -2.326  11.406  18.663  0.00  0.00    +0.000 A 
ATOM     23  C   UNL     1      -1.596  12.565  18.955  0.00  0.00    +0.000 A 
ATOM     24  C   UNL     1      -0.194  12.546  18.942  0.00  0.00    +0.000 A 
ATOM     25  C   UNL     1       0.477  11.370  18.632  0.00  0.00    +0.000 A 
ATOM     26  F   UNL     1       1.814  11.354  18.615  0.00  0.00    +0.000 F 
ATOM     27  C   UNL     1      -0.227  10.210  18.340  0.00  0.00    +0.000 A 
ATOM     28  C   UNL     1      -1.625  10.229  18.359  0.00  0.00    +0.000 A 
ENDBRANCH  20  22
ENDBRANCH   1  19
TORSDOF 2
ENDMDL
MODEL 5
REMARK VINA RESULT:      -7.6      4.061      5.688
REMARK  Name = 
REMARK  2 active torsions:
REMARK  status: ('A' for Active; 'I' for Inactive)
REMARK    1  A    between atoms: C_2  and  C_11
REMARK    2  A    between atoms: N_3  and  C_4
REMARK                            x       y       z     vdW  Elec       q    Type
REMARK                         _______ _______ _______ _____ _____    ______ ____
ROOT
ATOM      1  C   UNL     1       3.678   3.568  19.523  0.00  0.00    +0.000 C 
ATOM      2  C   UNL     1       2.625   2.923  18.599  0.00  0.00    +0.000 C 
ATOM      3  C   UNL     1       1.607   3.921  18.058  0.00  0.00    +0.000 C 
ATOM      4  C   UNL     1       1.026   4.725  19.205  0.00  0.00    +0.000 C 
ATOM      5  N   UNL     1       2.134   5.483  19.814  0.00  0.00    +0.000 N 
ATOM      6  C   UNL     1       1.782   6.712  20.344  0.00  0.00    +0.000 C 
ATOM      7  N   UNL     1       1.496   6.974  21.584  0.00  0.00    +0.000 NA
ATOM      8  S   UNL     1       1.020   8.549  21.742  0.00  0.00    +0.000 S 
ATOM      9  O   UNL     1       1.988   9.283  22.529  0.00  0.00    +0.000 OA
ATOM     10  O   UNL     1      -0.404   8.623  21.980  0.00  0.00    +0.000 OA
ATOM     11  C   UNL     1       1.279   8.984  20.078  0.00  0.00    +0.000 A 
ATOM     12  C   UNL     1       1.131  10.205  19.450  0.00  0.00    +0.000 A 
ATOM     13  C   UNL     1       1.430  10.257  18.083  0.00  0.00    +0.000 A 
ATOM     14  C   UNL     1       1.855   9.108  17.393  0.00  0.00    +0.000 A 
ATOM     15  C   UNL     1       1.985   7.888  18.059  0.00  0.00    +0.000 A 
ATOM     16  C   UNL     1       1.692   7.855  19.411  0.00  0.00    +0.000 A 
ATOM     17  C   UNL     1       3.094   4.603  20.507  0.00  0.00    +0.000 C 
ENDROOT
BRANCH   1  19
ATOM     18  O   UNL     1       5.972   4.159  19.215  0.00  0.00    +0.000 OA
ATOM     19  C   UNL     1       4.869   4.053  18.686  0.00  0.00    +0.000 C 
ATOM     20  N   UNL     1       4.609   4.262  17.346  0.00  0.00    +0.000 N 
ATOM     21  H   UNL     1       3.632   4.268  17.079  0.00  0.00    +0.000 HD
BRANCH  20  22
ATOM     22  C   UNL     1       5.537   4.583  16.332  0.00  0.00    +0.000 A 
ATOM     23  C   UNL     1       6.580   5.506  16.483  0.00  0.00    +0.000 A 
ATOM     24  C   UNL     1       7.473   5.750  15.431  0.00  0.00    +0.000 A 
ATOM     25  C   UNL     1       7.321   5.074  14.226  0.00  0.00    +0.000 A 
ATOM     26  F   UNL     1       8.171   5.311  13.221  0.00  0.00    +0.000 F 
ATOM     27  C   UNL     1       6.296   4.155  14.056  0.00  0.00    +0.000 A 
ATOM     28  C   UNL     1       5.409   3.909  15.108  0.00  0.00    +0.000 A 
ENDBRANCH  20  22
ENDBRANCH   1  19
TORSDOF 2
ENDMDL
MODEL 6
REMARK VINA RESULT:      -7.5      5.301      9.058
REMARK  Name = 
REMARK  2 active torsions:
REMARK  status: ('A' for Active; 'I' for Inactive)
REMARK    1  A    between atoms: C_2  and  C_11
REMARK    2  A    between atoms: N_3  and  C_4
REMARK                            x       y       z     vdW  Elec       q    Type
REMARK                         _______ _______ _______ _____ _____    ______ ____
ROOT
ATOM      1  C   UNL     1       9.480  11.270  17.910  0.00  0.00    +0.000 C 
ATOM      2  C   UNL     1      10.996  11.392  18.165  0.00  0.00    +0.000 C 
ATOM      3  C   UNL     1      11.332  12.055  19.497  0.00  0.00    +0.000 C 
ATOM      4  C   UNL     1      10.569  13.360  19.620  0.00  0.00    +0.000 C 
ATOM      5  N   UNL     1       9.133  13.029  19.620  0.00  0.00    +0.000 N 
ATOM      6  C   UNL     1       8.337  13.873  20.375  0.00  0.00    +0.000 C 
ATOM      7  N   UNL     1       7.659  14.894  19.948  0.00  0.00    +0.000 NA
ATOM      8  S   UNL     1       6.946  15.680  21.216  0.00  0.00    +0.000 S 
ATOM      9  O   UNL     1       5.507  15.560  21.130  0.00  0.00    +0.000 OA
ATOM     10  O   UNL     1       7.616  16.936  21.470  0.00  0.00    +0.000 OA
ATOM     11  C   UNL     1       7.480  14.567  22.442  0.00  0.00    +0.000 A 
ATOM     12  C   UNL     1       7.219  14.553  23.798  0.00  0.00    +0.000 A 
ATOM     13  C   UNL     1       7.782  13.508  24.542  0.00  0.00    +0.000 A 
ATOM     14  C   UNL     1       8.578  12.528  23.923  0.00  0.00    +0.000 A 
ATOM     15  C   UNL     1       8.828  12.579  22.551  0.00  0.00    +0.000 A 
ATOM     16  C   UNL     1       8.260  13.614  21.829  0.00  0.00    +0.000 A 
ATOM     17  C   UNL     1       8.678  12.526  18.310  0.00  0.00    +0.000 C 
ENDROOT
BRANCH   1  19
ATOM     18  O   UNL     1       9.007   9.769  19.707  0.00  0.00    +0.000 OA
ATOM     19  C   UNL     1       8.966   9.946  18.493  0.00  0.00    +0.000 C 
ATOM     20  N   UNL     1       8.412   9.070  17.581  0.00  0.00    +0.000 N 
ATOM     21  H   UNL     1       8.568   9.287  16.605  0.00  0.00    +0.000 HD
BRANCH  20  22
ATOM     22  C   UNL     1       7.755   7.850  17.855  0.00  0.00    +0.000 A 
ATOM     23  C   UNL     1       8.231   6.883  18.749  0.00  0.00    +0.000 A 
ATOM     24  C   UNL     1       7.504   5.707  18.979  0.00  0.00    +0.000 A 
ATOM     25  C   UNL     1       6.304   5.497  18.313  0.00  0.00    +0.000 A 
ATOM     26  F   UNL     1       5.613   4.372  18.530  0.00  0.00    +0.000 F 
ATOM     27  C   UNL     1       5.813   6.442  17.424  0.00  0.00    +0.000 A 
ATOM     28  C   UNL     1       6.537   7.617  17.199  0.00  0.00    +0.000 A 
ENDBRANCH  20  22
ENDBRANCH   1  19
TORSDOF 2
ENDMDL
MODEL 7
REMARK VINA RESULT:      -7.4      9.372     12.203
REMARK  Name = 
REMARK  2 active torsions:
REMARK  status: ('A' for Active; 'I' for Inactive)
REMARK    1  A    between atoms: C_2  and  C_11
REMARK    2  A    between atoms: N_3  and  C_4
REMARK                            x       y       z     vdW  Elec       q    Type
REMARK                         _______ _______ _______ _____ _____    ______ ____
ROOT
ATOM      1  C   UNL     1      -0.313  12.331  21.260  0.00  0.00    +0.000 C 
ATOM      2  C   UNL     1      -0.778  13.088  22.521  0.00  0.00    +0.000 C 
ATOM      3  C   UNL     1      -0.759  14.604  22.356  0.00  0.00    +0.000 C 
ATOM      4  C   UNL     1       0.593  15.040  21.826  0.00  0.00    +0.000 C 
ATOM      5  N   UNL     1       0.760  14.429  20.495  0.00  0.00    +0.000 N 
ATOM      6  C   UNL     1       1.498  15.177  19.595  0.00  0.00    +0.000 C 
ATOM      7  N   UNL     1       2.764  15.056  19.332  0.00  0.00    +0.000 NA
ATOM      8  S   UNL     1       3.247  16.234  18.278  0.00  0.00    +0.000 S 
ATOM      9  O   UNL     1       3.631  15.644  17.014  0.00  0.00    +0.000 OA
ATOM     10  O   UNL     1       4.054  17.220  18.962  0.00  0.00    +0.000 OA
ATOM     11  C   UNL     1       1.671  16.936  18.057  0.00  0.00    +0.000 A 
ATOM     12  C   UNL     1       1.274  17.980  17.244  0.00  0.00    +0.000 A 
ATOM     13  C   UNL     1      -0.084  18.320  17.265  0.00  0.00    +0.000 A 
ATOM     14  C   UNL     1      -0.990  17.625  18.086  0.00  0.00    +0.000 A 
ATOM     15  C   UNL     1      -0.551  16.581  18.902  0.00  0.00    +0.000 A 
ATOM     16  C   UNL     1       0.793  16.253  18.865  0.00  0.00    +0.000 A 
ATOM     17  C   UNL     1       0.914  12.964  20.571  0.00  0.00    +0.000 C 
ENDROOT
BRANCH   1  19
ATOM     18  O   UNL     1      -2.620  12.504  20.665  0.00  0.00    +0.000 OA
ATOM     19  C   UNL     1      -1.518  12.065  20.348  0.00  0.00    +0.000 C 
ATOM     20  N   UNL     1      -1.238  11.398  19.171  0.00  0.00    +0.000 N 
ATOM     21  H   UNL     1      -0.318  10.980  19.106  0.00  0.00    +0.000 HD
BRANCH  20  22
ATOM     22  C   UNL     1      -2.123  11.136  18.103  0.00  0.00    +0.000 A 
ATOM     23  C   UNL     1      -3.352  11.783  17.922  0.00  0.00    +0.000 A 
ATOM     24  C   UNL     1      -4.161  11.478  16.819  0.00  0.00    +0.000 A 
ATOM     25  C   UNL     1      -3.743  10.525  15.899  0.00  0.00    +0.000 A 
ATOM     26  F   UNL     1      -4.517  10.232  14.848  0.00  0.00    +0.000 F 
ATOM     27  C   UNL     1      -2.528   9.874  16.058  0.00  0.00    +0.000 A 
ATOM     28  C   UNL     1      -1.719  10.182  17.156  0.00  0.00    +0.000 A 
ENDBRANCH  20  22
ENDBRANCH   1  19
TORSDOF 2
ENDMDL
MODEL 8
REMARK VINA RESULT:      -7.3      9.552     12.499
REMARK  Name = 
REMARK  2 active torsions:
REMARK  status: ('A' for Active; 'I' for Inactive)
REMARK    1  A    between atoms: C_2  and  C_11
REMARK    2  A    between atoms: N_3  and  C_4
REMARK                            x       y       z     vdW  Elec       q    Type
REMARK                         _______ _______ _______ _____ _____    ______ ____
ROOT
ATOM      1  C   UNL     1      -4.143  13.970  23.502  0.00  0.00    +0.000 C 
ATOM      2  C   UNL     1      -3.317  15.242  23.782  0.00  0.00    +0.000 C 
ATOM      3  C   UNL     1      -1.914  15.193  23.185  0.00  0.00    +0.000 C 
ATOM      4  C   UNL     1      -1.233  13.902  23.594  0.00  0.00    +0.000 C 
ATOM      5  N   UNL     1      -2.017  12.792  23.019  0.00  0.00    +0.000 N 
ATOM      6  C   UNL     1      -1.280  11.676  22.668  0.00  0.00    +0.000 C 
ATOM      7  N   UNL     1      -1.098  10.605  23.379  0.00  0.00    +0.000 NA
ATOM      8  S   UNL     1      -0.055   9.577  22.613  0.00  0.00    +0.000 S 
ATOM      9  O   UNL     1      -0.747   8.367  22.222  0.00  0.00    +0.000 OA
ATOM     10  O   UNL     1       1.226   9.567  23.284  0.00  0.00    +0.000 OA
ATOM     11  C   UNL     1       0.133  10.544  21.180  0.00  0.00    +0.000 A 
ATOM     12  C   UNL     1       0.853  10.290  20.029  0.00  0.00    +0.000 A 
ATOM     13  C   UNL     1       0.804  11.262  19.022  0.00  0.00    +0.000 A 
ATOM     14  C   UNL     1       0.057  12.441  19.192  0.00  0.00    +0.000 A 
ATOM     15  C   UNL     1      -0.651  12.668  20.372  0.00  0.00    +0.000 A 
ATOM     16  C   UNL     1      -0.599  11.696  21.355  0.00  0.00    +0.000 A 
ATOM     17  C   UNL     1      -3.341  12.660  23.656  0.00  0.00    +0.000 C 
ENDROOT
BRANCH   1  19
ATOM     18  O   UNL     1      -5.249  15.249  21.816  0.00  0.00    +0.000 OA
ATOM     19  C   UNL     1      -4.898  14.129  22.176  0.00  0.00    +0.000 C 
ATOM     20  N   UNL     1      -5.057  12.972  21.439  0.00  0.00    +0.000 N 
ATOM     21  H   UNL     1      -4.840  12.107  21.918  0.00  0.00    +0.000 HD
BRANCH  20  22
ATOM     22  C   UNL     1      -5.595  12.851  20.139  0.00  0.00    +0.000 A 
ATOM     23  C   UNL     1      -4.881  12.372  19.033  0.00  0.00    +0.000 A 
ATOM     24  C   UNL     1      -5.499  12.262  17.780  0.00  0.00    +0.000 A 
ATOM     25  C   UNL     1      -6.829  12.635  17.632  0.00  0.00    +0.000 A 
ATOM     26  F   UNL     1      -7.417  12.534  16.434  0.00  0.00    +0.000 F 
ATOM     27  C   UNL     1      -7.555  13.111  18.714  0.00  0.00    +0.000 A 
ATOM     28  C   UNL     1      -6.939  13.215  19.965  0.00  0.00    +0.000 A 
ENDBRANCH  20  22
ENDBRANCH   1  19
TORSDOF 2
ENDMDL
MODEL 9
REMARK VINA RESULT:      -7.3      9.418     11.705
REMARK  Name = 
REMARK  2 active torsions:
REMARK  status: ('A' for Active; 'I' for Inactive)
REMARK    1  A    between atoms: C_2  and  C_11
REMARK    2  A    between atoms: N_3  and  C_4
REMARK                            x       y       z     vdW  Elec       q    Type
REMARK                         _______ _______ _______ _____ _____    ______ ____
ROOT
ATOM      1  C   UNL     1       0.570  11.613  20.556  0.00  0.00    +0.000 C 
ATOM      2  C   UNL     1       0.365  10.195  21.125  0.00  0.00    +0.000 C 
ATOM      3  C   UNL     1      -0.847  10.083  22.045  0.00  0.00    +0.000 C 
ATOM      4  C   UNL     1      -0.790  11.176  23.094  0.00  0.00    +0.000 C 
ATOM      5  N   UNL     1      -0.867  12.467  22.385  0.00  0.00    +0.000 N 
ATOM      6  C   UNL     1      -1.504  13.480  23.080  0.00  0.00    +0.000 C 
ATOM      7  N   UNL     1      -0.945  14.403  23.802  0.00  0.00    +0.000 NA
ATOM      8  S   UNL     1      -2.096  15.331  24.541  0.00  0.00    +0.000 S 
ATOM      9  O   UNL     1      -2.057  16.680  24.019  0.00  0.00    +0.000 OA
ATOM     10  O   UNL     1      -2.148  15.037  25.956  0.00  0.00    +0.000 OA
ATOM     11  C   UNL     1      -3.462  14.540  23.810  0.00  0.00    +0.000 A 
ATOM     12  C   UNL     1      -4.810  14.817  23.926  0.00  0.00    +0.000 A 
ATOM     13  C   UNL     1      -5.689  14.006  23.197  0.00  0.00    +0.000 A 
ATOM     14  C   UNL     1      -5.207  12.958  22.393  0.00  0.00    +0.000 A 
ATOM     15  C   UNL     1      -3.838  12.702  22.307  0.00  0.00    +0.000 A 
ATOM     16  C   UNL     1      -2.982  13.516  23.028  0.00  0.00    +0.000 A 
ATOM     17  C   UNL     1       0.345  12.738  21.590  0.00  0.00    +0.000 C 
ENDROOT
BRANCH   1  19
ATOM     18  O   UNL     1       0.232  12.483  18.358  0.00  0.00    +0.000 OA
ATOM     19  C   UNL     1      -0.212  11.758  19.244  0.00  0.00    +0.000 C 
ATOM     20  N   UNL     1      -1.345  10.976  19.136  0.00  0.00    +0.000 N 
ATOM     21  H   UNL     1      -1.662  10.535  19.990  0.00  0.00    +0.000 HD
BRANCH  20  22
ATOM     22  C   UNL     1      -2.173  10.817  18.004  0.00  0.00    +0.000 A 
ATOM     23  C   UNL     1      -3.370  11.514  17.800  0.00  0.00    +0.000 A 
ATOM     24  C   UNL     1      -4.122  11.313  16.634  0.00  0.00    +0.000 A 
ATOM     25  C   UNL     1      -3.678  10.412  15.674  0.00  0.00    +0.000 A 
ATOM     26  F   UNL     1      -4.398  10.217  14.564  0.00  0.00    +0.000 F 
ATOM     27  C   UNL     1      -2.494   9.712  15.856  0.00  0.00    +0.000 A 
ATOM     28  C   UNL     1      -1.742   9.918  17.016  0.00  0.00    +0.000 A 
ENDBRANCH  20  22
ENDBRANCH   1  19
TORSDOF 2
ENDMDL
