MODEL 1
REMARK VINA RESULT:      -8.3      0.000      0.000
REMARK  Name = 
REMARK  7 active torsions:
REMARK  status: ('A' for Active; 'I' for Inactive)
REMARK    1  A    between atoms: C_1  and  C_2
REMARK    2  A    between atoms: C_2  and  C_3
REMARK    3  A    between atoms: C_7  and  N_8
REMARK    4  A    between atoms: C_9  and  C_11
REMARK    5  A    between atoms: C_14  and  S_15
REMARK    6  A    between atoms: S_15  and  C_16
REMARK    7  A    between atoms: C_18  and  C_19
REMARK                            x       y       z     vdW  Elec       q    Type
REMARK                         _______ _______ _______ _____ _____    ______ ____
ROOT
ATOM      1  C   UNL     1       3.388   6.830  17.884  0.00  0.00    +0.000 A 
ATOM      2  C   UNL     1       4.329   7.365  17.029  0.00  0.00    +0.000 A 
ATOM      3  N   UNL     1       5.381   6.679  16.545  0.00  0.00    +0.000 NA
ATOM      4  C   UNL     1       5.514   5.412  16.967  0.00  0.00    +0.000 A 
ATOM      5  N   UNL     1       4.641   4.786  17.773  0.00  0.00    +0.000 NA
ATOM      6  C   UNL     1       3.568   5.493  18.233  0.00  0.00    +0.000 A 
ENDROOT
BRANCH   6   7
ATOM      7  C   UNL     1       2.662   4.706  19.115  0.00  0.00    +0.000 A 
ATOM      8  C   UNL     1       1.555   4.018  18.579  0.00  0.00    +0.000 A 
ATOM      9  C   UNL     1       0.722   3.225  19.378  0.00  0.00    +0.000 A 
ATOM     10  C   UNL     1       0.975   3.102  20.740  0.00  0.00    +0.000 A 
ATOM     11  C   UNL     1       2.039   3.794  21.305  0.00  0.00    +0.000 A 
ATOM     12  C   UNL     1       2.856   4.603  20.506  0.00  0.00    +0.000 A 
ENDBRANCH   6   7
BRANCH   1  14
ATOM     13  N   UNL     1       1.824   8.698  17.731  0.00  0.00    +0.000 N 
ATOM     14  C   UNL     1       2.413   7.727  18.531  0.00  0.00    +0.000 C 
ATOM     15  O   UNL     1       2.222   7.557  19.727  0.00  0.00    +0.000 OA
ATOM     16  H   UNL     1       2.053   8.729  16.746  0.00  0.00    +0.000 HD
BRANCH  13  21
ATOM     17  C   UNL     1      -1.451  10.414  18.181  0.00  0.00    +0.000 A 
ATOM     18  C   UNL     1      -1.090  11.505  18.980  0.00  0.00    +0.000 A 
ATOM     19  C   UNL     1       0.234  11.682  19.362  0.00  0.00    +0.000 A 
ATOM     20  C   UNL     1       1.205  10.770  18.954  0.00  0.00    +0.000 A 
ATOM     21  C   UNL     1       0.877   9.660  18.165  0.00  0.00    +0.000 A 
ATOM     22  C   UNL     1      -0.463   9.494  17.782  0.00  0.00    +0.000 A 
BRANCH  17  24
ATOM     23  C   UNL     1      -2.919   9.933  16.225  0.00  0.00    +0.000 C 
ATOM     24  C   UNL     1      -2.875  10.279  17.707  0.00  0.00    +0.000 C 
ENDBRANCH  17  24
ENDBRANCH  13  21
ENDBRANCH   1  14
BRANCH   4  25
ATOM     25  S   UNL     1       6.981   4.573  16.423  0.00  0.00    +0.000 S 
ATOM     26  C   UNL     1       6.525   4.148  14.726  0.00  0.00    +0.000 C 
ENDBRANCH   4  25
TORSDOF 5
ENDMDL
MODEL 2
REMARK VINA RESULT:      -8.2      0.362      1.021
REMARK  Name = 
REMARK  7 active torsions:
REMARK  status: ('A' for Active; 'I' for Inactive)
REMARK    1  A    between atoms: C_1  and  C_2
REMARK    2  A    between atoms: C_2  and  C_3
REMARK    3  A    between atoms: C_7  and  N_8
REMARK    4  A    between atoms: C_9  and  C_11
REMARK    5  A    between atoms: C_14  and  S_15
REMARK    6  A    between atoms: S_15  and  C_16
REMARK    7  A    between atoms: C_18  and  C_19
REMARK                            x       y       z     vdW  Elec       q    Type
REMARK                         _______ _______ _______ _____ _____    ______ ____
ROOT
ATOM      1  C   UNL     1       3.412   6.776  17.777  0.00  0.00    +0.000 A 
ATOM      2  C   UNL     1       4.316   7.373  16.923  0.00  0.00    +0.000 A 
ATOM      3  N   UNL     1       5.340   6.724  16.339  0.00  0.00    +0.000 NA
ATOM      4  C   UNL     1       5.485   5.428  16.656  0.00  0.00    +0.000 A 
ATOM      5  N   UNL     1       4.647   4.744  17.451  0.00  0.00    +0.000 NA
ATOM      6  C   UNL     1       3.601   5.416  18.014  0.00  0.00    +0.000 A 
ENDROOT
BRANCH   6   7
ATOM      7  C   UNL     1       2.732   4.564  18.873  0.00  0.00    +0.000 A 
ATOM      8  C   UNL     1       3.074   4.312  20.216  0.00  0.00    +0.000 A 
ATOM      9  C   UNL     1       2.245   3.562  21.060  0.00  0.00    +0.000 A 
ATOM     10  C   UNL     1       1.049   3.040  20.578  0.00  0.00    +0.000 A 
ATOM     11  C   UNL     1       0.700   3.242  19.248  0.00  0.00    +0.000 A 
ATOM     12  C   UNL     1       1.542   3.975  18.403  0.00  0.00    +0.000 A 
ENDBRANCH   6   7
BRANCH   1  14
ATOM     13  N   UNL     1       1.798   8.607  17.826  0.00  0.00    +0.000 N 
ATOM     14  C   UNL     1       2.474   7.622  18.536  0.00  0.00    +0.000 C 
ATOM     15  O   UNL     1       2.386   7.403  19.736  0.00  0.00    +0.000 OA
ATOM     16  H   UNL     1       1.945   8.680  16.827  0.00  0.00    +0.000 HD
BRANCH  13  21
ATOM     17  C   UNL     1      -1.343  10.565  18.236  0.00  0.00    +0.000 A 
ATOM     18  C   UNL     1      -1.059  11.317  19.382  0.00  0.00    +0.000 A 
ATOM     19  C   UNL     1       0.171  11.187  20.014  0.00  0.00    +0.000 A 
ATOM     20  C   UNL     1       1.124  10.303  19.510  0.00  0.00    +0.000 A 
ATOM     21  C   UNL     1       0.868   9.526  18.373  0.00  0.00    +0.000 A 
ATOM     22  C   UNL     1      -0.376   9.669  17.741  0.00  0.00    +0.000 A 
BRANCH  17  24
ATOM     23  C   UNL     1      -2.728   9.896  16.274  0.00  0.00    +0.000 C 
ATOM     24  C   UNL     1      -2.649  10.776  17.514  0.00  0.00    +0.000 C 
ENDBRANCH  17  24
ENDBRANCH  13  21
ENDBRANCH   1  14
BRANCH   4  25
ATOM     25  S   UNL     1       6.921   4.631  15.980  0.00  0.00    +0.000 S 
ATOM     26  C   UNL     1       6.251   3.963  14.440  0.00  0.00    +0.000 C 
ENDBRANCH   4  25
TORSDOF 5
ENDMDL
MODEL 3
REMARK VINA RESULT:      -8.1      1.581      2.450
REMARK  Name = 
REMARK  7 active torsions:
REMARK  status: ('A' for Active; 'I' for Inactive)
REMARK    1  A    between atoms: C_1  and  C_2
REMARK    2  A    between atoms: C_2  and  C_3
REMARK    3  A    between atoms: C_7  and  N_8
REMARK    4  A    between atoms: C_9  and  C_11
REMARK    5  A    between atoms: C_14  and  S_15
REMARK    6  A    between atoms: S_15  and  C_16
REMARK    7  A    between atoms: C_18  and  C_19
REMARK                            x       y       z     vdW  Elec       q    Type
REMARK                         _______ _______ _______ _____ _____    ______ ____
ROOT
ATOM      1  C   UNL     1       3.621   6.455  17.658  0.00  0.00    +0.000 A 
ATOM      2  C   UNL     1       4.496   7.187  16.882  0.00  0.00    +0.000 A 
ATOM      3  N   UNL     1       5.485   6.645  16.149  0.00  0.00    +0.000 NA
ATOM      4  C   UNL     1       5.625   5.313  16.226  0.00  0.00    +0.000 A 
ATOM      5  N   UNL     1       4.812   4.504  16.925  0.00  0.00    +0.000 NA
ATOM      6  C   UNL     1       3.800   5.073  17.643  0.00  0.00    +0.000 A 
ENDROOT
BRANCH   6   7
ATOM      7  C   UNL     1       2.957   4.089  18.376  0.00  0.00    +0.000 A 
ATOM      8  C   UNL     1       3.412   3.503  19.574  0.00  0.00    +0.000 A 
ATOM      9  C   UNL     1       2.614   2.619  20.312  0.00  0.00    +0.000 A 
ATOM     10  C   UNL     1       1.337   2.295  19.866  0.00  0.00    +0.000 A 
ATOM     11  C   UNL     1       0.872   2.830  18.670  0.00  0.00    +0.000 A 
ATOM     12  C   UNL     1       1.681   3.697  17.926  0.00  0.00    +0.000 A 
ENDBRANCH   6   7
BRANCH   1  14
ATOM     13  N   UNL     1       2.055   8.273  18.106  0.00  0.00    +0.000 N 
ATOM     14  C   UNL     1       2.728   7.160  18.595  0.00  0.00    +0.000 C 
ATOM     15  O   UNL     1       2.673   6.721  19.735  0.00  0.00    +0.000 OA
ATOM     16  H   UNL     1       2.171   8.530  17.134  0.00  0.00    +0.000 HD
BRANCH  13  21
ATOM     17  C   UNL     1       0.299   9.751  21.039  0.00  0.00    +0.000 A 
ATOM     18  C   UNL     1      -0.557  10.670  20.422  0.00  0.00    +0.000 A 
ATOM     19  C   UNL     1      -0.563  10.796  19.039  0.00  0.00    +0.000 A 
ATOM     20  C   UNL     1       0.287  10.010  18.262  0.00  0.00    +0.000 A 
ATOM     21  C   UNL     1       1.165   9.089  18.848  0.00  0.00    +0.000 A 
ATOM     22  C   UNL     1       1.160   8.968  20.246  0.00  0.00    +0.000 A 
BRANCH  17  24
ATOM     23  C   UNL     1      -0.879  10.407  23.136  0.00  0.00    +0.000 C 
ATOM     24  C   UNL     1       0.237   9.566  22.534  0.00  0.00    +0.000 C 
ENDBRANCH  17  24
ENDBRANCH  13  21
ENDBRANCH   1  14
BRANCH   4  25
ATOM     25  S   UNL     1       7.019   4.638  15.358  0.00  0.00    +0.000 S 
ATOM     26  C   UNL     1       6.225   4.027  13.852  0.00  0.00    +0.000 C 
ENDBRANCH   4  25
TORSDOF 5
ENDMDL
MODEL 4
REMARK VINA RESULT:      -7.9      1.302      1.702
REMARK  Name = 
REMARK  7 active torsions:
REMARK  status: ('A' for Active; 'I' for Inactive)
REMARK    1  A    between atoms: C_1  and  C_2
REMARK    2  A    between atoms: C_2  and  C_3
REMARK    3  A    between atoms: C_7  and  N_8
REMARK    4  A    between atoms: C_9  and  C_11
REMARK    5  A    between atoms: C_14  and  S_15
REMARK    6  A    between atoms: S_15  and  C_16
REMARK    7  A    between atoms: C_18  and  C_19
REMARK                            x       y       z     vdW  Elec       q    Type
REMARK                         _______ _______ _______ _____ _____    ______ ____
ROOT
ATOM      1  C   UNL     1       3.744   6.417  17.424  0.00  0.00    +0.000 A 
ATOM      2  C   UNL     1       4.581   7.178  16.635  0.00  0.00    +0.000 A 
ATOM      3  N   UNL     1       5.534   6.663  15.835  0.00  0.00    +0.000 NA
ATOM      4  C   UNL     1       5.676   5.330  15.857  0.00  0.00    +0.000 A 
ATOM      5  N   UNL     1       4.897   4.495  16.564  0.00  0.00    +0.000 NA
ATOM      6  C   UNL     1       3.921   5.037  17.350  0.00  0.00    +0.000 A 
ENDROOT
BRANCH   6   7
ATOM      7  C   UNL     1       3.113   4.026  18.087  0.00  0.00    +0.000 A 
ATOM      8  C   UNL     1       3.689   3.256  19.117  0.00  0.00    +0.000 A 
ATOM      9  C   UNL     1       2.936   2.339  19.862  0.00  0.00    +0.000 A 
ATOM     10  C   UNL     1       1.582   2.168  19.593  0.00  0.00    +0.000 A 
ATOM     11  C   UNL     1       0.992   2.888  18.561  0.00  0.00    +0.000 A 
ATOM     12  C   UNL     1       1.754   3.787  17.805  0.00  0.00    +0.000 A 
ENDBRANCH   6   7
BRANCH   1  14
ATOM     13  N   UNL     1       2.149   8.174  17.996  0.00  0.00    +0.000 N 
ATOM     14  C   UNL     1       2.898   7.086  18.428  0.00  0.00    +0.000 C 
ATOM     15  O   UNL     1       2.944   6.643  19.568  0.00  0.00    +0.000 OA
ATOM     16  H   UNL     1       2.183   8.437  17.019  0.00  0.00    +0.000 HD
BRANCH  13  21
ATOM     17  C   UNL     1      -0.453  10.672  18.926  0.00  0.00    +0.000 A 
ATOM     18  C   UNL     1      -0.474  10.552  20.320  0.00  0.00    +0.000 A 
ATOM     19  C   UNL     1       0.377   9.655  20.955  0.00  0.00    +0.000 A 
ATOM     20  C   UNL     1       1.250   8.870  20.204  0.00  0.00    +0.000 A 
ATOM     21  C   UNL     1       1.288   8.956  18.806  0.00  0.00    +0.000 A 
ATOM     22  C   UNL     1       0.427   9.867  18.176  0.00  0.00    +0.000 A 
BRANCH  17  24
ATOM     23  C   UNL     1      -2.455  11.042  17.488  0.00  0.00    +0.000 C 
ATOM     24  C   UNL     1      -1.321  11.705  18.256  0.00  0.00    +0.000 C 
ENDBRANCH  17  24
ENDBRANCH  13  21
ENDBRANCH   1  14
BRANCH   4  25
ATOM     25  S   UNL     1       7.026   4.688  14.898  0.00  0.00    +0.000 S 
ATOM     26  C   UNL     1       6.135   3.842  13.572  0.00  0.00    +0.000 C 
ENDBRANCH   4  25
TORSDOF 5
ENDMDL
MODEL 5
REMARK VINA RESULT:      -7.8      1.943      2.532
REMARK  Name = 
REMARK  7 active torsions:
REMARK  status: ('A' for Active; 'I' for Inactive)
REMARK    1  A    between atoms: C_1  and  C_2
REMARK    2  A    between atoms: C_2  and  C_3
REMARK    3  A    between atoms: C_7  and  N_8
REMARK    4  A    between atoms: C_9  and  C_11
REMARK    5  A    between atoms: C_14  and  S_15
REMARK    6  A    between atoms: S_15  and  C_16
REMARK    7  A    between atoms: C_18  and  C_19
REMARK                            x       y       z     vdW  Elec       q    Type
REMARK                         _______ _______ _______ _____ _____    ______ ____
ROOT
ATOM      1  C   UNL     1       4.020   6.196  17.350  0.00  0.00    +0.000 A 
ATOM      2  C   UNL     1       4.859   7.010  16.618  0.00  0.00    +0.000 A 
ATOM      3  N   UNL     1       5.694   6.564  15.662  0.00  0.00    +0.000 NA
ATOM      4  C   UNL     1       5.713   5.238  15.457  0.00  0.00    +0.000 A 
ATOM      5  N   UNL     1       4.919   4.361  16.091  0.00  0.00    +0.000 NA
ATOM      6  C   UNL     1       4.062   4.838  17.041  0.00  0.00    +0.000 A 
ENDROOT
BRANCH   6   7
ATOM      7  C   UNL     1       3.225   3.785  17.679  0.00  0.00    +0.000 A 
ATOM      8  C   UNL     1       3.816   2.628  18.225  0.00  0.00    +0.000 A 
ATOM      9  C   UNL     1       3.055   1.651  18.880  0.00  0.00    +0.000 A 
ATOM     10  C   UNL     1       1.679   1.805  19.003  0.00  0.00    +0.000 A 
ATOM     11  C   UNL     1       1.061   2.918  18.445  0.00  0.00    +0.000 A 
ATOM     12  C   UNL     1       1.822   3.882  17.773  0.00  0.00    +0.000 A 
ENDBRANCH   6   7
BRANCH   1  14
ATOM     13  N   UNL     1       2.432   7.795  18.288  0.00  0.00    +0.000 N 
ATOM     14  C   UNL     1       3.320   6.753  18.522  0.00  0.00    +0.000 C 
ATOM     15  O   UNL     1       3.599   6.267  19.609  0.00  0.00    +0.000 OA
ATOM     16  H   UNL     1       2.273   8.102  17.337  0.00  0.00    +0.000 HD
BRANCH  13  21
ATOM     17  C   UNL     1       0.271  10.387  19.865  0.00  0.00    +0.000 A 
ATOM     18  C   UNL     1       0.137   9.890  21.166  0.00  0.00    +0.000 A 
ATOM     19  C   UNL     1       0.767   8.706  21.527  0.00  0.00    +0.000 A 
ATOM     20  C   UNL     1       1.530   8.008  20.592  0.00  0.00    +0.000 A 
ATOM     21  C   UNL     1       1.675   8.471  19.279  0.00  0.00    +0.000 A 
ATOM     22  C   UNL     1       1.038   9.670  18.926  0.00  0.00    +0.000 A 
BRANCH  17  24
ATOM     23  C   UNL     1       0.258  12.834  20.341  0.00  0.00    +0.000 C 
ATOM     24  C   UNL     1      -0.349  11.714  19.509  0.00  0.00    +0.000 C 
ENDBRANCH  17  24
ENDBRANCH  13  21
ENDBRANCH   1  14
BRANCH   4  25
ATOM     25  S   UNL     1       6.920   4.662  14.288  0.00  0.00    +0.000 S 
ATOM     26  C   UNL     1       5.880   3.691  13.171  0.00  0.00    +0.000 C 
ENDBRANCH   4  25
TORSDOF 5
ENDMDL
MODEL 6
REMARK VINA RESULT:      -7.8      1.219      2.109
REMARK  Name = 
REMARK  7 active torsions:
REMARK  status: ('A' for Active; 'I' for Inactive)
REMARK    1  A    between atoms: C_1  and  C_2
REMARK    2  A    between atoms: C_2  and  C_3
REMARK    3  A    between atoms: C_7  and  N_8
REMARK    4  A    between atoms: C_9  and  C_11
REMARK    5  A    between atoms: C_14  and  S_15
REMARK    6  A    between atoms: S_15  and  C_16
REMARK    7  A    between atoms: C_18  and  C_19
REMARK                            x       y       z     vdW  Elec       q    Type
REMARK                         _______ _______ _______ _____ _____    ______ ____
ROOT
ATOM      1  C   UNL     1       3.201   6.836  18.056  0.00  0.00    +0.000 A 
ATOM      2  C   UNL     1       4.085   7.420  17.172  0.00  0.00    +0.000 A 
ATOM      3  N   UNL     1       5.111   6.767  16.594  0.00  0.00    +0.000 NA
ATOM      4  C   UNL     1       5.277   5.483  16.946  0.00  0.00    +0.000 A 
ATOM      5  N   UNL     1       4.459   4.812  17.772  0.00  0.00    +0.000 NA
ATOM      6  C   UNL     1       3.411   5.486  18.329  0.00  0.00    +0.000 A 
ENDROOT
BRANCH   6   7
ATOM      7  C   UNL     1       2.565   4.649  19.225  0.00  0.00    +0.000 A 
ATOM      8  C   UNL     1       1.484   3.909  18.708  0.00  0.00    +0.000 A 
ATOM      9  C   UNL     1       0.709   3.070  19.521  0.00  0.00    +0.000 A 
ATOM     10  C   UNL     1       0.997   2.953  20.876  0.00  0.00    +0.000 A 
ATOM     11  C   UNL     1       2.036   3.697  21.423  0.00  0.00    +0.000 A 
ATOM     12  C   UNL     1       2.794   4.550  20.612  0.00  0.00    +0.000 A 
ENDBRANCH   6   7
BRANCH   1  14
ATOM     13  N   UNL     1       1.507   8.594  18.062  0.00  0.00    +0.000 N 
ATOM     14  C   UNL     1       2.262   7.692  18.802  0.00  0.00    +0.000 C 
ATOM     15  O   UNL     1       2.242   7.555  20.018  0.00  0.00    +0.000 OA
ATOM     16  H   UNL     1       1.601   8.603  17.054  0.00  0.00    +0.000 HD
BRANCH  13  21
ATOM     17  C   UNL     1      -0.246  10.760  20.533  0.00  0.00    +0.000 A 
ATOM     18  C   UNL     1      -1.258  11.323  19.747  0.00  0.00    +0.000 A 
ATOM     19  C   UNL     1      -1.369  10.982  18.405  0.00  0.00    +0.000 A 
ATOM     20  C   UNL     1      -0.469  10.081  17.837  0.00  0.00    +0.000 A 
ATOM     21  C   UNL     1       0.562   9.508  18.592  0.00  0.00    +0.000 A 
ATOM     22  C   UNL     1       0.662   9.857  19.948  0.00  0.00    +0.000 A 
BRANCH  17  24
ATOM     23  C   UNL     1      -0.344   9.809  22.835  0.00  0.00    +0.000 C 
ATOM     24  C   UNL     1      -0.188  11.075  22.006  0.00  0.00    +0.000 C 
ENDBRANCH  17  24
ENDBRANCH  13  21
ENDBRANCH   1  14
BRANCH   4  25
ATOM     25  S   UNL     1       6.714   4.685  16.275  0.00  0.00    +0.000 S 
ATOM     26  C   UNL     1       7.749   4.543  17.751  0.00  0.00    +0.000 C 
ENDBRANCH   4  25
TORSDOF 5
ENDMDL
MODEL 7
REMARK VINA RESULT:      -7.8      0.665      1.935
REMARK  Name = 
REMARK  7 active torsions:
REMARK  status: ('A' for Active; 'I' for Inactive)
REMARK    1  A    between atoms: C_1  and  C_2
REMARK    2  A    between atoms: C_2  and  C_3
REMARK    3  A    between atoms: C_7  and  N_8
REMARK    4  A    between atoms: C_9  and  C_11
REMARK    5  A    between atoms: C_14  and  S_15
REMARK    6  A    between atoms: S_15  and  C_16
REMARK    7  A    between atoms: C_18  and  C_19
REMARK                            x       y       z     vdW  Elec       q    Type
REMARK                         _______ _______ _______ _____ _____    ______ ____
ROOT
ATOM      1  C   UNL     1       3.410   6.827  17.832  0.00  0.00    +0.000 A 
ATOM      2  C   UNL     1       4.355   7.344  16.970  0.00  0.00    +0.000 A 
ATOM      3  N   UNL     1       5.404   6.645  16.498  0.00  0.00    +0.000 NA
ATOM      4  C   UNL     1       5.529   5.384  16.939  0.00  0.00    +0.000 A 
ATOM      5  N   UNL     1       4.653   4.775  17.754  0.00  0.00    +0.000 NA
ATOM      6  C   UNL     1       3.583   5.495  18.202  0.00  0.00    +0.000 A 
ENDROOT
BRANCH   6   7
ATOM      7  C   UNL     1       2.672   4.725  19.094  0.00  0.00    +0.000 A 
ATOM      8  C   UNL     1       1.547   4.057  18.570  0.00  0.00    +0.000 A 
ATOM      9  C   UNL     1       0.708   3.281  19.380  0.00  0.00    +0.000 A 
ATOM     10  C   UNL     1       0.973   3.155  20.740  0.00  0.00    +0.000 A 
ATOM     11  C   UNL     1       2.055   3.829  21.292  0.00  0.00    +0.000 A 
ATOM     12  C   UNL     1       2.878   4.621  20.483  0.00  0.00    +0.000 A 
ENDBRANCH   6   7
BRANCH   1  14
ATOM     13  N   UNL     1       1.873   8.715  17.654  0.00  0.00    +0.000 N 
ATOM     14  C   UNL     1       2.439   7.738  18.464  0.00  0.00    +0.000 C 
ATOM     15  O   UNL     1       2.231   7.575  19.659  0.00  0.00    +0.000 OA
ATOM     16  H   UNL     1       2.115   8.740  16.672  0.00  0.00    +0.000 HD
BRANCH  13  21
ATOM     17  C   UNL     1       0.530  11.858  19.135  0.00  0.00    +0.000 A 
ATOM     18  C   UNL     1      -0.846  11.697  18.938  0.00  0.00    +0.000 A 
ATOM     19  C   UNL     1      -1.333  10.549  18.327  0.00  0.00    +0.000 A 
ATOM     20  C   UNL     1      -0.451   9.556  17.904  0.00  0.00    +0.000 A 
ATOM     21  C   UNL     1       0.933   9.690  18.074  0.00  0.00    +0.000 A 
ATOM     22  C   UNL     1       1.413  10.852  18.697  0.00  0.00    +0.000 A 
BRANCH  17  24
ATOM     23  C   UNL     1       1.063  14.287  18.960  0.00  0.00    +0.000 C 
ATOM     24  C   UNL     1       1.038  13.070  19.873  0.00  0.00    +0.000 C 
ENDBRANCH  17  24
ENDBRANCH  13  21
ENDBRANCH   1  14
BRANCH   4  25
ATOM     25  S   UNL     1       6.993   4.530  16.409  0.00  0.00    +0.000 S 
ATOM     26  C   UNL     1       6.674   4.368  14.637  0.00  0.00    +0.000 C 
ENDBRANCH   4  25
TORSDOF 5
ENDMDL
MODEL 8
REMARK VINA RESULT:      -7.8      1.956      2.439
REMARK  Name = 
REMARK  7 active torsions:
REMARK  status: ('A' for Active; 'I' for Inactive)
REMARK    1  A    between atoms: C_1  and  C_2
REMARK    2  A    between atoms: C_2  and  C_3
REMARK    3  A    between atoms: C_7  and  N_8
REMARK    4  A    between atoms: C_9  and  C_11
REMARK    5  A    between atoms: C_14  and  S_15
REMARK    6  A    between atoms: S_15  and  C_16
REMARK    7  A    between atoms: C_18  and  C_19
REMARK                            x       y       z     vdW  Elec       q    Type
REMARK                         _______ _______ _______ _____ _____    ______ ____
ROOT
ATOM      1  C   UNL     1       3.318   6.798  17.906  0.00  0.00    +0.000 A 
ATOM      2  C   UNL     1       4.295   7.361  17.111  0.00  0.00    +0.000 A 
ATOM      3  N   UNL     1       5.413   6.719  16.726  0.00  0.00    +0.000 NA
ATOM      4  C   UNL     1       5.575   5.471  17.189  0.00  0.00    +0.000 A 
ATOM      5  N   UNL     1       4.674   4.819  17.943  0.00  0.00    +0.000 NA
ATOM      6  C   UNL     1       3.536   5.480  18.302  0.00  0.00    +0.000 A 
ENDROOT
BRANCH   6   7
ATOM      7  C   UNL     1       2.605   4.667  19.132  0.00  0.00    +0.000 A 
ATOM      8  C   UNL     1       1.579   3.910  18.532  0.00  0.00    +0.000 A 
ATOM      9  C   UNL     1       0.727   3.093  19.286  0.00  0.00    +0.000 A 
ATOM     10  C   UNL     1       0.879   3.015  20.666  0.00  0.00    +0.000 A 
ATOM     11  C   UNL     1       1.859   3.776  21.293  0.00  0.00    +0.000 A 
ATOM     12  C   UNL     1       2.694   4.607  20.537  0.00  0.00    +0.000 A 
ENDBRANCH   6   7
BRANCH   1  14
ATOM     13  N   UNL     1       2.240   7.843  19.831  0.00  0.00    +0.000 N 
ATOM     14  C   UNL     1       2.254   7.658  18.454  0.00  0.00    +0.000 C 
ATOM     15  O   UNL     1       1.453   8.118  17.652  0.00  0.00    +0.000 OA
ATOM     16  H   UNL     1       2.970   7.421  20.391  0.00  0.00    +0.000 HD
BRANCH  13  21
ATOM     17  C   UNL     1       0.226  10.795  20.879  0.00  0.00    +0.000 A 
ATOM     18  C   UNL     1      -0.558  10.253  21.904  0.00  0.00    +0.000 A 
ATOM     19  C   UNL     1      -0.416   8.917  22.257  0.00  0.00    +0.000 A 
ATOM     20  C   UNL     1       0.505   8.112  21.587  0.00  0.00    +0.000 A 
ATOM     21  C   UNL     1       1.296   8.620  20.549  0.00  0.00    +0.000 A 
ATOM     22  C   UNL     1       1.147   9.972  20.204  0.00  0.00    +0.000 A 
BRANCH  17  24
ATOM     23  C   UNL     1      -0.154  13.071  21.824  0.00  0.00    +0.000 C 
ATOM     24  C   UNL     1       0.120  12.265  20.562  0.00  0.00    +0.000 C 
ENDBRANCH  17  24
ENDBRANCH  13  21
ENDBRANCH   1  14
BRANCH   4  25
ATOM     25  S   UNL     1       7.119   4.696  16.779  0.00  0.00    +0.000 S 
ATOM     26  C   UNL     1       7.027   4.679  14.974  0.00  0.00    +0.000 C 
ENDBRANCH   4  25
TORSDOF 5
ENDMDL
MODEL 9
REMARK VINA RESULT:      -7.7      1.732      2.371
REMARK  Name = 
REMARK  7 active torsions:
REMARK  status: ('A' for Active; 'I' for Inactive)
REMARK    1  A    between atoms: C_1  and  C_2
REMARK    2  A    between atoms: C_2  and  C_3
REMARK    3  A    between atoms: C_7  and  N_8
REMARK    4  A    between atoms: C_9  and  C_11
REMARK    5  A    between atoms: C_14  and  S_15
REMARK    6  A    between atoms: S_15  and  C_16
REMARK    7  A    between atoms: C_18  and  C_19
REMARK                            x       y       z     vdW  Elec       q    Type
REMARK                         _______ _______ _______ _____ _____    ______ ____
ROOT
ATOM      1  C   UNL     1       3.323   6.745  17.859  0.00  0.00    +0.000 A 
ATOM      2  C   UNL     1       4.299   7.340  17.086  0.00  0.00    +0.000 A 
ATOM      3  N   UNL     1       5.437   6.729  16.710  0.00  0.00    +0.000 NA
ATOM      4  C   UNL     1       5.620   5.478  17.159  0.00  0.00    +0.000 A 
ATOM      5  N   UNL     1       4.724   4.796  17.890  0.00  0.00    +0.000 NA
ATOM      6  C   UNL     1       3.565   5.427  18.241  0.00  0.00    +0.000 A 
ENDROOT
BRANCH   6   7
ATOM      7  C   UNL     1       2.641   4.582  19.046  0.00  0.00    +0.000 A 
ATOM      8  C   UNL     1       2.726   4.560  20.452  0.00  0.00    +0.000 A 
ATOM      9  C   UNL     1       1.831   3.818  21.233  0.00  0.00    +0.000 A 
ATOM     10  C   UNL     1       0.826   3.073  20.625  0.00  0.00    +0.000 A 
ATOM     11  C   UNL     1       0.736   3.047  19.238  0.00  0.00    +0.000 A 
ATOM     12  C   UNL     1       1.646   3.774  18.461  0.00  0.00    +0.000 A 
ENDBRANCH   6   7
BRANCH   1  14
ATOM     13  N   UNL     1       2.276   7.861  19.760  0.00  0.00    +0.000 N 
ATOM     14  C   UNL     1       2.232   7.573  18.402  0.00  0.00    +0.000 C 
ATOM     15  O   UNL     1       1.361   7.918  17.614  0.00  0.00    +0.000 OA
ATOM     16  H   UNL     1       3.061   7.530  20.307  0.00  0.00    +0.000 HD
BRANCH  13  21
ATOM     17  C   UNL     1       0.127  10.751  20.709  0.00  0.00    +0.000 A 
ATOM     18  C   UNL     1      -0.571  10.235  21.807  0.00  0.00    +0.000 A 
ATOM     19  C   UNL     1      -0.327   8.939  22.241  0.00  0.00    +0.000 A 
ATOM     20  C   UNL     1       0.611   8.147  21.581  0.00  0.00    +0.000 A 
ATOM     21  C   UNL     1       1.319   8.627  20.472  0.00  0.00    +0.000 A 
ATOM     22  C   UNL     1       1.067   9.940  20.045  0.00  0.00    +0.000 A 
BRANCH  17  24
ATOM     23  C   UNL     1      -1.573  12.509  20.228  0.00  0.00    +0.000 C 
ATOM     24  C   UNL     1      -0.088  12.185  20.300  0.00  0.00    +0.000 C 
ENDBRANCH  17  24
ENDBRANCH  13  21
ENDBRANCH   1  14
BRANCH   4  25
ATOM     25  S   UNL     1       7.188   4.744  16.762  0.00  0.00    +0.000 S 
ATOM     26  C   UNL     1       7.092   4.681  14.958  0.00  0.00    +0.000 C 
ENDBRANCH   4  25
TORSDOF 5
ENDMDL
