MODEL 1
REMARK VINA RESULT:      -6.7      0.000      0.000
REMARK  Name = 
REMARK  7 active torsions:
REMARK  status: ('A' for Active; 'I' for Inactive)
REMARK    1  A    between atoms: C_1  and  O_2
REMARK    2  A    between atoms: O_2  and  C_3
REMARK    3  A    between atoms: C_6  and  N_7
REMARK    4  A    between atoms: C_8  and  S_9
REMARK    5  A    between atoms: N_10  and  C_11
REMARK    6  A    between atoms: C_18  and  O_19
REMARK    7  A    between atoms: O_19  and  C_20
REMARK                            x       y       z     vdW  Elec       q    Type
REMARK                         _______ _______ _______ _____ _____    ______ ____
ROOT
ATOM      1  N   UNL     1       3.651   4.927  18.404  0.00  0.00    +0.000 NA
ATOM      2  C   UNL     1       2.856   5.910  18.721  0.00  0.00    +0.000 C 
ATOM      3  N   UNL     1       1.804   5.838  19.599  0.00  0.00    +0.000 N 
ATOM      4  H   UNL     1       1.355   6.725  19.790  0.00  0.00    +0.000 HD
ENDROOT
BRANCH   3   5
ATOM      5  C   UNL     1       1.546   4.752  20.536  0.00  0.00    +0.000 C 
ATOM      6  C   UNL     1       0.550   3.738  19.935  0.00  0.00    +0.000 C 
ATOM      7  C   UNL     1       0.995   2.904  18.730  0.00  0.00    +0.000 C 
ATOM      8  C   UNL     1       1.923   1.727  19.017  0.00  0.00    +0.000 C 
ATOM      9  C   UNL     1       3.213   2.037  19.762  0.00  0.00    +0.000 C 
ATOM     10  C   UNL     1       3.013   2.675  21.132  0.00  0.00    +0.000 C 
ATOM     11  C   UNL     1       2.872   4.192  21.065  0.00  0.00    +0.000 C 
ENDBRANCH   3   5
BRANCH   1  15
ATOM     12  C   UNL     1       6.912   5.235  15.668  0.00  0.00    +0.000 A 
ATOM     13  C   UNL     1       5.608   5.025  15.231  0.00  0.00    +0.000 A 
ATOM     14  C   UNL     1       4.546   4.984  16.139  0.00  0.00    +0.000 A 
ATOM     15  C   UNL     1       4.753   5.063  17.522  0.00  0.00    +0.000 A 
ATOM     16  C   UNL     1       6.066   5.365  17.944  0.00  0.00    +0.000 A 
ATOM     17  C   UNL     1       7.143   5.412  17.031  0.00  0.00    +0.000 A 
BRANCH  12  19
ATOM     18  C   UNL     1       7.386   4.922  13.361  0.00  0.00    +0.000 C 
ATOM     19  O   UNL     1       7.848   5.227  14.676  0.00  0.00    +0.000 OA
ENDBRANCH  12  19
BRANCH  16  20
ATOM     20  O   UNL     1       6.428   5.616  19.249  0.00  0.00    +0.000 OA
ATOM     21  C   UNL     1       7.836   5.773  19.417  0.00  0.00    +0.000 C 
ENDBRANCH  16  20
ENDBRANCH   1  15
BRANCH   2  22
ATOM     22  S   UNL     1       2.996   7.563  18.131  0.00  0.00    +0.000 S 
ATOM     23  H   UNL     1       2.163   7.412  17.092  0.00  0.00    +0.000 HD
ENDBRANCH   2  22
TORSDOF 5
ENDMDL
MODEL 2
REMARK VINA RESULT:      -6.4      2.869      4.225
REMARK  Name = 
REMARK  7 active torsions:
REMARK  status: ('A' for Active; 'I' for Inactive)
REMARK    1  A    between atoms: C_1  and  O_2
REMARK    2  A    between atoms: O_2  and  C_3
REMARK    3  A    between atoms: C_6  and  N_7
REMARK    4  A    between atoms: C_8  and  S_9
REMARK    5  A    between atoms: N_10  and  C_11
REMARK    6  A    between atoms: C_18  and  O_19
REMARK    7  A    between atoms: O_19  and  C_20
REMARK                            x       y       z     vdW  Elec       q    Type
REMARK                         _______ _______ _______ _____ _____    ______ ____
ROOT
ATOM      1  N   UNL     1       3.865   6.574  18.336  0.00  0.00    +0.000 NA
ATOM      2  C   UNL     1       2.648   6.211  18.629  0.00  0.00    +0.000 C 
ATOM      3  N   UNL     1       1.792   6.879  19.468  0.00  0.00    +0.000 N 
ATOM      4  H   UNL     1       0.855   6.497  19.504  0.00  0.00    +0.000 HD
ENDROOT
BRANCH   3   5
ATOM      5  C   UNL     1       1.972   8.236  19.967  0.00  0.00    +0.000 C 
ATOM      6  C   UNL     1       2.032   9.244  18.799  0.00  0.00    +0.000 C 
ATOM      7  C   UNL     1       0.769   9.469  17.964  0.00  0.00    +0.000 C 
ATOM      8  C   UNL     1      -0.314  10.348  18.584  0.00  0.00    +0.000 C 
ATOM      9  C   UNL     1      -0.832   9.934  19.953  0.00  0.00    +0.000 C 
ATOM     10  C   UNL     1       0.236   9.867  21.038  0.00  0.00    +0.000 C 
ATOM     11  C   UNL     1       0.956   8.524  21.079  0.00  0.00    +0.000 C 
ENDBRANCH   3   5
BRANCH   1  15
ATOM     12  C   UNL     1       6.270   4.480  15.500  0.00  0.00    +0.000 A 
ATOM     13  C   UNL     1       5.550   5.618  15.150  0.00  0.00    +0.000 A 
ATOM     14  C   UNL     1       4.815   6.322  16.107  0.00  0.00    +0.000 A 
ATOM     15  C   UNL     1       4.695   5.871  17.427  0.00  0.00    +0.000 A 
ATOM     16  C   UNL     1       5.501   4.769  17.788  0.00  0.00    +0.000 A 
ATOM     17  C   UNL     1       6.251   4.055  16.828  0.00  0.00    +0.000 A 
BRANCH  12  19
ATOM     18  C   UNL     1       6.201   3.765  13.235  0.00  0.00    +0.000 C 
ATOM     19  O   UNL     1       6.922   3.882  14.461  0.00  0.00    +0.000 OA
ENDBRANCH  12  19
BRANCH  16  20
ATOM     20  O   UNL     1       5.620   4.275  19.069  0.00  0.00    +0.000 OA
ATOM     21  C   UNL     1       4.732   3.191  19.334  0.00  0.00    +0.000 C 
ENDBRANCH  16  20
ENDBRANCH   1  15
BRANCH   2  22
ATOM     22  S   UNL     1       1.815   4.809  17.963  0.00  0.00    +0.000 S 
ATOM     23  H   UNL     1       2.799   4.446  17.129  0.00  0.00    +0.000 HD
ENDBRANCH   2  22
TORSDOF 5
ENDMDL
MODEL 3
REMARK VINA RESULT:      -6.3      1.161      1.350
REMARK  Name = 
REMARK  7 active torsions:
REMARK  status: ('A' for Active; 'I' for Inactive)
REMARK    1  A    between atoms: C_1  and  O_2
REMARK    2  A    between atoms: O_2  and  C_3
REMARK    3  A    between atoms: C_6  and  N_7
REMARK    4  A    between atoms: C_8  and  S_9
REMARK    5  A    between atoms: N_10  and  C_11
REMARK    6  A    between atoms: C_18  and  O_19
REMARK    7  A    between atoms: O_19  and  C_20
REMARK                            x       y       z     vdW  Elec       q    Type
REMARK                         _______ _______ _______ _____ _____    ______ ____
ROOT
ATOM      1  N   UNL     1       4.299   4.744  17.653  0.00  0.00    +0.000 NA
ATOM      2  C   UNL     1       3.678   5.798  18.102  0.00  0.00    +0.000 C 
ATOM      3  N   UNL     1       2.878   5.843  19.216  0.00  0.00    +0.000 N 
ATOM      4  H   UNL     1       2.553   6.769  19.463  0.00  0.00    +0.000 HD
ENDROOT
BRANCH   3   5
ATOM      5  C   UNL     1       2.790   4.816  20.246  0.00  0.00    +0.000 C 
ATOM      6  C   UNL     1       1.380   4.190  20.274  0.00  0.00    +0.000 C 
ATOM      7  C   UNL     1       0.929   3.354  19.073  0.00  0.00    +0.000 C 
ATOM      8  C   UNL     1       1.487   1.936  18.978  0.00  0.00    +0.000 C 
ATOM      9  C   UNL     1       3.002   1.794  18.993  0.00  0.00    +0.000 C 
ATOM     10  C   UNL     1       3.677   2.360  20.238  0.00  0.00    +0.000 C 
ATOM     11  C   UNL     1       3.975   3.850  20.125  0.00  0.00    +0.000 C 
ENDBRANCH   3   5
BRANCH   1  15
ATOM     12  C   UNL     1       6.795   4.675  14.193  0.00  0.00    +0.000 A 
ATOM     13  C   UNL     1       5.439   4.372  14.123  0.00  0.00    +0.000 A 
ATOM     14  C   UNL     1       4.627   4.456  15.256  0.00  0.00    +0.000 A 
ATOM     15  C   UNL     1       5.151   4.759  16.519  0.00  0.00    +0.000 A 
ATOM     16  C   UNL     1       6.506   5.151  16.559  0.00  0.00    +0.000 A 
ATOM     17  C   UNL     1       7.333   5.072  15.416  0.00  0.00    +0.000 A 
BRANCH  12  19
ATOM     18  C   UNL     1       6.869   3.681  12.036  0.00  0.00    +0.000 C 
ATOM     19  O   UNL     1       7.469   4.527  13.015  0.00  0.00    +0.000 OA
ENDBRANCH  12  19
BRANCH  16  20
ATOM     20  O   UNL     1       7.153   5.614  17.684  0.00  0.00    +0.000 OA
ATOM     21  C   UNL     1       7.494   6.996  17.603  0.00  0.00    +0.000 C 
ENDBRANCH  16  20
ENDBRANCH   1  15
BRANCH   2  22
ATOM     22  S   UNL     1       3.778   7.412  17.405  0.00  0.00    +0.000 S 
ATOM     23  H   UNL     1       2.885   7.199  16.429  0.00  0.00    +0.000 HD
ENDBRANCH   2  22
TORSDOF 5
ENDMDL
MODEL 4
REMARK VINA RESULT:      -6.2      4.178      6.062
REMARK  Name = 
REMARK  7 active torsions:
REMARK  status: ('A' for Active; 'I' for Inactive)
REMARK    1  A    between atoms: C_1  and  O_2
REMARK    2  A    between atoms: O_2  and  C_3
REMARK    3  A    between atoms: C_6  and  N_7
REMARK    4  A    between atoms: C_8  and  S_9
REMARK    5  A    between atoms: N_10  and  C_11
REMARK    6  A    between atoms: C_18  and  O_19
REMARK    7  A    between atoms: O_19  and  C_20
REMARK                            x       y       z     vdW  Elec       q    Type
REMARK                         _______ _______ _______ _____ _____    ______ ____
ROOT
ATOM      1  N   UNL     1       2.348   7.534  18.121  0.00  0.00    +0.000 NA
ATOM      2  C   UNL     1       1.903   8.009  19.250  0.00  0.00    +0.000 C 
ATOM      3  N   UNL     1       1.449   9.286  19.459  0.00  0.00    +0.000 N 
ATOM      4  H   UNL     1       1.057   9.448  20.378  0.00  0.00    +0.000 HD
ENDROOT
BRANCH   3   5
ATOM      5  C   UNL     1       1.122  10.257  18.422  0.00  0.00    +0.000 C 
ATOM      6  C   UNL     1      -0.310  10.031  17.893  0.00  0.00    +0.000 C 
ATOM      7  C   UNL     1      -1.487  10.295  18.837  0.00  0.00    +0.000 C 
ATOM      8  C   UNL     1      -1.868  11.756  19.063  0.00  0.00    +0.000 C 
ATOM      9  C   UNL     1      -0.768  12.683  19.558  0.00  0.00    +0.000 C 
ATOM     10  C   UNL     1       0.445  12.770  18.639  0.00  0.00    +0.000 C 
ATOM     11  C   UNL     1       1.469  11.671  18.902  0.00  0.00    +0.000 C 
ENDBRANCH   3   5
BRANCH   1  15
ATOM     12  C   UNL     1       3.507   3.451  17.678  0.00  0.00    +0.000 A 
ATOM     13  C   UNL     1       2.169   3.827  17.760  0.00  0.00    +0.000 A 
ATOM     14  C   UNL     1       1.809   5.174  17.847  0.00  0.00    +0.000 A 
ATOM     15  C   UNL     1       2.767   6.191  17.945  0.00  0.00    +0.000 A 
ATOM     16  C   UNL     1       4.113   5.803  17.770  0.00  0.00    +0.000 A 
ATOM     17  C   UNL     1       4.485   4.444  17.677  0.00  0.00    +0.000 A 
BRANCH  12  19
ATOM     18  C   UNL     1       3.603   1.387  18.851  0.00  0.00    +0.000 C 
ATOM     19  O   UNL     1       3.712   2.103  17.622  0.00  0.00    +0.000 OA
ENDBRANCH  12  19
BRANCH  16  20
ATOM     20  O   UNL     1       5.175   6.678  17.697  0.00  0.00    +0.000 OA
ATOM     21  C   UNL     1       6.115   6.332  16.682  0.00  0.00    +0.000 C 
ENDBRANCH  16  20
ENDBRANCH   1  15
BRANCH   2  22
ATOM     22  S   UNL     1       1.735   7.091  20.744  0.00  0.00    +0.000 S 
ATOM     23  H   UNL     1       1.687   8.154  21.557  0.00  0.00    +0.000 HD
ENDBRANCH   2  22
TORSDOF 5
ENDMDL
MODEL 5
REMARK VINA RESULT:      -6.2      5.509      7.385
REMARK  Name = 
REMARK  7 active torsions:
REMARK  status: ('A' for Active; 'I' for Inactive)
REMARK    1  A    between atoms: C_1  and  O_2
REMARK    2  A    between atoms: O_2  and  C_3
REMARK    3  A    between atoms: C_6  and  N_7
REMARK    4  A    between atoms: C_8  and  S_9
REMARK    5  A    between atoms: N_10  and  C_11
REMARK    6  A    between atoms: C_18  and  O_19
REMARK    7  A    between atoms: O_19  and  C_20
REMARK                            x       y       z     vdW  Elec       q    Type
REMARK                         _______ _______ _______ _____ _____    ______ ____
ROOT
ATOM      1  N   UNL     1       1.457   9.064  18.905  0.00  0.00    +0.000 NA
ATOM      2  C   UNL     1       1.518   8.447  20.051  0.00  0.00    +0.000 C 
ATOM      3  N   UNL     1       1.994   7.176  20.252  0.00  0.00    +0.000 N 
ATOM      4  H   UNL     1       2.049   6.896  21.224  0.00  0.00    +0.000 HD
ENDROOT
BRANCH   3   5
ATOM      5  C   UNL     1       2.761   6.389  19.295  0.00  0.00    +0.000 C 
ATOM      6  C   UNL     1       3.531   5.258  20.009  0.00  0.00    +0.000 C 
ATOM      7  C   UNL     1       2.729   4.123  20.652  0.00  0.00    +0.000 C 
ATOM      8  C   UNL     1       2.168   3.061  19.710  0.00  0.00    +0.000 C 
ATOM      9  C   UNL     1       1.287   3.552  18.571  0.00  0.00    +0.000 C 
ATOM     10  C   UNL     1       1.963   4.542  17.630  0.00  0.00    +0.000 C 
ATOM     11  C   UNL     1       1.867   5.984  18.116  0.00  0.00    +0.000 C 
ENDBRANCH   3   5
BRANCH   1  15
ATOM     12  C   UNL     1       0.173  13.117  18.539  0.00  0.00    +0.000 A 
ATOM     13  C   UNL     1       1.522  12.778  18.587  0.00  0.00    +0.000 A 
ATOM     14  C   UNL     1       1.923  11.441  18.649  0.00  0.00    +0.000 A 
ATOM     15  C   UNL     1       0.997  10.397  18.755  0.00  0.00    +0.000 A 
ATOM     16  C   UNL     1      -0.364  10.747  18.615  0.00  0.00    +0.000 A 
ATOM     17  C   UNL     1      -0.776  12.097  18.548  0.00  0.00    +0.000 A 
BRANCH  12  19
ATOM     18  C   UNL     1       0.973  15.313  18.969  0.00  0.00    +0.000 C 
ATOM     19  O   UNL     1      -0.071  14.459  18.505  0.00  0.00    +0.000 OA
ENDBRANCH  12  19
BRANCH  16  20
ATOM     20  O   UNL     1      -1.402   9.843  18.555  0.00  0.00    +0.000 OA
ATOM     21  C   UNL     1      -2.172   9.956  17.360  0.00  0.00    +0.000 C 
ENDBRANCH  16  20
ENDBRANCH   1  15
BRANCH   2  22
ATOM     22  S   UNL     1       1.055   9.136  21.604  0.00  0.00    +0.000 S 
ATOM     23  H   UNL     1       0.485   8.024  22.086  0.00  0.00    +0.000 HD
ENDBRANCH   2  22
TORSDOF 5
ENDMDL
MODEL 6
REMARK VINA RESULT:      -6.1      5.393      7.357
REMARK  Name = 
REMARK  7 active torsions:
REMARK  status: ('A' for Active; 'I' for Inactive)
REMARK    1  A    between atoms: C_1  and  O_2
REMARK    2  A    between atoms: O_2  and  C_3
REMARK    3  A    between atoms: C_6  and  N_7
REMARK    4  A    between atoms: C_8  and  S_9
REMARK    5  A    between atoms: N_10  and  C_11
REMARK    6  A    between atoms: C_18  and  O_19
REMARK    7  A    between atoms: O_19  and  C_20
REMARK                            x       y       z     vdW  Elec       q    Type
REMARK                         _______ _______ _______ _____ _____    ______ ____
ROOT
ATOM      1  N   UNL     1       1.615   8.945  18.264  0.00  0.00    +0.000 NA
ATOM      2  C   UNL     1       1.742   8.149  19.287  0.00  0.00    +0.000 C 
ATOM      3  N   UNL     1       2.116   6.830  19.235  0.00  0.00    +0.000 N 
ATOM      4  H   UNL     1       2.249   6.395  20.140  0.00  0.00    +0.000 HD
ENDROOT
BRANCH   3   5
ATOM      5  C   UNL     1       2.698   6.153  18.084  0.00  0.00    +0.000 C 
ATOM      6  C   UNL     1       4.237   6.111  18.195  0.00  0.00    +0.000 C 
ATOM      7  C   UNL     1       4.865   5.264  19.306  0.00  0.00    +0.000 C 
ATOM      8  C   UNL     1       4.904   3.755  19.077  0.00  0.00    +0.000 C 
ATOM      9  C   UNL     1       3.576   3.072  18.783  0.00  0.00    +0.000 C 
ATOM     10  C   UNL     1       2.854   3.601  17.549  0.00  0.00    +0.000 C 
ATOM     11  C   UNL     1       1.983   4.816  17.847  0.00  0.00    +0.000 C 
ENDBRANCH   3   5
BRANCH   1  15
ATOM     12  C   UNL     1       0.687  13.091  18.666  0.00  0.00    +0.000 A 
ATOM     13  C   UNL     1       1.986  12.652  18.431  0.00  0.00    +0.000 A 
ATOM     14  C   UNL     1       2.260  11.295  18.245  0.00  0.00    +0.000 A 
ATOM     15  C   UNL     1       1.267  10.316  18.374  0.00  0.00    +0.000 A 
ATOM     16  C   UNL     1      -0.057  10.781  18.522  0.00  0.00    +0.000 A 
ATOM     17  C   UNL     1      -0.343  12.153  18.706  0.00  0.00    +0.000 A 
BRANCH  12  19
ATOM     18  C   UNL     1      -0.556  14.887  19.602  0.00  0.00    +0.000 C 
ATOM     19  O   UNL     1       0.571  14.438  18.852  0.00  0.00    +0.000 OA
ENDBRANCH  12  19
BRANCH  16  20
ATOM     20  O   UNL     1      -1.174   9.974  18.526  0.00  0.00    +0.000 OA
ATOM     21  C   UNL     1      -1.926  10.055  17.317  0.00  0.00    +0.000 C 
ENDBRANCH  16  20
ENDBRANCH   1  15
BRANCH   2  22
ATOM     22  S   UNL     1       1.515   8.613  20.971  0.00  0.00    +0.000 S 
ATOM     23  H   UNL     1       0.214   8.297  21.029  0.00  0.00    +0.000 HD
ENDBRANCH   2  22
TORSDOF 5
ENDMDL
MODEL 7
REMARK VINA RESULT:      -6.1      1.135      1.780
REMARK  Name = 
REMARK  7 active torsions:
REMARK  status: ('A' for Active; 'I' for Inactive)
REMARK    1  A    between atoms: C_1  and  O_2
REMARK    2  A    between atoms: O_2  and  C_3
REMARK    3  A    between atoms: C_6  and  N_7
REMARK    4  A    between atoms: C_8  and  S_9
REMARK    5  A    between atoms: N_10  and  C_11
REMARK    6  A    between atoms: C_18  and  O_19
REMARK    7  A    between atoms: O_19  and  C_20
REMARK                            x       y       z     vdW  Elec       q    Type
REMARK                         _______ _______ _______ _____ _____    ______ ____
ROOT
ATOM      1  N   UNL     1       3.842   4.230  17.032  0.00  0.00    +0.000 NA
ATOM      2  C   UNL     1       3.149   5.116  17.689  0.00  0.00    +0.000 C 
ATOM      3  N   UNL     1       2.020   4.863  18.428  0.00  0.00    +0.000 N 
ATOM      4  H   UNL     1       1.668   5.660  18.943  0.00  0.00    +0.000 HD
ENDROOT
BRANCH   3   5
ATOM      5  C   UNL     1       1.545   3.549  18.838  0.00  0.00    +0.000 C 
ATOM      6  C   UNL     1       2.702   2.527  18.844  0.00  0.00    +0.000 C 
ATOM      7  C   UNL     1       3.823   2.700  19.873  0.00  0.00    +0.000 C 
ATOM      8  C   UNL     1       3.514   2.264  21.303  0.00  0.00    +0.000 C 
ATOM      9  C   UNL     1       2.293   2.889  21.961  0.00  0.00    +0.000 C 
ATOM     10  C   UNL     1       0.982   2.645  21.223  0.00  0.00    +0.000 C 
ATOM     11  C   UNL     1       0.719   3.669  20.125  0.00  0.00    +0.000 C 
ENDBRANCH   3   5
BRANCH   1  15
ATOM     12  C   UNL     1       7.364   5.074  14.775  0.00  0.00    +0.000 A 
ATOM     13  C   UNL     1       6.105   5.051  14.184  0.00  0.00    +0.000 A 
ATOM     14  C   UNL     1       4.958   4.829  14.951  0.00  0.00    +0.000 A 
ATOM     15  C   UNL     1       5.029   4.534  16.318  0.00  0.00    +0.000 A 
ATOM     16  C   UNL     1       6.301   4.650  16.920  0.00  0.00    +0.000 A 
ATOM     17  C   UNL     1       7.464   4.878  16.151  0.00  0.00    +0.000 A 
BRANCH  12  19
ATOM     18  C   UNL     1       8.046   5.444  12.529  0.00  0.00    +0.000 C 
ATOM     19  O   UNL     1       8.394   5.277  13.902  0.00  0.00    +0.000 OA
ENDBRANCH  12  19
BRANCH  16  20
ATOM     20  O   UNL     1       6.540   4.534  18.271  0.00  0.00    +0.000 OA
ATOM     21  C   UNL     1       7.549   5.426  18.739  0.00  0.00    +0.000 C 
ENDBRANCH  16  20
ENDBRANCH   1  15
BRANCH   2  22
ATOM     22  S   UNL     1       3.546   6.827  17.820  0.00  0.00    +0.000 S 
ATOM     23  H   UNL     1       2.280   7.259  17.889  0.00  0.00    +0.000 HD
ENDBRANCH   2  22
TORSDOF 5
ENDMDL
MODEL 8
REMARK VINA RESULT:      -6.0      2.868      6.944
REMARK  Name = 
REMARK  7 active torsions:
REMARK  status: ('A' for Active; 'I' for Inactive)
REMARK    1  A    between atoms: C_1  and  O_2
REMARK    2  A    between atoms: O_2  and  C_3
REMARK    3  A    between atoms: C_6  and  N_7
REMARK    4  A    between atoms: C_8  and  S_9
REMARK    5  A    between atoms: N_10  and  C_11
REMARK    6  A    between atoms: C_18  and  O_19
REMARK    7  A    between atoms: O_19  and  C_20
REMARK                            x       y       z     vdW  Elec       q    Type
REMARK                         _______ _______ _______ _____ _____    ______ ____
ROOT
ATOM      1  N   UNL     1       4.822   4.360  15.909  0.00  0.00    +0.000 NA
ATOM      2  C   UNL     1       6.113   4.344  15.731  0.00  0.00    +0.000 C 
ATOM      3  N   UNL     1       6.754   4.290  14.519  0.00  0.00    +0.000 N 
ATOM      4  H   UNL     1       7.762   4.379  14.572  0.00  0.00    +0.000 HD
ENDROOT
BRANCH   3   5
ATOM      5  C   UNL     1       6.140   4.512  13.217  0.00  0.00    +0.000 C 
ATOM      6  C   UNL     1       7.204   4.492  12.100  0.00  0.00    +0.000 C 
ATOM      7  C   UNL     1       7.919   3.172  11.797  0.00  0.00    +0.000 C 
ATOM      8  C   UNL     1       7.139   2.141  10.985  0.00  0.00    +0.000 C 
ATOM      9  C   UNL     1       5.782   1.722  11.533  0.00  0.00    +0.000 C 
ATOM     10  C   UNL     1       4.790   2.866  11.704  0.00  0.00    +0.000 C 
ATOM     11  C   UNL     1       4.933   3.581  13.043  0.00  0.00    +0.000 C 
ENDBRANCH   3   5
BRANCH   1  15
ATOM     12  C   UNL     1       2.900   4.546  19.715  0.00  0.00    +0.000 A 
ATOM     13  C   UNL     1       3.311   3.337  19.161  0.00  0.00    +0.000 A 
ATOM     14  C   UNL     1       3.990   3.303  17.940  0.00  0.00    +0.000 A 
ATOM     15  C   UNL     1       4.207   4.461  17.183  0.00  0.00    +0.000 A 
ATOM     16  C   UNL     1       3.867   5.686  17.797  0.00  0.00    +0.000 A 
ATOM     17  C   UNL     1       3.185   5.728  19.033  0.00  0.00    +0.000 A 
BRANCH  12  19
ATOM     18  C   UNL     1       2.232   3.138  21.508  0.00  0.00    +0.000 C 
ATOM     19  O   UNL     1       2.229   4.427  20.897  0.00  0.00    +0.000 OA
ENDBRANCH  12  19
BRANCH  16  20
ATOM     20  O   UNL     1       4.135   6.927  17.265  0.00  0.00    +0.000 OA
ATOM     21  C   UNL     1       3.167   7.910  17.624  0.00  0.00    +0.000 C 
ENDBRANCH  16  20
ENDBRANCH   1  15
BRANCH   2  22
ATOM     22  S   UNL     1       7.319   4.449  17.011  0.00  0.00    +0.000 S 
ATOM     23  H   UNL     1       7.552   3.133  17.092  0.00  0.00    +0.000 HD
ENDBRANCH   2  22
TORSDOF 5
ENDMDL
MODEL 9
REMARK VINA RESULT:      -6.0      5.229      7.395
REMARK  Name = 
REMARK  7 active torsions:
REMARK  status: ('A' for Active; 'I' for Inactive)
REMARK    1  A    between atoms: C_1  and  O_2
REMARK    2  A    between atoms: O_2  and  C_3
REMARK    3  A    between atoms: C_6  and  N_7
REMARK    4  A    between atoms: C_8  and  S_9
REMARK    5  A    between atoms: N_10  and  C_11
REMARK    6  A    between atoms: C_18  and  O_19
REMARK    7  A    between atoms: O_19  and  C_20
REMARK                            x       y       z     vdW  Elec       q    Type
REMARK                         _______ _______ _______ _____ _____    ______ ____
ROOT
ATOM      1  N   UNL     1       1.318   8.398  20.053  0.00  0.00    +0.000 NA
ATOM      2  C   UNL     1       2.071   8.189  19.011  0.00  0.00    +0.000 C 
ATOM      3  N   UNL     1       2.870   7.092  18.806  0.00  0.00    +0.000 N 
ATOM      4  H   UNL     1       3.313   7.059  17.896  0.00  0.00    +0.000 HD
ENDROOT
BRANCH   3   5
ATOM      5  C   UNL     1       2.823   5.849  19.563  0.00  0.00    +0.000 C 
ATOM      6  C   UNL     1       1.642   4.971  19.100  0.00  0.00    +0.000 C 
ATOM      7  C   UNL     1       1.681   4.380  17.687  0.00  0.00    +0.000 C 
ATOM      8  C   UNL     1       2.583   3.167  17.477  0.00  0.00    +0.000 C 
ATOM      9  C   UNL     1       4.046   3.325  17.864  0.00  0.00    +0.000 C 
ATOM     10  C   UNL     1       4.277   3.692  19.326  0.00  0.00    +0.000 C 
ATOM     11  C   UNL     1       4.210   5.194  19.579  0.00  0.00    +0.000 C 
ENDBRANCH   3   5
BRANCH   1  15
ATOM     12  C   UNL     1      -1.190  11.837  20.358  0.00  0.00    +0.000 A 
ATOM     13  C   UNL     1      -1.152  11.059  19.205  0.00  0.00    +0.000 A 
ATOM     14  C   UNL     1      -0.368   9.904  19.146  0.00  0.00    +0.000 A 
ATOM     15  C   UNL     1       0.476   9.529  20.199  0.00  0.00    +0.000 A 
ATOM     16  C   UNL     1       0.359  10.275  21.392  0.00  0.00    +0.000 A 
ATOM     17  C   UNL     1      -0.435  11.441  21.461  0.00  0.00    +0.000 A 
BRANCH  12  19
ATOM     18  C   UNL     1      -3.310  12.830  20.766  0.00  0.00    +0.000 C 
ATOM     19  O   UNL     1      -1.980  12.946  20.265  0.00  0.00    +0.000 OA
ENDBRANCH  12  19
BRANCH  16  20
ATOM     20  O   UNL     1       1.003   9.969  22.571  0.00  0.00    +0.000 OA
ATOM     21  C   UNL     1       0.129   9.438  23.564  0.00  0.00    +0.000 C 
ENDBRANCH  16  20
ENDBRANCH   1  15
BRANCH   2  22
ATOM     22  S   UNL     1       2.182   9.247  17.607  0.00  0.00    +0.000 S 
ATOM     23  H   UNL     1       1.099   8.766  16.983  0.00  0.00    +0.000 HD
ENDBRANCH   2  22
TORSDOF 5
ENDMDL
