MODEL 1
REMARK VINA RESULT:      -6.7      0.000      0.000
REMARK  Name = 
REMARK  4 active torsions:
REMARK  status: ('A' for Active; 'I' for Inactive)
REMARK    1  A    between atoms: C_1  and  C_2
REMARK    2  A    between atoms: C_2  and  C_3
REMARK    3  A    between atoms: C_2  and  C_11
REMARK    4  A    between atoms: C_3  and  C_5
REMARK                            x       y       z     vdW  Elec       q    Type
REMARK                         _______ _______ _______ _____ _____    ______ ____
ROOT
ATOM      1  C   UNL     1       2.993   6.554  18.950  0.00  0.00    +0.000 C 
ATOM      2  C   UNL     1       3.022   5.584  17.768  0.00  0.00    +0.000 C 
ENDROOT
BRANCH   2   3
ATOM      3  C   UNL     1       4.439   5.202  17.400  0.00  0.00    +0.000 A 
ATOM      4  C   UNL     1       4.713   4.350  16.329  0.00  0.00    +0.000 A 
ATOM      5  C   UNL     1       6.035   4.029  16.041  0.00  0.00    +0.000 A 
ATOM      6  C   UNL     1       7.050   4.558  16.827  0.00  0.00    +0.000 A 
ATOM      7  C   UNL     1       6.697   5.393  17.873  0.00  0.00    +0.000 A 
ATOM      8  N   UNL     1       5.422   5.727  18.174  0.00  0.00    +0.000 NA
ENDBRANCH   2   3
BRANCH   2   9
ATOM      9  C   UNL     1       2.197   4.331  18.053  0.00  0.00    +0.000 C 
ATOM     10  O   UNL     1       1.381   3.881  17.244  0.00  0.00    +0.000 OA
BRANCH   9  11
ATOM     11  C   UNL     1       2.300   3.672  19.385  0.00  0.00    +0.000 A 
ATOM     12  C   UNL     1       1.269   3.713  20.321  0.00  0.00    +0.000 A 
ATOM     13  C   UNL     1       1.478   3.099  21.542  0.00  0.00    +0.000 A 
ATOM     14  N   UNL     1       2.619   2.460  21.878  0.00  0.00    +0.000 NA
ATOM     15  C   UNL     1       3.602   2.438  20.955  0.00  0.00    +0.000 A 
ATOM     16  C   UNL     1       3.495   3.027  19.708  0.00  0.00    +0.000 A 
ENDBRANCH   9  11
ENDBRANCH   2   9
TORSDOF 3
ENDMDL
MODEL 2
REMARK VINA RESULT:      -6.7      0.359      1.221
REMARK  Name = 
REMARK  4 active torsions:
REMARK  status: ('A' for Active; 'I' for Inactive)
REMARK    1  A    between atoms: C_1  and  C_2
REMARK    2  A    between atoms: C_2  and  C_3
REMARK    3  A    between atoms: C_2  and  C_11
REMARK    4  A    between atoms: C_3  and  C_5
REMARK                            x       y       z     vdW  Elec       q    Type
REMARK                         _______ _______ _______ _____ _____    ______ ____
ROOT
ATOM      1  C   UNL     1       3.065   6.356  18.852  0.00  0.00    +0.000 C 
ATOM      2  C   UNL     1       3.211   5.370  17.692  0.00  0.00    +0.000 C 
ENDROOT
BRANCH   2   3
ATOM      3  C   UNL     1       4.666   5.073  17.399  0.00  0.00    +0.000 A 
ATOM      4  C   UNL     1       5.067   4.496  16.194  0.00  0.00    +0.000 A 
ATOM      5  C   UNL     1       6.417   4.240  15.982  0.00  0.00    +0.000 A 
ATOM      6  C   UNL     1       7.334   4.559  16.976  0.00  0.00    +0.000 A 
ATOM      7  C   UNL     1       6.857   5.127  18.144  0.00  0.00    +0.000 A 
ATOM      8  N   UNL     1       5.552   5.391  18.376  0.00  0.00    +0.000 NA
ENDBRANCH   2   3
BRANCH   2   9
ATOM      9  C   UNL     1       2.453   4.072  17.962  0.00  0.00    +0.000 C 
ATOM     10  O   UNL     1       1.797   3.499  17.089  0.00  0.00    +0.000 OA
BRANCH   9  11
ATOM     11  C   UNL     1       2.419   3.517  19.343  0.00  0.00    +0.000 A 
ATOM     12  C   UNL     1       3.505   2.852  19.909  0.00  0.00    +0.000 A 
ATOM     13  C   UNL     1       3.360   2.343  21.187  0.00  0.00    +0.000 A 
ATOM     14  N   UNL     1       2.231   2.456  21.918  0.00  0.00    +0.000 NA
ATOM     15  C   UNL     1       1.194   3.102  21.346  0.00  0.00    +0.000 A 
ATOM     16  C   UNL     1       1.235   3.642  20.073  0.00  0.00    +0.000 A 
ENDBRANCH   9  11
ENDBRANCH   2   9
TORSDOF 3
ENDMDL
MODEL 3
REMARK VINA RESULT:      -6.6      2.716      3.730
REMARK  Name = 
REMARK  4 active torsions:
REMARK  status: ('A' for Active; 'I' for Inactive)
REMARK    1  A    between atoms: C_1  and  C_2
REMARK    2  A    between atoms: C_2  and  C_3
REMARK    3  A    between atoms: C_2  and  C_11
REMARK    4  A    between atoms: C_3  and  C_5
REMARK                            x       y       z     vdW  Elec       q    Type
REMARK                         _______ _______ _______ _____ _____    ______ ____
ROOT
ATOM      1  C   UNL     1       7.124   6.618  17.106  0.00  0.00    +0.000 C 
ATOM      2  C   UNL     1       5.951   5.767  16.617  0.00  0.00    +0.000 C 
ENDROOT
BRANCH   2   3
ATOM      3  C   UNL     1       6.236   5.160  15.261  0.00  0.00    +0.000 A 
ATOM      4  C   UNL     1       5.348   4.268  14.658  0.00  0.00    +0.000 A 
ATOM      5  C   UNL     1       5.665   3.736  13.412  0.00  0.00    +0.000 A 
ATOM      6  C   UNL     1       6.858   4.100  12.801  0.00  0.00    +0.000 A 
ATOM      7  C   UNL     1       7.686   4.988  13.465  0.00  0.00    +0.000 A 
ATOM      8  N   UNL     1       7.403   5.524  14.673  0.00  0.00    +0.000 NA
ENDBRANCH   2   3
BRANCH   2   9
ATOM      9  C   UNL     1       5.599   4.671  17.621  0.00  0.00    +0.000 C 
ATOM     10  O   UNL     1       6.453   4.120  18.321  0.00  0.00    +0.000 OA
BRANCH   9  11
ATOM     11  C   UNL     1       4.197   4.176  17.704  0.00  0.00    +0.000 A 
ATOM     12  C   UNL     1       3.883   2.818  17.694  0.00  0.00    +0.000 A 
ATOM     13  C   UNL     1       2.547   2.462  17.740  0.00  0.00    +0.000 A 
ATOM     14  N   UNL     1       1.533   3.350  17.797  0.00  0.00    +0.000 NA
ATOM     15  C   UNL     1       1.864   4.658  17.802  0.00  0.00    +0.000 A 
ATOM     16  C   UNL     1       3.168   5.118  17.753  0.00  0.00    +0.000 A 
ENDBRANCH   9  11
ENDBRANCH   2   9
TORSDOF 3
ENDMDL
MODEL 4
REMARK VINA RESULT:      -6.6      1.453      5.354
REMARK  Name = 
REMARK  4 active torsions:
REMARK  status: ('A' for Active; 'I' for Inactive)
REMARK    1  A    between atoms: C_1  and  C_2
REMARK    2  A    between atoms: C_2  and  C_3
REMARK    3  A    between atoms: C_2  and  C_11
REMARK    4  A    between atoms: C_3  and  C_5
REMARK                            x       y       z     vdW  Elec       q    Type
REMARK                         _______ _______ _______ _____ _____    ______ ____
ROOT
ATOM      1  C   UNL     1       2.667   6.637  18.354  0.00  0.00    +0.000 C 
ATOM      2  C   UNL     1       3.517   5.390  18.603  0.00  0.00    +0.000 C 
ENDROOT
BRANCH   2   3
ATOM      3  C   UNL     1       2.842   4.445  19.573  0.00  0.00    +0.000 A 
ATOM      4  C   UNL     1       1.487   4.562  19.885  0.00  0.00    +0.000 A 
ATOM      5  C   UNL     1       0.921   3.668  20.788  0.00  0.00    +0.000 A 
ATOM      6  C   UNL     1       1.717   2.686  21.362  0.00  0.00    +0.000 A 
ATOM      7  C   UNL     1       3.053   2.637  21.003  0.00  0.00    +0.000 A 
ATOM      8  N   UNL     1       3.630   3.488  20.126  0.00  0.00    +0.000 NA
ENDBRANCH   2   3
BRANCH   2   9
ATOM      9  C   UNL     1       3.840   4.664  17.299  0.00  0.00    +0.000 C 
ATOM     10  O   UNL     1       3.110   3.783  16.838  0.00  0.00    +0.000 OA
BRANCH   9  11
ATOM     11  C   UNL     1       5.122   4.952  16.598  0.00  0.00    +0.000 A 
ATOM     12  C   UNL     1       5.420   4.430  15.342  0.00  0.00    +0.000 A 
ATOM     13  C   UNL     1       6.653   4.729  14.791  0.00  0.00    +0.000 A 
ATOM     14  N   UNL     1       7.581   5.500  15.397  0.00  0.00    +0.000 NA
ATOM     15  C   UNL     1       7.268   5.991  16.614  0.00  0.00    +0.000 A 
ATOM     16  C   UNL     1       6.066   5.746  17.253  0.00  0.00    +0.000 A 
ENDBRANCH   9  11
ENDBRANCH   2   9
TORSDOF 3
ENDMDL
MODEL 5
REMARK VINA RESULT:      -6.6      0.819      1.738
REMARK  Name = 
REMARK  4 active torsions:
REMARK  status: ('A' for Active; 'I' for Inactive)
REMARK    1  A    between atoms: C_1  and  C_2
REMARK    2  A    between atoms: C_2  and  C_3
REMARK    3  A    between atoms: C_2  and  C_11
REMARK    4  A    between atoms: C_3  and  C_5
REMARK                            x       y       z     vdW  Elec       q    Type
REMARK                         _______ _______ _______ _____ _____    ______ ____
ROOT
ATOM      1  C   UNL     1       3.032   6.322  18.814  0.00  0.00    +0.000 C 
ATOM      2  C   UNL     1       3.350   5.317  17.705  0.00  0.00    +0.000 C 
ENDROOT
BRANCH   2   3
ATOM      3  C   UNL     1       4.840   5.087  17.577  0.00  0.00    +0.000 A 
ATOM      4  C   UNL     1       5.728   5.466  18.584  0.00  0.00    +0.000 A 
ATOM      5  C   UNL     1       7.088   5.236  18.409  0.00  0.00    +0.000 A 
ATOM      6  C   UNL     1       7.531   4.639  17.235  0.00  0.00    +0.000 A 
ATOM      7  C   UNL     1       6.588   4.294  16.283  0.00  0.00    +0.000 A 
ATOM      8  N   UNL     1       5.260   4.501  16.427  0.00  0.00    +0.000 NA
ENDBRANCH   2   3
BRANCH   2   9
ATOM      9  C   UNL     1       2.630   3.989  17.931  0.00  0.00    +0.000 C 
ATOM     10  O   UNL     1       2.092   3.366  17.012  0.00  0.00    +0.000 OA
BRANCH   9  11
ATOM     11  C   UNL     1       2.482   3.462  19.316  0.00  0.00    +0.000 A 
ATOM     12  C   UNL     1       3.524   2.828  19.990  0.00  0.00    +0.000 A 
ATOM     13  C   UNL     1       3.274   2.343  21.261  0.00  0.00    +0.000 A 
ATOM     14  N   UNL     1       2.084   2.451  21.887  0.00  0.00    +0.000 NA
ATOM     15  C   UNL     1       1.091   3.067  21.212  0.00  0.00    +0.000 A 
ATOM     16  C   UNL     1       1.237   3.581  19.936  0.00  0.00    +0.000 A 
ENDBRANCH   9  11
ENDBRANCH   2   9
TORSDOF 3
ENDMDL
MODEL 6
REMARK VINA RESULT:      -6.6      1.650      2.636
REMARK  Name = 
REMARK  4 active torsions:
REMARK  status: ('A' for Active; 'I' for Inactive)
REMARK    1  A    between atoms: C_1  and  C_2
REMARK    2  A    between atoms: C_2  and  C_3
REMARK    3  A    between atoms: C_2  and  C_11
REMARK    4  A    between atoms: C_3  and  C_5
REMARK                            x       y       z     vdW  Elec       q    Type
REMARK                         _______ _______ _______ _____ _____    ______ ____
ROOT
ATOM      1  C   UNL     1       4.890   4.457  15.799  0.00  0.00    +0.000 C 
ATOM      2  C   UNL     1       4.861   4.615  17.320  0.00  0.00    +0.000 C 
ENDROOT
BRANCH   2   3
ATOM      3  C   UNL     1       6.034   5.435  17.813  0.00  0.00    +0.000 A 
ATOM      4  C   UNL     1       6.515   6.530  17.095  0.00  0.00    +0.000 A 
ATOM      5  C   UNL     1       7.600   7.243  17.593  0.00  0.00    +0.000 A 
ATOM      6  C   UNL     1       8.182   6.845  18.790  0.00  0.00    +0.000 A 
ATOM      7  C   UNL     1       7.649   5.748  19.442  0.00  0.00    +0.000 A 
ATOM      8  N   UNL     1       6.593   5.039  18.985  0.00  0.00    +0.000 NA
ENDBRANCH   2   3
BRANCH   2   9
ATOM      9  C   UNL     1       3.549   5.237  17.793  0.00  0.00    +0.000 C 
ATOM     10  O   UNL     1       3.282   6.428  17.613  0.00  0.00    +0.000 OA
BRANCH   9  11
ATOM     11  C   UNL     1       2.590   4.414  18.581  0.00  0.00    +0.000 A 
ATOM     12  C   UNL     1       1.872   3.360  18.019  0.00  0.00    +0.000 A 
ATOM     13  C   UNL     1       0.980   2.680  18.828  0.00  0.00    +0.000 A 
ATOM     14  N   UNL     1       0.768   2.974  20.128  0.00  0.00    +0.000 NA
ATOM     15  C   UNL     1       1.474   4.000  20.647  0.00  0.00    +0.000 A 
ATOM     16  C   UNL     1       2.385   4.746  19.922  0.00  0.00    +0.000 A 
ENDBRANCH   9  11
ENDBRANCH   2   9
TORSDOF 3
ENDMDL
MODEL 7
REMARK VINA RESULT:      -6.6      2.360      3.392
REMARK  Name = 
REMARK  4 active torsions:
REMARK  status: ('A' for Active; 'I' for Inactive)
REMARK    1  A    between atoms: C_1  and  C_2
REMARK    2  A    between atoms: C_2  and  C_3
REMARK    3  A    between atoms: C_2  and  C_11
REMARK    4  A    between atoms: C_3  and  C_5
REMARK                            x       y       z     vdW  Elec       q    Type
REMARK                         _______ _______ _______ _____ _____    ______ ____
ROOT
ATOM      1  C   UNL     1       7.385   7.300  17.552  0.00  0.00    +0.000 C 
ATOM      2  C   UNL     1       6.228   6.302  17.468  0.00  0.00    +0.000 C 
ENDROOT
BRANCH   2   3
ATOM      3  C   UNL     1       6.256   5.533  16.165  0.00  0.00    +0.000 A 
ATOM      4  C   UNL     1       5.201   4.703  15.783  0.00  0.00    +0.000 A 
ATOM      5  C   UNL     1       5.283   4.016  14.577  0.00  0.00    +0.000 A 
ATOM      6  C   UNL     1       6.413   4.167  13.784  0.00  0.00    +0.000 A 
ATOM      7  C   UNL     1       7.418   5.006  14.234  0.00  0.00    +0.000 A 
ATOM      8  N   UNL     1       7.364   5.690  15.398  0.00  0.00    +0.000 NA
ENDBRANCH   2   3
BRANCH   2   9
ATOM      9  C   UNL     1       6.237   5.335  18.650  0.00  0.00    +0.000 C 
ATOM     10  O   UNL     1       7.284   4.908  19.144  0.00  0.00    +0.000 OA
BRANCH   9  11
ATOM     11  C   UNL     1       4.947   4.807  19.174  0.00  0.00    +0.000 A 
ATOM     12  C   UNL     1       4.740   3.452  19.423  0.00  0.00    +0.000 A 
ATOM     13  C   UNL     1       3.494   3.059  19.877  0.00  0.00    +0.000 A 
ATOM     14  N   UNL     1       2.470   3.911  20.096  0.00  0.00    +0.000 NA
ATOM     15  C   UNL     1       2.696   5.217  19.845  0.00  0.00    +0.000 A 
ATOM     16  C   UNL     1       3.903   5.710  19.384  0.00  0.00    +0.000 A 
ENDBRANCH   9  11
ENDBRANCH   2   9
TORSDOF 3
ENDMDL
MODEL 8
REMARK VINA RESULT:      -6.5      1.387      2.457
REMARK  Name = 
REMARK  4 active torsions:
REMARK  status: ('A' for Active; 'I' for Inactive)
REMARK    1  A    between atoms: C_1  and  C_2
REMARK    2  A    between atoms: C_2  and  C_3
REMARK    3  A    between atoms: C_2  and  C_11
REMARK    4  A    between atoms: C_3  and  C_5
REMARK                            x       y       z     vdW  Elec       q    Type
REMARK                         _______ _______ _______ _____ _____    ______ ____
ROOT
ATOM      1  C   UNL     1       4.723   4.384  15.960  0.00  0.00    +0.000 C 
ATOM      2  C   UNL     1       4.961   4.386  17.472  0.00  0.00    +0.000 C 
ENDROOT
BRANCH   2   3
ATOM      3  C   UNL     1       6.084   5.326  17.854  0.00  0.00    +0.000 A 
ATOM      4  C   UNL     1       6.360   6.475  17.112  0.00  0.00    +0.000 A 
ATOM      5  C   UNL     1       7.409   7.299  17.506  0.00  0.00    +0.000 A 
ATOM      6  C   UNL     1       8.158   6.957  18.625  0.00  0.00    +0.000 A 
ATOM      7  C   UNL     1       7.822   5.800  19.306  0.00  0.00    +0.000 A 
ATOM      8  N   UNL     1       6.807   4.983  18.949  0.00  0.00    +0.000 NA
ENDBRANCH   2   3
BRANCH   2   9
ATOM      9  C   UNL     1       3.690   4.746  18.237  0.00  0.00    +0.000 C 
ATOM     10  O   UNL     1       2.957   5.677  17.896  0.00  0.00    +0.000 OA
BRANCH   9  11
ATOM     11  C   UNL     1       3.360   4.017  19.493  0.00  0.00    +0.000 A 
ATOM     12  C   UNL     1       3.979   2.821  19.848  0.00  0.00    +0.000 A 
ATOM     13  C   UNL     1       3.576   2.205  21.019  0.00  0.00    +0.000 A 
ATOM     14  N   UNL     1       2.623   2.696  21.839  0.00  0.00    +0.000 NA
ATOM     15  C   UNL     1       2.037   3.854  21.471  0.00  0.00    +0.000 A 
ATOM     16  C   UNL     1       2.364   4.545  20.317  0.00  0.00    +0.000 A 
ENDBRANCH   9  11
ENDBRANCH   2   9
TORSDOF 3
ENDMDL
MODEL 9
REMARK VINA RESULT:      -6.5      1.682      2.596
REMARK  Name = 
REMARK  4 active torsions:
REMARK  status: ('A' for Active; 'I' for Inactive)
REMARK    1  A    between atoms: C_1  and  C_2
REMARK    2  A    between atoms: C_2  and  C_3
REMARK    3  A    between atoms: C_2  and  C_11
REMARK    4  A    between atoms: C_3  and  C_5
REMARK                            x       y       z     vdW  Elec       q    Type
REMARK                         _______ _______ _______ _____ _____    ______ ____
ROOT
ATOM      1  C   UNL     1       4.768   4.533  15.870  0.00  0.00    +0.000 C 
ATOM      2  C   UNL     1       4.779   4.713  17.389  0.00  0.00    +0.000 C 
ENDROOT
BRANCH   2   3
ATOM      3  C   UNL     1       5.983   5.510  17.843  0.00  0.00    +0.000 A 
ATOM      4  C   UNL     1       6.443   6.614  17.123  0.00  0.00    +0.000 A 
ATOM      5  C   UNL     1       7.559   7.305  17.584  0.00  0.00    +0.000 A 
ATOM      6  C   UNL     1       8.190   6.878  18.746  0.00  0.00    +0.000 A 
ATOM      7  C   UNL     1       7.674   5.774  19.401  0.00  0.00    +0.000 A 
ATOM      8  N   UNL     1       6.590   5.086  18.980  0.00  0.00    +0.000 NA
ENDBRANCH   2   3
BRANCH   2   9
ATOM      9  C   UNL     1       3.494   5.374  17.883  0.00  0.00    +0.000 C 
ATOM     10  O   UNL     1       3.266   6.575  17.721  0.00  0.00    +0.000 OA
BRANCH   9  11
ATOM     11  C   UNL     1       2.516   4.575  18.672  0.00  0.00    +0.000 A 
ATOM     12  C   UNL     1       2.287   4.799  20.028  0.00  0.00    +0.000 A 
ATOM     13  C   UNL     1       1.383   3.979  20.678  0.00  0.00    +0.000 A 
ATOM     14  N   UNL     1       0.707   2.978  20.075  0.00  0.00    +0.000 NA
ATOM     15  C   UNL     1       0.949   2.780  18.763  0.00  0.00    +0.000 A 
ATOM     16  C   UNL     1       1.838   3.540  18.024  0.00  0.00    +0.000 A 
ENDBRANCH   9  11
ENDBRANCH   2   9
TORSDOF 3
ENDMDL
