MODEL 1
REMARK VINA RESULT:      -8.3      0.000      0.000
REMARK  Name = 
REMARK  5 active torsions:
REMARK  status: ('A' for Active; 'I' for Inactive)
REMARK    1  A    between atoms: C_1  and  O_2
REMARK    2  A    between atoms: O_2  and  C_3
REMARK    3  A    between atoms: C_7  and  N_8
REMARK    4  A    between atoms: C_14  and  C_15
REMARK    5  A    between atoms: C_17  and  C_18
REMARK                            x       y       z     vdW  Elec       q    Type
REMARK                         _______ _______ _______ _____ _____    ______ ____
ROOT
ATOM      1  N   UNL     1       5.438   5.172  17.805  0.00  0.00    +0.000 N 
ATOM      2  C   UNL     1       4.822   6.344  17.336  0.00  0.00    +0.000 A 
ATOM      3  O   UNL     1       3.698   6.747  17.625  0.00  0.00    +0.000 OA
ATOM      4  N   UNL     1       5.664   7.191  16.615  0.00  0.00    +0.000 N 
ATOM      5  C   UNL     1       6.852   7.515  17.294  0.00  0.00    +0.000 A 
ATOM      6  C   UNL     1       7.395   8.788  17.191  0.00  0.00    +0.000 A 
ATOM      7  C   UNL     1       8.399   9.182  18.091  0.00  0.00    +0.000 A 
ATOM      8  C   UNL     1       8.843   8.265  19.066  0.00  0.00    +0.000 A 
ATOM      9  C   UNL     1       8.355   6.956  19.096  0.00  0.00    +0.000 A 
ATOM     10  C   UNL     1       7.366   6.589  18.192  0.00  0.00    +0.000 A 
ATOM     11  C   UNL     1       6.797   5.231  18.134  0.00  0.00    +0.000 A 
ATOM     12  O   UNL     1       7.589   4.315  18.341  0.00  0.00    +0.000 OA
ATOM     13  H   UNL     1       5.881   6.774  15.713  0.00  0.00    +0.000 HD
ENDROOT
BRANCH   1  18
ATOM     14  C   UNL     1       3.429   2.737  19.903  0.00  0.00    +0.000 A 
ATOM     15  C   UNL     1       2.832   1.961  18.917  0.00  0.00    +0.000 A 
ATOM     16  C   UNL     1       3.164   2.162  17.583  0.00  0.00    +0.000 A 
ATOM     17  C   UNL     1       4.069   3.166  17.230  0.00  0.00    +0.000 A 
ATOM     18  C   UNL     1       4.627   4.030  18.190  0.00  0.00    +0.000 A 
ATOM     19  C   UNL     1       4.321   3.750  19.536  0.00  0.00    +0.000 A 
BRANCH  14  21
ATOM     20  C   UNL     1       2.015   3.213  21.757  0.00  0.00    +0.000 C 
ATOM     21  O   UNL     1       3.059   2.430  21.186  0.00  0.00    +0.000 OA
ENDBRANCH  14  21
ENDBRANCH   1  18
BRANCH   7  22
ATOM     22  C   UNL     1       8.923  10.537  18.011  0.00  0.00    +0.000 A 
ATOM     23  N   UNL     1       8.292  11.685  18.109  0.00  0.00    +0.000 NA
ATOM     24  C   UNL     1       9.310  12.601  17.960  0.00  0.00    +0.000 A 
ATOM     25  N   UNL     1      10.519  12.045  17.775  0.00  0.00    +0.000 NA
ATOM     26  O   UNL     1      10.263  10.679  17.807  0.00  0.00    +0.000 OA
BRANCH  24  27
ATOM     27  C   UNL     1       9.075  14.045  18.011  0.00  0.00    +0.000 A 
ATOM     28  C   UNL     1       7.770  14.546  18.100  0.00  0.00    +0.000 A 
ATOM     29  C   UNL     1       7.544  15.922  18.170  0.00  0.00    +0.000 A 
ATOM     30  C   UNL     1       8.622  16.805  18.156  0.00  0.00    +0.000 A 
ATOM     31  C   UNL     1       9.924  16.322  18.069  0.00  0.00    +0.000 A 
ATOM     32  C   UNL     1      10.152  14.946  17.997  0.00  0.00    +0.000 A 
ENDBRANCH  24  27
ENDBRANCH   7  22
TORSDOF 4
ENDMDL
MODEL 2
REMARK VINA RESULT:      -8.1      0.932      1.290
REMARK  Name = 
REMARK  5 active torsions:
REMARK  status: ('A' for Active; 'I' for Inactive)
REMARK    1  A    between atoms: C_1  and  O_2
REMARK    2  A    between atoms: O_2  and  C_3
REMARK    3  A    between atoms: C_7  and  N_8
REMARK    4  A    between atoms: C_14  and  C_15
REMARK    5  A    between atoms: C_17  and  C_18
REMARK                            x       y       z     vdW  Elec       q    Type
REMARK                         _______ _______ _______ _____ _____    ______ ____
ROOT
ATOM      1  N   UNL     1       4.763   5.365  17.759  0.00  0.00    +0.000 N 
ATOM      2  C   UNL     1       4.288   6.659  17.486  0.00  0.00    +0.000 A 
ATOM      3  O   UNL     1       3.255   7.167  17.918  0.00  0.00    +0.000 OA
ATOM      4  N   UNL     1       5.189   7.473  16.799  0.00  0.00    +0.000 N 
ATOM      5  C   UNL     1       6.455   7.547  17.404  0.00  0.00    +0.000 A 
ATOM      6  C   UNL     1       7.165   8.740  17.405  0.00  0.00    +0.000 A 
ATOM      7  C   UNL     1       8.276   8.879  18.254  0.00  0.00    +0.000 A 
ATOM      8  C   UNL     1       8.653   7.794  19.072  0.00  0.00    +0.000 A 
ATOM      9  C   UNL     1       7.986   6.568  18.991  0.00  0.00    +0.000 A 
ATOM     10  C   UNL     1       6.894   6.454  18.140  0.00  0.00    +0.000 A 
ATOM     11  C   UNL     1       6.136   5.202  17.973  0.00  0.00    +0.000 A 
ATOM     12  O   UNL     1       6.803   4.170  18.001  0.00  0.00    +0.000 OA
ATOM     13  H   UNL     1       5.281   7.150  15.838  0.00  0.00    +0.000 HD
ENDROOT
BRANCH   1  18
ATOM     14  C   UNL     1       2.011   3.390  19.461  0.00  0.00    +0.000 A 
ATOM     15  C   UNL     1       1.821   2.357  18.551  0.00  0.00    +0.000 A 
ATOM     16  C   UNL     1       2.654   2.245  17.446  0.00  0.00    +0.000 A 
ATOM     17  C   UNL     1       3.659   3.191  17.228  0.00  0.00    +0.000 A 
ATOM     18  C   UNL     1       3.827   4.300  18.076  0.00  0.00    +0.000 A 
ATOM     19  C   UNL     1       3.011   4.340  19.223  0.00  0.00    +0.000 A 
BRANCH  14  21
ATOM     20  C   UNL     1       1.608   2.713  21.706  0.00  0.00    +0.000 C 
ATOM     21  O   UNL     1       1.159   3.385  20.533  0.00  0.00    +0.000 OA
ENDBRANCH  14  21
ENDBRANCH   1  18
BRANCH   7  22
ATOM     22  C   UNL     1       8.980  10.152  18.288  0.00  0.00    +0.000 A 
ATOM     23  N   UNL     1       8.605  11.327  17.837  0.00  0.00    +0.000 NA
ATOM     24  C   UNL     1       9.678  12.129  18.163  0.00  0.00    +0.000 A 
ATOM     25  N   UNL     1      10.674  11.478  18.785  0.00  0.00    +0.000 NA
ATOM     26  O   UNL     1      10.213  10.168  18.866  0.00  0.00    +0.000 OA
BRANCH  24  27
ATOM     27  C   UNL     1       9.704  13.560  17.856  0.00  0.00    +0.000 A 
ATOM     28  C   UNL     1      10.861  14.150  17.332  0.00  0.00    +0.000 A 
ATOM     29  C   UNL     1      10.880  15.511  17.019  0.00  0.00    +0.000 A 
ATOM     30  C   UNL     1       9.743  16.289  17.225  0.00  0.00    +0.000 A 
ATOM     31  C   UNL     1       8.586  15.717  17.746  0.00  0.00    +0.000 A 
ATOM     32  C   UNL     1       8.565  14.356  18.060  0.00  0.00    +0.000 A 
ENDBRANCH  24  27
ENDBRANCH   7  22
TORSDOF 4
ENDMDL
MODEL 3
REMARK VINA RESULT:      -8.0      8.748     11.777
REMARK  Name = 
REMARK  5 active torsions:
REMARK  status: ('A' for Active; 'I' for Inactive)
REMARK    1  A    between atoms: C_1  and  O_2
REMARK    2  A    between atoms: O_2  and  C_3
REMARK    3  A    between atoms: C_7  and  N_8
REMARK    4  A    between atoms: C_14  and  C_15
REMARK    5  A    between atoms: C_17  and  C_18
REMARK                            x       y       z     vdW  Elec       q    Type
REMARK                         _______ _______ _______ _____ _____    ______ ____
ROOT
ATOM      1  N   UNL     1      -2.031  13.402  22.380  0.00  0.00    +0.000 N 
ATOM      2  C   UNL     1      -1.493  13.791  21.141  0.00  0.00    +0.000 A 
ATOM      3  O   UNL     1      -0.883  14.831  20.901  0.00  0.00    +0.000 OA
ATOM      4  N   UNL     1      -1.523  12.799  20.161  0.00  0.00    +0.000 N 
ATOM      5  C   UNL     1      -0.946  11.585  20.572  0.00  0.00    +0.000 A 
ATOM      6  C   UNL     1      -0.205  10.821  19.680  0.00  0.00    +0.000 A 
ATOM      7  C   UNL     1       0.599   9.779  20.170  0.00  0.00    +0.000 A 
ATOM      8  C   UNL     1       0.620   9.523  21.556  0.00  0.00    +0.000 A 
ATOM      9  C   UNL     1      -0.203  10.238  22.431  0.00  0.00    +0.000 A 
ATOM     10  C   UNL     1      -0.994  11.260  21.921  0.00  0.00    +0.000 A 
ATOM     11  C   UNL     1      -1.905  12.060  22.758  0.00  0.00    +0.000 A 
ATOM     12  O   UNL     1      -2.475  11.449  23.658  0.00  0.00    +0.000 OA
ATOM     13  H   UNL     1      -2.481  12.644  19.858  0.00  0.00    +0.000 HD
ENDROOT
BRANCH   1  18
ATOM     14  C   UNL     1      -4.203  15.802  24.352  0.00  0.00    +0.000 A 
ATOM     15  C   UNL     1      -3.334  16.177  25.370  0.00  0.00    +0.000 A 
ATOM     16  C   UNL     1      -2.018  15.734  25.354  0.00  0.00    +0.000 A 
ATOM     17  C   UNL     1      -1.577  14.883  24.337  0.00  0.00    +0.000 A 
ATOM     18  C   UNL     1      -2.449  14.411  23.339  0.00  0.00    +0.000 A 
ATOM     19  C   UNL     1      -3.755  14.937  23.348  0.00  0.00    +0.000 A 
BRANCH  14  21
ATOM     20  C   UNL     1      -6.513  15.589  23.821  0.00  0.00    +0.000 C 
ATOM     21  O   UNL     1      -5.465  16.325  24.445  0.00  0.00    +0.000 OA
ENDBRANCH  14  21
ENDBRANCH   1  18
BRANCH   7  22
ATOM     22  C   UNL     1       1.415   9.020  19.233  0.00  0.00    +0.000 A 
ATOM     23  N   UNL     1       1.997   7.853  19.388  0.00  0.00    +0.000 NA
ATOM     24  C   UNL     1       2.610   7.661  18.168  0.00  0.00    +0.000 A 
ATOM     25  N   UNL     1       2.418   8.666  17.299  0.00  0.00    +0.000 NA
ATOM     26  O   UNL     1       1.629   9.568  18.004  0.00  0.00    +0.000 OA
BRANCH  24  27
ATOM     27  C   UNL     1       3.388   6.458  17.867  0.00  0.00    +0.000 A 
ATOM     28  C   UNL     1       2.774   5.199  17.875  0.00  0.00    +0.000 A 
ATOM     29  C   UNL     1       3.508   4.052  17.567  0.00  0.00    +0.000 A 
ATOM     30  C   UNL     1       4.860   4.157  17.245  0.00  0.00    +0.000 A 
ATOM     31  C   UNL     1       5.484   5.402  17.232  0.00  0.00    +0.000 A 
ATOM     32  C   UNL     1       4.750   6.550  17.541  0.00  0.00    +0.000 A 
ENDBRANCH  24  27
ENDBRANCH   7  22
TORSDOF 4
ENDMDL
MODEL 4
REMARK VINA RESULT:      -7.9      8.723     11.573
REMARK  Name = 
REMARK  5 active torsions:
REMARK  status: ('A' for Active; 'I' for Inactive)
REMARK    1  A    between atoms: C_1  and  O_2
REMARK    2  A    between atoms: O_2  and  C_3
REMARK    3  A    between atoms: C_7  and  N_8
REMARK    4  A    between atoms: C_14  and  C_15
REMARK    5  A    between atoms: C_17  and  C_18
REMARK                            x       y       z     vdW  Elec       q    Type
REMARK                         _______ _______ _______ _____ _____    ______ ____
ROOT
ATOM      1  N   UNL     1      -2.279  12.910  22.055  0.00  0.00    +0.000 N 
ATOM      2  C   UNL     1      -1.896  11.846  22.889  0.00  0.00    +0.000 A 
ATOM      3  O   UNL     1      -2.632  11.182  23.615  0.00  0.00    +0.000 OA
ATOM      4  N   UNL     1      -0.579  11.421  22.715  0.00  0.00    +0.000 N 
ATOM      5  C   UNL     1      -0.256  11.121  21.380  0.00  0.00    +0.000 A 
ATOM      6  C   UNL     1       0.583  10.056  21.082  0.00  0.00    +0.000 A 
ATOM      7  C   UNL     1       0.660   9.591  19.759  0.00  0.00    +0.000 A 
ATOM      8  C   UNL     1      -0.104  10.231  18.761  0.00  0.00    +0.000 A 
ATOM      9  C   UNL     1      -0.870  11.362  19.059  0.00  0.00    +0.000 A 
ATOM     10  C   UNL     1      -0.927  11.805  20.374  0.00  0.00    +0.000 A 
ATOM     11  C   UNL     1      -1.693  12.994  20.787  0.00  0.00    +0.000 A 
ATOM     12  O   UNL     1      -1.692  13.929  19.989  0.00  0.00    +0.000 OA
ATOM     13  H   UNL     1       0.061  12.124  23.078  0.00  0.00    +0.000 HD
ENDROOT
BRANCH   1  18
ATOM     14  C   UNL     1      -5.872  14.041  22.485  0.00  0.00    +0.000 A 
ATOM     15  C   UNL     1      -5.706  15.161  23.291  0.00  0.00    +0.000 A 
ATOM     16  C   UNL     1      -4.428  15.606  23.604  0.00  0.00    +0.000 A 
ATOM     17  C   UNL     1      -3.310  14.907  23.140  0.00  0.00    +0.000 A 
ATOM     18  C   UNL     1      -3.436  13.720  22.396  0.00  0.00    +0.000 A 
ATOM     19  C   UNL     1      -4.745  13.340  22.040  0.00  0.00    +0.000 A 
BRANCH  14  21
ATOM     20  C   UNL     1      -7.827  12.849  23.133  0.00  0.00    +0.000 C 
ATOM     21  O   UNL     1      -7.172  13.712  22.208  0.00  0.00    +0.000 OA
ENDBRANCH  14  21
ENDBRANCH   1  18
BRANCH   7  22
ATOM     22  C   UNL     1       1.499   8.438  19.465  0.00  0.00    +0.000 A 
ATOM     23  N   UNL     1       2.132   8.125  18.358  0.00  0.00    +0.000 NA
ATOM     24  C   UNL     1       2.752   6.941  18.692  0.00  0.00    +0.000 A 
ATOM     25  N   UNL     1       2.512   6.537  19.950  0.00  0.00    +0.000 NA
ATOM     26  O   UNL     1       1.681   7.528  20.462  0.00  0.00    +0.000 OA
BRANCH  24  27
ATOM     27  C   UNL     1       3.600   6.210  17.747  0.00  0.00    +0.000 A 
ATOM     28  C   UNL     1       4.506   6.900  16.931  0.00  0.00    +0.000 A 
ATOM     29  C   UNL     1       5.330   6.203  16.046  0.00  0.00    +0.000 A 
ATOM     30  C   UNL     1       5.256   4.813  15.973  0.00  0.00    +0.000 A 
ATOM     31  C   UNL     1       4.361   4.115  16.777  0.00  0.00    +0.000 A 
ATOM     32  C   UNL     1       3.535   4.811  17.664  0.00  0.00    +0.000 A 
ENDBRANCH  24  27
ENDBRANCH   7  22
TORSDOF 4
ENDMDL
MODEL 5
REMARK VINA RESULT:      -7.9      7.466     10.508
REMARK  Name = 
REMARK  5 active torsions:
REMARK  status: ('A' for Active; 'I' for Inactive)
REMARK    1  A    between atoms: C_1  and  O_2
REMARK    2  A    between atoms: O_2  and  C_3
REMARK    3  A    between atoms: C_7  and  N_8
REMARK    4  A    between atoms: C_14  and  C_15
REMARK    5  A    between atoms: C_17  and  C_18
REMARK                            x       y       z     vdW  Elec       q    Type
REMARK                         _______ _______ _______ _____ _____    ______ ____
ROOT
ATOM      1  N   UNL     1      -0.799  11.645  22.008  0.00  0.00    +0.000 N 
ATOM      2  C   UNL     1      -0.452  10.449  22.660  0.00  0.00    +0.000 A 
ATOM      3  O   UNL     1      -1.196   9.739  23.332  0.00  0.00    +0.000 OA
ATOM      4  N   UNL     1       0.818   9.966  22.344  0.00  0.00    +0.000 N 
ATOM      5  C   UNL     1       1.045   9.841  20.963  0.00  0.00    +0.000 A 
ATOM      6  C   UNL     1       1.785   8.776  20.466  0.00  0.00    +0.000 A 
ATOM      7  C   UNL     1       1.756   8.502  19.089  0.00  0.00    +0.000 A 
ATOM      8  C   UNL     1       0.990   9.329  18.242  0.00  0.00    +0.000 A 
ATOM      9  C   UNL     1       0.327  10.453  18.743  0.00  0.00    +0.000 A 
ATOM     10  C   UNL     1       0.375  10.705  20.108  0.00  0.00    +0.000 A 
ATOM     11  C   UNL     1      -0.276  11.871  20.730  0.00  0.00    +0.000 A 
ATOM     12  O   UNL     1      -0.248  12.909  20.072  0.00  0.00    +0.000 OA
ATOM     13  H   UNL     1       1.527  10.565  22.761  0.00  0.00    +0.000 HD
ENDROOT
BRANCH   1  18
ATOM     14  C   UNL     1      -4.267  12.913  22.863  0.00  0.00    +0.000 A 
ATOM     15  C   UNL     1      -3.968  13.925  23.767  0.00  0.00    +0.000 A 
ATOM     16  C   UNL     1      -2.644  14.262  24.016  0.00  0.00    +0.000 A 
ATOM     17  C   UNL     1      -1.612  13.560  23.386  0.00  0.00    +0.000 A 
ATOM     18  C   UNL     1      -1.872  12.473  22.532  0.00  0.00    +0.000 A 
ATOM     19  C   UNL     1      -3.225  12.207  22.251  0.00  0.00    +0.000 A 
BRANCH  14  21
ATOM     20  C   UNL     1      -6.477  13.023  23.739  0.00  0.00    +0.000 C 
ATOM     21  O   UNL     1      -5.603  12.688  22.665  0.00  0.00    +0.000 OA
ENDBRANCH  14  21
ENDBRANCH   1  18
BRANCH   7  22
ATOM     22  C   UNL     1       2.489   7.350  18.585  0.00  0.00    +0.000 A 
ATOM     23  N   UNL     1       3.516   7.306  17.767  0.00  0.00    +0.000 NA
ATOM     24  C   UNL     1       3.765   5.954  17.673  0.00  0.00    +0.000 A 
ATOM     25  N   UNL     1       2.928   5.194  18.398  0.00  0.00    +0.000 NA
ATOM     26  O   UNL     1       2.081   6.119  19.001  0.00  0.00    +0.000 OA
BRANCH  24  27
ATOM     27  C   UNL     1       4.856   5.416  16.857  0.00  0.00    +0.000 A 
ATOM     28  C   UNL     1       4.698   4.200  16.179  0.00  0.00    +0.000 A 
ATOM     29  C   UNL     1       5.729   3.696  15.384  0.00  0.00    +0.000 A 
ATOM     30  C   UNL     1       6.922   4.406  15.258  0.00  0.00    +0.000 A 
ATOM     31  C   UNL     1       7.092   5.616  15.925  0.00  0.00    +0.000 A 
ATOM     32  C   UNL     1       6.062   6.121  16.722  0.00  0.00    +0.000 A 
ENDBRANCH  24  27
ENDBRANCH   7  22
TORSDOF 4
ENDMDL
MODEL 6
REMARK VINA RESULT:      -7.9      8.052     11.615
REMARK  Name = 
REMARK  5 active torsions:
REMARK  status: ('A' for Active; 'I' for Inactive)
REMARK    1  A    between atoms: C_1  and  O_2
REMARK    2  A    between atoms: O_2  and  C_3
REMARK    3  A    between atoms: C_7  and  N_8
REMARK    4  A    between atoms: C_14  and  C_15
REMARK    5  A    between atoms: C_17  and  C_18
REMARK                            x       y       z     vdW  Elec       q    Type
REMARK                         _______ _______ _______ _____ _____    ______ ____
ROOT
ATOM      1  N   UNL     1      -1.439  13.124  22.011  0.00  0.00    +0.000 N 
ATOM      2  C   UNL     1      -0.675  13.176  20.832  0.00  0.00    +0.000 A 
ATOM      3  O   UNL     1       0.141  14.042  20.526  0.00  0.00    +0.000 OA
ATOM      4  N   UNL     1      -0.751  12.028  20.044  0.00  0.00    +0.000 N 
ATOM      5  C   UNL     1      -0.466  10.844  20.745  0.00  0.00    +0.000 A 
ATOM      6  C   UNL     1       0.238   9.816  20.132  0.00  0.00    +0.000 A 
ATOM      7  C   UNL     1       0.764   8.779  20.919  0.00  0.00    +0.000 A 
ATOM      8  C   UNL     1       0.548   8.798  22.313  0.00  0.00    +0.000 A 
ATOM      9  C   UNL     1      -0.243   9.788  22.903  0.00  0.00    +0.000 A 
ATOM     10  C   UNL     1      -0.756  10.800  22.102  0.00  0.00    +0.000 A 
ATOM     11  C   UNL     1      -1.613  11.879  22.626  0.00  0.00    +0.000 A 
ATOM     12  O   UNL     1      -2.402  11.550  23.508  0.00  0.00    +0.000 OA
ATOM     13  H   UNL     1      -1.671  11.966  19.614  0.00  0.00    +0.000 HD
ENDROOT
BRANCH   1  18
ATOM     14  C   UNL     1      -3.293  16.275  23.013  0.00  0.00    +0.000 A 
ATOM     15  C   UNL     1      -2.646  16.601  24.199  0.00  0.00    +0.000 A 
ATOM     16  C   UNL     1      -1.547  15.861  24.615  0.00  0.00    +0.000 A 
ATOM     17  C   UNL     1      -1.113  14.768  23.860  0.00  0.00    +0.000 A 
ATOM     18  C   UNL     1      -1.793  14.353  22.701  0.00  0.00    +0.000 A 
ATOM     19  C   UNL     1      -2.859  15.168  22.275  0.00  0.00    +0.000 A 
BRANCH  14  21
ATOM     20  C   UNL     1      -4.128  18.494  22.809  0.00  0.00    +0.000 C 
ATOM     21  O   UNL     1      -4.340  17.092  22.679  0.00  0.00    +0.000 OA
ENDBRANCH  14  21
ENDBRANCH   1  18
BRANCH   7  22
ATOM     22  C   UNL     1       1.549   7.735  20.276  0.00  0.00    +0.000 A 
ATOM     23  N   UNL     1       2.226   7.773  19.151  0.00  0.00    +0.000 NA
ATOM     24  C   UNL     1       2.753   6.501  19.077  0.00  0.00    +0.000 A 
ATOM     25  N   UNL     1       2.414   5.711  20.108  0.00  0.00    +0.000 NA
ATOM     26  O   UNL     1       1.614   6.527  20.901  0.00  0.00    +0.000 OA
BRANCH  24  27
ATOM     27  C   UNL     1       3.610   6.075  17.969  0.00  0.00    +0.000 A 
ATOM     28  C   UNL     1       4.329   7.021  17.227  0.00  0.00    +0.000 A 
ATOM     29  C   UNL     1       5.163   6.615  16.184  0.00  0.00    +0.000 A 
ATOM     30  C   UNL     1       5.287   5.261  15.878  0.00  0.00    +0.000 A 
ATOM     31  C   UNL     1       4.579   4.310  16.606  0.00  0.00    +0.000 A 
ATOM     32  C   UNL     1       3.743   4.715  17.650  0.00  0.00    +0.000 A 
ENDBRANCH  24  27
ENDBRANCH   7  22
TORSDOF 4
ENDMDL
MODEL 7
REMARK VINA RESULT:      -7.8      1.409      1.531
REMARK  Name = 
REMARK  5 active torsions:
REMARK  status: ('A' for Active; 'I' for Inactive)
REMARK    1  A    between atoms: C_1  and  O_2
REMARK    2  A    between atoms: O_2  and  C_3
REMARK    3  A    between atoms: C_7  and  N_8
REMARK    4  A    between atoms: C_14  and  C_15
REMARK    5  A    between atoms: C_17  and  C_18
REMARK                            x       y       z     vdW  Elec       q    Type
REMARK                         _______ _______ _______ _____ _____    ______ ____
ROOT
ATOM      1  N   UNL     1       5.266   5.418  17.728  0.00  0.00    +0.000 N 
ATOM      2  C   UNL     1       4.768   6.680  17.359  0.00  0.00    +0.000 A 
ATOM      3  O   UNL     1       3.680   7.158  17.672  0.00  0.00    +0.000 OA
ATOM      4  N   UNL     1       5.697   7.506  16.727  0.00  0.00    +0.000 N 
ATOM      5  C   UNL     1       6.896   7.658  17.445  0.00  0.00    +0.000 A 
ATOM      6  C   UNL     1       7.555   8.879  17.463  0.00  0.00    +0.000 A 
ATOM      7  C   UNL     1       8.573   9.097  18.406  0.00  0.00    +0.000 A 
ATOM      8  C   UNL     1       8.913   8.060  19.299  0.00  0.00    +0.000 A 
ATOM      9  C   UNL     1       8.307   6.805  19.206  0.00  0.00    +0.000 A 
ATOM     10  C   UNL     1       7.307   6.612  18.262  0.00  0.00    +0.000 A 
ATOM     11  C   UNL     1       6.619   5.323  18.075  0.00  0.00    +0.000 A 
ATOM     12  O   UNL     1       7.320   4.323  18.207  0.00  0.00    +0.000 OA
ATOM     13  H   UNL     1       5.892   7.152  15.793  0.00  0.00    +0.000 HD
ENDROOT
BRANCH   1  18
ATOM     14  C   UNL     1       3.076   2.945  19.585  0.00  0.00    +0.000 A 
ATOM     15  C   UNL     1       2.361   2.378  18.536  0.00  0.00    +0.000 A 
ATOM     16  C   UNL     1       2.665   2.724  17.226  0.00  0.00    +0.000 A 
ATOM     17  C   UNL     1       3.663   3.666  16.963  0.00  0.00    +0.000 A 
ATOM     18  C   UNL     1       4.348   4.326  17.999  0.00  0.00    +0.000 A 
ATOM     19  C   UNL     1       4.061   3.899  19.310  0.00  0.00    +0.000 A 
BRANCH  14  21
ATOM     20  C   UNL     1       1.357   2.676  21.209  0.00  0.00    +0.000 C 
ATOM     21  O   UNL     1       2.720   2.507  20.833  0.00  0.00    +0.000 OA
ENDBRANCH  14  21
ENDBRANCH   1  18
BRANCH   7  22
ATOM     22  C   UNL     1       9.220  10.400  18.455  0.00  0.00    +0.000 A 
ATOM     23  N   UNL     1       9.277  11.268  19.439  0.00  0.00    +0.000 NA
ATOM     24  C   UNL     1      10.022  12.291  18.892  0.00  0.00    +0.000 A 
ATOM     25  N   UNL     1      10.406  12.068  17.625  0.00  0.00    +0.000 NA
ATOM     26  O   UNL     1       9.873  10.816  17.334  0.00  0.00    +0.000 OA
BRANCH  24  27
ATOM     27  C   UNL     1      10.360  13.500  19.647  0.00  0.00    +0.000 A 
ATOM     28  C   UNL     1       9.883  13.675  20.952  0.00  0.00    +0.000 A 
ATOM     29  C   UNL     1      10.221  14.816  21.681  0.00  0.00    +0.000 A 
ATOM     30  C   UNL     1      11.041  15.788  21.111  0.00  0.00    +0.000 A 
ATOM     31  C   UNL     1      11.523  15.628  19.815  0.00  0.00    +0.000 A 
ATOM     32  C   UNL     1      11.185  14.486  19.084  0.00  0.00    +0.000 A 
ENDBRANCH  24  27
ENDBRANCH   7  22
TORSDOF 4
ENDMDL
MODEL 8
REMARK VINA RESULT:      -7.8      7.864     11.426
REMARK  Name = 
REMARK  5 active torsions:
REMARK  status: ('A' for Active; 'I' for Inactive)
REMARK    1  A    between atoms: C_1  and  O_2
REMARK    2  A    between atoms: O_2  and  C_3
REMARK    3  A    between atoms: C_7  and  N_8
REMARK    4  A    between atoms: C_14  and  C_15
REMARK    5  A    between atoms: C_17  and  C_18
REMARK                            x       y       z     vdW  Elec       q    Type
REMARK                         _______ _______ _______ _____ _____    ______ ____
ROOT
ATOM      1  N   UNL     1      -1.278  13.063  21.720  0.00  0.00    +0.000 N 
ATOM      2  C   UNL     1      -0.569  13.060  20.507  0.00  0.00    +0.000 A 
ATOM      3  O   UNL     1       0.218  13.920  20.116  0.00  0.00    +0.000 OA
ATOM      4  N   UNL     1      -0.660  11.869  19.787  0.00  0.00    +0.000 N 
ATOM      5  C   UNL     1      -0.324  10.730  20.539  0.00  0.00    +0.000 A 
ATOM      6  C   UNL     1       0.368   9.680  19.952  0.00  0.00    +0.000 A 
ATOM      7  C   UNL     1       0.947   8.696  20.770  0.00  0.00    +0.000 A 
ATOM      8  C   UNL     1       0.794   8.790  22.168  0.00  0.00    +0.000 A 
ATOM      9  C   UNL     1       0.013   9.799  22.739  0.00  0.00    +0.000 A 
ATOM     10  C   UNL     1      -0.553  10.758  21.908  0.00  0.00    +0.000 A 
ATOM     11  C   UNL     1      -1.403  11.852  22.410  0.00  0.00    +0.000 A 
ATOM     12  O   UNL     1      -2.146  11.561  23.344  0.00  0.00    +0.000 OA
ATOM     13  H   UNL     1      -1.598  11.770  19.404  0.00  0.00    +0.000 HD
ENDROOT
BRANCH   1  18
ATOM     14  C   UNL     1      -3.140  16.236  22.633  0.00  0.00    +0.000 A 
ATOM     15  C   UNL     1      -2.445  16.638  23.768  0.00  0.00    +0.000 A 
ATOM     16  C   UNL     1      -1.314  15.940  24.171  0.00  0.00    +0.000 A 
ATOM     17  C   UNL     1      -0.896  14.813  23.458  0.00  0.00    +0.000 A 
ATOM     18  C   UNL     1      -1.622  14.323  22.357  0.00  0.00    +0.000 A 
ATOM     19  C   UNL     1      -2.721  15.096  21.938  0.00  0.00    +0.000 A 
BRANCH  14  21
ATOM     20  C   UNL     1      -5.038  16.560  21.236  0.00  0.00    +0.000 C 
ATOM     21  O   UNL     1      -4.216  17.016  22.305  0.00  0.00    +0.000 OA
ENDBRANCH  14  21
ENDBRANCH   1  18
BRANCH   7  22
ATOM     22  C   UNL     1       1.720   7.629  20.149  0.00  0.00    +0.000 A 
ATOM     23  N   UNL     1       2.383   7.629  19.016  0.00  0.00    +0.000 NA
ATOM     24  C   UNL     1       2.904   6.354  18.974  0.00  0.00    +0.000 A 
ATOM     25  N   UNL     1       2.575   5.597  20.033  0.00  0.00    +0.000 NA
ATOM     26  O   UNL     1       1.789   6.441  20.811  0.00  0.00    +0.000 OA
BRANCH  24  27
ATOM     27  C   UNL     1       3.746   5.890  17.869  0.00  0.00    +0.000 A 
ATOM     28  C   UNL     1       3.851   4.522  17.588  0.00  0.00    +0.000 A 
ATOM     29  C   UNL     1       4.636   4.079  16.522  0.00  0.00    +0.000 A 
ATOM     30  C   UNL     1       5.317   5.001  15.728  0.00  0.00    +0.000 A 
ATOM     31  C   UNL     1       5.221   6.363  15.996  0.00  0.00    +0.000 A 
ATOM     32  C   UNL     1       4.437   6.808  17.063  0.00  0.00    +0.000 A 
ENDBRANCH  24  27
ENDBRANCH   7  22
TORSDOF 4
ENDMDL
MODEL 9
REMARK VINA RESULT:      -7.8      7.822     11.477
REMARK  Name = 
REMARK  5 active torsions:
REMARK  status: ('A' for Active; 'I' for Inactive)
REMARK    1  A    between atoms: C_1  and  O_2
REMARK    2  A    between atoms: O_2  and  C_3
REMARK    3  A    between atoms: C_7  and  N_8
REMARK    4  A    between atoms: C_14  and  C_15
REMARK    5  A    between atoms: C_17  and  C_18
REMARK                            x       y       z     vdW  Elec       q    Type
REMARK                         _______ _______ _______ _____ _____    ______ ____
ROOT
ATOM      1  N   UNL     1      -1.132  13.289  22.046  0.00  0.00    +0.000 N 
ATOM      2  C   UNL     1      -0.265  13.342  20.940  0.00  0.00    +0.000 A 
ATOM      3  O   UNL     1       0.639  14.153  20.756  0.00  0.00    +0.000 OA
ATOM      4  N   UNL     1      -0.358  12.247  20.081  0.00  0.00    +0.000 N 
ATOM      5  C   UNL     1      -0.228  11.008  20.732  0.00  0.00    +0.000 A 
ATOM      6  C   UNL     1       0.446   9.960  20.120  0.00  0.00    +0.000 A 
ATOM      7  C   UNL     1       0.820   8.843  20.885  0.00  0.00    +0.000 A 
ATOM      8  C   UNL     1       0.484   8.806  22.254  0.00  0.00    +0.000 A 
ATOM      9  C   UNL     1      -0.278   9.825  22.833  0.00  0.00    +0.000 A 
ATOM     10  C   UNL     1      -0.640  10.916  22.055  0.00  0.00    +0.000 A 
ATOM     11  C   UNL     1      -1.455  12.032  22.568  0.00  0.00    +0.000 A 
ATOM     12  O   UNL     1      -2.341  11.721  23.360  0.00  0.00    +0.000 OA
ATOM     13  H   UNL     1      -1.239  12.283  19.573  0.00  0.00    +0.000 HD
ENDROOT
BRANCH   1  18
ATOM     14  C   UNL     1      -1.120  15.989  24.706  0.00  0.00    +0.000 A 
ATOM     15  C   UNL     1      -1.862  16.985  24.082  0.00  0.00    +0.000 A 
ATOM     16  C   UNL     1      -2.450  16.739  22.848  0.00  0.00    +0.000 A 
ATOM     17  C   UNL     1      -2.266  15.505  22.218  0.00  0.00    +0.000 A 
ATOM     18  C   UNL     1      -1.451  14.504  22.776  0.00  0.00    +0.000 A 
ATOM     19  C   UNL     1      -0.930  14.764  24.058  0.00  0.00    +0.000 A 
BRANCH  14  21
ATOM     20  C   UNL     1      -0.968  17.608  26.444  0.00  0.00    +0.000 C 
ATOM     21  O   UNL     1      -0.617  16.325  25.935  0.00  0.00    +0.000 OA
ENDBRANCH  14  21
ENDBRANCH   1  18
BRANCH   7  22
ATOM     22  C   UNL     1       1.577   7.775  20.248  0.00  0.00    +0.000 A 
ATOM     23  N   UNL     1       2.276   7.794  19.137  0.00  0.00    +0.000 NA
ATOM     24  C   UNL     1       2.755   6.504  19.062  0.00  0.00    +0.000 A 
ATOM     25  N   UNL     1       2.367   5.720  20.081  0.00  0.00    +0.000 NA
ATOM     26  O   UNL     1       1.585   6.561  20.865  0.00  0.00    +0.000 OA
BRANCH  24  27
ATOM     27  C   UNL     1       3.617   6.054  17.967  0.00  0.00    +0.000 A 
ATOM     28  C   UNL     1       4.377   6.978  17.240  0.00  0.00    +0.000 A 
ATOM     29  C   UNL     1       5.215   6.548  16.209  0.00  0.00    +0.000 A 
ATOM     30  C   UNL     1       5.301   5.191  15.902  0.00  0.00    +0.000 A 
ATOM     31  C   UNL     1       4.552   4.261  16.617  0.00  0.00    +0.000 A 
ATOM     32  C   UNL     1       3.712   4.690  17.648  0.00  0.00    +0.000 A 
ENDBRANCH  24  27
ENDBRANCH   7  22
TORSDOF 4
ENDMDL
