MODEL 1
REMARK VINA RESULT:      -6.9      0.000      0.000
REMARK  Name = 
REMARK  9 active torsions:
REMARK  status: ('A' for Active; 'I' for Inactive)
REMARK    1  A    between atoms: C_1  and  O_2
REMARK    2  A    between atoms: O_2  and  C_3
REMARK    3  A    between atoms: C_6  and  C_7
REMARK    4  A    between atoms: C_7  and  N_8
REMARK    5  A    between atoms: C_9  and  C_11
REMARK    6  A    between atoms: C_19  and  C_20
REMARK    7  A    between atoms: C_22  and  C_23
REMARK    8  A    between atoms: N_24  and  C_25
REMARK    9  A    between atoms: C_28  and  C_29
REMARK                            x       y       z     vdW  Elec       q    Type
REMARK                         _______ _______ _______ _____ _____    ______ ____
ROOT
ATOM      1  C   UNL     1       9.792  12.404  17.598  0.00  0.00    +0.000 C 
ATOM      2  C   UNL     1       9.666  10.939  18.066  0.00  0.00    +0.000 C 
ATOM      3  C   UNL     1       9.741  10.698  19.582  0.00  0.00    +0.000 C 
ATOM      4  C   UNL     1      10.769  11.566  20.294  0.00  0.00    +0.000 C 
ATOM      5  N   UNL     1      10.598  12.934  19.868  0.00  0.00    +0.000 N 
ATOM      6  C   UNL     1      10.087  13.940  20.668  0.00  0.00    +0.000 A 
ATOM      7  N   UNL     1      10.296  15.234  20.246  0.00  0.00    +0.000 NA
ATOM      8  N   UNL     1       9.933  16.440  20.949  0.00  0.00    +0.000 NA
ATOM      9  C   UNL     1       9.313  16.445  22.157  0.00  0.00    +0.000 A 
ATOM     10  C   UNL     1       9.021  17.781  22.735  0.00  0.00    +0.000 C 
ATOM     11  C   UNL     1       9.037  15.147  22.621  0.00  0.00    +0.000 A 
ATOM     12  C   UNL     1       8.371  14.827  23.786  0.00  0.00    +0.000 A 
ATOM     13  C   UNL     1       7.760  15.714  24.815  0.00  0.00    +0.000 C 
ATOM     14  N   UNL     1       8.278  13.428  23.789  0.00  0.00    +0.000 N 
ATOM     15  N   UNL     1       8.898  12.875  22.688  0.00  0.00    +0.000 NA
ATOM     16  C   UNL     1       9.377  13.898  21.941  0.00  0.00    +0.000 A 
ATOM     17  C   UNL     1      10.799  13.192  18.440  0.00  0.00    +0.000 C 
ENDROOT
BRANCH  14  18
ATOM     18  C   UNL     1       7.578  12.589  24.748  0.00  0.00    +0.000 A 
ATOM     19  C   UNL     1       6.507  11.783  24.335  0.00  0.00    +0.000 A 
ATOM     20  C   UNL     1       5.737  11.067  25.277  0.00  0.00    +0.000 A 
ATOM     21  C   UNL     1       6.029  11.130  26.650  0.00  0.00    +0.000 A 
ATOM     22  C   UNL     1       5.211  10.414  27.686  0.00  0.00    +0.000 C 
ATOM     23  C   UNL     1       7.112  11.895  27.055  0.00  0.00    +0.000 A 
ATOM     24  C   UNL     1       7.889  12.586  26.117  0.00  0.00    +0.000 A 
ENDBRANCH  14  18
BRANCH   1  26
ATOM     25  N   UNL     1       8.528  14.488  17.784  0.00  0.00    +0.000 N 
ATOM     26  C   UNL     1       8.458  13.147  17.437  0.00  0.00    +0.000 C 
ATOM     27  O   UNL     1       7.448  12.626  16.975  0.00  0.00    +0.000 OA
ATOM     28  H   UNL     1       9.337  14.832  18.285  0.00  0.00    +0.000 HD
BRANCH  25  29
ATOM     29  C   UNL     1       7.422  15.417  17.630  0.00  0.00    +0.000 C 
BRANCH  29  33
ATOM     30  C   UNL     1       5.666  16.748  21.375  0.00  0.00    +0.000 A 
ATOM     31  C   UNL     1       6.170  17.669  20.458  0.00  0.00    +0.000 A 
ATOM     32  C   UNL     1       6.755  17.235  19.260  0.00  0.00    +0.000 A 
ATOM     33  C   UNL     1       6.868  15.868  18.969  0.00  0.00    +0.000 A 
ATOM     34  C   UNL     1       6.394  14.949  19.920  0.00  0.00    +0.000 A 
ATOM     35  C   UNL     1       5.799  15.385  21.117  0.00  0.00    +0.000 A 
BRANCH  30  37
ATOM     36  C   UNL     1       4.436  16.368  23.359  0.00  0.00    +0.000 C 
ATOM     37  O   UNL     1       5.106  17.287  22.500  0.00  0.00    +0.000 OA
ENDBRANCH  30  37
ENDBRANCH  29  33
ENDBRANCH  25  29
ENDBRANCH   1  26
TORSDOF 5
ENDMDL
MODEL 2
REMARK VINA RESULT:      -6.7      0.942      1.153
REMARK  Name = 
REMARK  9 active torsions:
REMARK  status: ('A' for Active; 'I' for Inactive)
REMARK    1  A    between atoms: C_1  and  O_2
REMARK    2  A    between atoms: O_2  and  C_3
REMARK    3  A    between atoms: C_6  and  C_7
REMARK    4  A    between atoms: C_7  and  N_8
REMARK    5  A    between atoms: C_9  and  C_11
REMARK    6  A    between atoms: C_19  and  C_20
REMARK    7  A    between atoms: C_22  and  C_23
REMARK    8  A    between atoms: N_24  and  C_25
REMARK    9  A    between atoms: C_28  and  C_29
REMARK                            x       y       z     vdW  Elec       q    Type
REMARK                         _______ _______ _______ _____ _____    ______ ____
ROOT
ATOM      1  C   UNL     1      10.012  12.568  17.729  0.00  0.00    +0.000 C 
ATOM      2  C   UNL     1       9.883  11.092  18.160  0.00  0.00    +0.000 C 
ATOM      3  C   UNL     1       9.903  10.819  19.673  0.00  0.00    +0.000 C 
ATOM      4  C   UNL     1      10.896  11.681  20.441  0.00  0.00    +0.000 C 
ATOM      5  N   UNL     1      10.728  13.056  20.038  0.00  0.00    +0.000 N 
ATOM      6  C   UNL     1      10.180  14.040  20.839  0.00  0.00    +0.000 A 
ATOM      7  N   UNL     1      10.392  15.345  20.452  0.00  0.00    +0.000 NA
ATOM      8  N   UNL     1       9.992  16.532  21.167  0.00  0.00    +0.000 NA
ATOM      9  C   UNL     1       9.328  16.505  22.351  0.00  0.00    +0.000 A 
ATOM     10  C   UNL     1       9.002  17.826  22.947  0.00  0.00    +0.000 C 
ATOM     11  C   UNL     1       9.047  15.196  22.777  0.00  0.00    +0.000 A 
ATOM     12  C   UNL     1       8.341  14.845  23.910  0.00  0.00    +0.000 A 
ATOM     13  C   UNL     1       7.684  15.704  24.934  0.00  0.00    +0.000 C 
ATOM     14  N   UNL     1       8.261  13.446  23.880  0.00  0.00    +0.000 N 
ATOM     15  N   UNL     1       8.927  12.922  22.790  0.00  0.00    +0.000 NA
ATOM     16  C   UNL     1       9.423  13.964  22.084  0.00  0.00    +0.000 A 
ATOM     17  C   UNL     1      10.980  13.346  18.624  0.00  0.00    +0.000 C 
ENDROOT
BRANCH  14  18
ATOM     18  C   UNL     1       7.533  12.581  24.793  0.00  0.00    +0.000 A 
ATOM     19  C   UNL     1       6.466  11.797  24.330  0.00  0.00    +0.000 A 
ATOM     20  C   UNL     1       5.670  11.056  25.230  0.00  0.00    +0.000 A 
ATOM     21  C   UNL     1       5.932  11.070  26.610  0.00  0.00    +0.000 A 
ATOM     22  C   UNL     1       5.086  10.326  27.603  0.00  0.00    +0.000 C 
ATOM     23  C   UNL     1       7.011  11.813  27.065  0.00  0.00    +0.000 A 
ATOM     24  C   UNL     1       7.814  12.529  26.169  0.00  0.00    +0.000 A 
ENDBRANCH  14  18
BRANCH   1  26
ATOM     25  N   UNL     1       8.753  14.662  17.802  0.00  0.00    +0.000 N 
ATOM     26  C   UNL     1       8.678  13.303  17.534  0.00  0.00    +0.000 C 
ATOM     27  O   UNL     1       7.664  12.759  17.109  0.00  0.00    +0.000 OA
ATOM     28  H   UNL     1       9.566  15.032  18.276  0.00  0.00    +0.000 HD
BRANCH  25  29
ATOM     29  C   UNL     1       7.648  15.582  17.602  0.00  0.00    +0.000 C 
BRANCH  29  33
ATOM     30  C   UNL     1       4.458  14.735  20.428  0.00  0.00    +0.000 A 
ATOM     31  C   UNL     1       4.205  14.766  19.057  0.00  0.00    +0.000 A 
ATOM     32  C   UNL     1       5.233  15.060  18.150  0.00  0.00    +0.000 A 
ATOM     33  C   UNL     1       6.528  15.353  18.600  0.00  0.00    +0.000 A 
ATOM     34  C   UNL     1       6.759  15.361  19.985  0.00  0.00    +0.000 A 
ATOM     35  C   UNL     1       5.731  15.056  20.894  0.00  0.00    +0.000 A 
BRANCH  30  37
ATOM     36  C   UNL     1       3.160  15.286  22.326  0.00  0.00    +0.000 C 
ATOM     37  O   UNL     1       3.384  14.422  21.215  0.00  0.00    +0.000 OA
ENDBRANCH  30  37
ENDBRANCH  29  33
ENDBRANCH  25  29
ENDBRANCH   1  26
TORSDOF 5
ENDMDL
MODEL 3
REMARK VINA RESULT:      -6.7      1.198      1.621
REMARK  Name = 
REMARK  9 active torsions:
REMARK  status: ('A' for Active; 'I' for Inactive)
REMARK    1  A    between atoms: C_1  and  O_2
REMARK    2  A    between atoms: O_2  and  C_3
REMARK    3  A    between atoms: C_6  and  C_7
REMARK    4  A    between atoms: C_7  and  N_8
REMARK    5  A    between atoms: C_9  and  C_11
REMARK    6  A    between atoms: C_19  and  C_20
REMARK    7  A    between atoms: C_22  and  C_23
REMARK    8  A    between atoms: N_24  and  C_25
REMARK    9  A    between atoms: C_28  and  C_29
REMARK                            x       y       z     vdW  Elec       q    Type
REMARK                         _______ _______ _______ _____ _____    ______ ____
ROOT
ATOM      1  C   UNL     1       9.744  12.293  17.704  0.00  0.00    +0.000 C 
ATOM      2  C   UNL     1       9.607  10.855  18.246  0.00  0.00    +0.000 C 
ATOM      3  C   UNL     1       9.649  10.695  19.774  0.00  0.00    +0.000 C 
ATOM      4  C   UNL     1      10.662  11.600  20.461  0.00  0.00    +0.000 C 
ATOM      5  N   UNL     1      10.502  12.944  19.959  0.00  0.00    +0.000 N 
ATOM      6  C   UNL     1       9.975  13.991  20.693  0.00  0.00    +0.000 A 
ATOM      7  N   UNL     1      10.194  15.261  20.207  0.00  0.00    +0.000 NA
ATOM      8  N   UNL     1       9.818  16.502  20.837  0.00  0.00    +0.000 NA
ATOM      9  C   UNL     1       9.172  16.571  22.029  0.00  0.00    +0.000 A 
ATOM     10  C   UNL     1       8.868  17.936  22.529  0.00  0.00    +0.000 C 
ATOM     11  C   UNL     1       8.885  15.300  22.555  0.00  0.00    +0.000 A 
ATOM     12  C   UNL     1       8.194  15.042  23.722  0.00  0.00    +0.000 A 
ATOM     13  C   UNL     1       7.561  15.983  24.689  0.00  0.00    +0.000 C 
ATOM     14  N   UNL     1       8.099  13.646  23.798  0.00  0.00    +0.000 N 
ATOM     15  N   UNL     1       8.742  13.035  22.740  0.00  0.00    +0.000 NA
ATOM     16  C   UNL     1       9.237  14.016  21.951  0.00  0.00    +0.000 A 
ATOM     17  C   UNL     1      10.734  13.125  18.524  0.00  0.00    +0.000 C 
ENDROOT
BRANCH  14  18
ATOM     18  C   UNL     1       7.377  12.859  24.784  0.00  0.00    +0.000 A 
ATOM     19  C   UNL     1       7.782  12.862  26.128  0.00  0.00    +0.000 A 
ATOM     20  C   UNL     1       7.172  12.002  27.067  0.00  0.00    +0.000 A 
ATOM     21  C   UNL     1       6.136  11.133  26.688  0.00  0.00    +0.000 A 
ATOM     22  C   UNL     1       5.488  10.177  27.649  0.00  0.00    +0.000 C 
ATOM     23  C   UNL     1       5.709  11.158  25.369  0.00  0.00    +0.000 A 
ATOM     24  C   UNL     1       6.298  12.028  24.444  0.00  0.00    +0.000 A 
ENDBRANCH  14  18
BRANCH   1  26
ATOM     25  N   UNL     1       8.461  14.371  17.810  0.00  0.00    +0.000 N 
ATOM     26  C   UNL     1       8.415  13.026  17.474  0.00  0.00    +0.000 C 
ATOM     27  O   UNL     1       7.429  12.495  16.973  0.00  0.00    +0.000 OA
ATOM     28  H   UNL     1       9.245  14.725  18.343  0.00  0.00    +0.000 HD
BRANCH  25  29
ATOM     29  C   UNL     1       7.359  15.292  17.596  0.00  0.00    +0.000 C 
BRANCH  29  33
ATOM     30  C   UNL     1       4.022  14.702  20.316  0.00  0.00    +0.000 A 
ATOM     31  C   UNL     1       5.311  14.912  20.805  0.00  0.00    +0.000 A 
ATOM     32  C   UNL     1       6.388  15.082  19.924  0.00  0.00    +0.000 A 
ATOM     33  C   UNL     1       6.199  15.019  18.536  0.00  0.00    +0.000 A 
ATOM     34  C   UNL     1       4.904  14.763  18.057  0.00  0.00    +0.000 A 
ATOM     35  C   UNL     1       3.822  14.603  18.940  0.00  0.00    +0.000 A 
BRANCH  30  37
ATOM     36  C   UNL     1       1.991  13.666  20.945  0.00  0.00    +0.000 C 
ATOM     37  O   UNL     1       3.049  14.565  21.268  0.00  0.00    +0.000 OA
ENDBRANCH  30  37
ENDBRANCH  29  33
ENDBRANCH  25  29
ENDBRANCH   1  26
TORSDOF 5
ENDMDL
MODEL 4
REMARK VINA RESULT:      -6.5     10.138     12.515
REMARK  Name = 
REMARK  9 active torsions:
REMARK  status: ('A' for Active; 'I' for Inactive)
REMARK    1  A    between atoms: C_1  and  O_2
REMARK    2  A    between atoms: O_2  and  C_3
REMARK    3  A    between atoms: C_6  and  C_7
REMARK    4  A    between atoms: C_7  and  N_8
REMARK    5  A    between atoms: C_9  and  C_11
REMARK    6  A    between atoms: C_19  and  C_20
REMARK    7  A    between atoms: C_22  and  C_23
REMARK    8  A    between atoms: N_24  and  C_25
REMARK    9  A    between atoms: C_28  and  C_29
REMARK                            x       y       z     vdW  Elec       q    Type
REMARK                         _______ _______ _______ _____ _____    ______ ____
ROOT
ATOM      1  C   UNL     1      -7.192  11.752  19.527  0.00  0.00    +0.000 C 
ATOM      2  C   UNL     1      -6.932  10.536  18.614  0.00  0.00    +0.000 C 
ATOM      3  C   UNL     1      -5.499  10.379  18.079  0.00  0.00    +0.000 C 
ATOM      4  C   UNL     1      -4.841  11.695  17.685  0.00  0.00    +0.000 C 
ATOM      5  N   UNL     1      -5.028  12.647  18.753  0.00  0.00    +0.000 N 
ATOM      6  C   UNL     1      -4.018  13.090  19.586  0.00  0.00    +0.000 A 
ATOM      7  N   UNL     1      -4.274  14.227  20.321  0.00  0.00    +0.000 NA
ATOM      8  N   UNL     1      -3.351  14.918  21.187  0.00  0.00    +0.000 NA
ATOM      9  C   UNL     1      -2.072  14.514  21.396  0.00  0.00    +0.000 A 
ATOM     10  C   UNL     1      -1.264  15.353  22.317  0.00  0.00    +0.000 C 
ATOM     11  C   UNL     1      -1.766  13.331  20.701  0.00  0.00    +0.000 A 
ATOM     12  C   UNL     1      -0.569  12.647  20.753  0.00  0.00    +0.000 A 
ATOM     13  C   UNL     1       0.664  12.931  21.539  0.00  0.00    +0.000 C 
ATOM     14  N   UNL     1      -0.756  11.508  19.957  0.00  0.00    +0.000 N 
ATOM     15  N   UNL     1      -2.013  11.488  19.386  0.00  0.00    +0.000 NA
ATOM     16  C   UNL     1      -2.667  12.591  19.820  0.00  0.00    +0.000 A 
ATOM     17  C   UNL     1      -6.416  12.991  19.070  0.00  0.00    +0.000 C 
ENDROOT
BRANCH  14  18
ATOM     18  C   UNL     1       0.169  10.404  19.759  0.00  0.00    +0.000 A 
ATOM     19  C   UNL     1       0.767  10.196  18.508  0.00  0.00    +0.000 A 
ATOM     20  C   UNL     1       1.561   9.053  18.268  0.00  0.00    +0.000 A 
ATOM     21  C   UNL     1       1.787   8.103  19.278  0.00  0.00    +0.000 A 
ATOM     22  C   UNL     1       2.594   6.857  19.052  0.00  0.00    +0.000 C 
ATOM     23  C   UNL     1       1.229   8.329  20.527  0.00  0.00    +0.000 A 
ATOM     24  C   UNL     1       0.461   9.474  20.770  0.00  0.00    +0.000 A 
ENDBRANCH  14  18
BRANCH   1  26
ATOM     25  N   UNL     1      -6.778  12.624  21.772  0.00  0.00    +0.000 N 
ATOM     26  C   UNL     1      -7.027  11.480  21.029  0.00  0.00    +0.000 C 
ATOM     27  O   UNL     1      -7.174  10.371  21.534  0.00  0.00    +0.000 OA
ATOM     28  H   UNL     1      -6.530  13.482  21.299  0.00  0.00    +0.000 HD
BRANCH  25  29
ATOM     29  C   UNL     1      -6.675  12.634  23.221  0.00  0.00    +0.000 C 
BRANCH  29  33
ATOM     30  C   UNL     1      -3.713  15.403  24.785  0.00  0.00    +0.000 A 
ATOM     31  C   UNL     1      -4.913  15.871  24.248  0.00  0.00    +0.000 A 
ATOM     32  C   UNL     1      -5.857  14.976  23.726  0.00  0.00    +0.000 A 
ATOM     33  C   UNL     1      -5.607  13.596  23.709  0.00  0.00    +0.000 A 
ATOM     34  C   UNL     1      -4.378  13.141  24.213  0.00  0.00    +0.000 A 
ATOM     35  C   UNL     1      -3.435  14.038  24.746  0.00  0.00    +0.000 A 
BRANCH  30  37
ATOM     36  C   UNL     1      -1.715  15.889  25.952  0.00  0.00    +0.000 C 
ATOM     37  O   UNL     1      -2.877  16.366  25.278  0.00  0.00    +0.000 OA
ENDBRANCH  30  37
ENDBRANCH  29  33
ENDBRANCH  25  29
ENDBRANCH   1  26
TORSDOF 5
ENDMDL
MODEL 5
REMARK VINA RESULT:      -6.4      5.034      7.724
REMARK  Name = 
REMARK  9 active torsions:
REMARK  status: ('A' for Active; 'I' for Inactive)
REMARK    1  A    between atoms: C_1  and  O_2
REMARK    2  A    between atoms: O_2  and  C_3
REMARK    3  A    between atoms: C_6  and  C_7
REMARK    4  A    between atoms: C_7  and  N_8
REMARK    5  A    between atoms: C_9  and  C_11
REMARK    6  A    between atoms: C_19  and  C_20
REMARK    7  A    between atoms: C_22  and  C_23
REMARK    8  A    between atoms: N_24  and  C_25
REMARK    9  A    between atoms: C_28  and  C_29
REMARK                            x       y       z     vdW  Elec       q    Type
REMARK                         _______ _______ _______ _____ _____    ______ ____
ROOT
ATOM      1  C   UNL     1       1.416  13.892  19.281  0.00  0.00    +0.000 C 
ATOM      2  C   UNL     1       2.237  13.540  18.023  0.00  0.00    +0.000 C 
ATOM      3  C   UNL     1       3.726  13.924  18.051  0.00  0.00    +0.000 C 
ATOM      4  C   UNL     1       4.002  15.271  18.705  0.00  0.00    +0.000 C 
ATOM      5  N   UNL     1       3.299  15.332  19.963  0.00  0.00    +0.000 N 
ATOM      6  C   UNL     1       3.913  15.287  21.201  0.00  0.00    +0.000 A 
ATOM      7  N   UNL     1       3.160  15.688  22.282  0.00  0.00    +0.000 NA
ATOM      8  N   UNL     1       3.607  15.806  23.648  0.00  0.00    +0.000 NA
ATOM      9  C   UNL     1       4.872  15.520  24.049  0.00  0.00    +0.000 A 
ATOM     10  C   UNL     1       5.156  15.705  25.495  0.00  0.00    +0.000 C 
ATOM     11  C   UNL     1       5.679  15.066  22.992  0.00  0.00    +0.000 A 
ATOM     12  C   UNL     1       6.990  14.649  23.093  0.00  0.00    +0.000 A 
ATOM     13  C   UNL     1       7.871  14.537  24.290  0.00  0.00    +0.000 C 
ATOM     14  N   UNL     1       7.348  14.229  21.804  0.00  0.00    +0.000 N 
ATOM     15  N   UNL     1       6.316  14.411  20.906  0.00  0.00    +0.000 NA
ATOM     16  C   UNL     1       5.269  14.921  21.596  0.00  0.00    +0.000 A 
ATOM     17  C   UNL     1       1.839  15.233  19.888  0.00  0.00    +0.000 C 
ENDROOT
BRANCH  14  18
ATOM     18  C   UNL     1       8.594  13.606  21.390  0.00  0.00    +0.000 A 
ATOM     19  C   UNL     1       9.627  14.380  20.841  0.00  0.00    +0.000 A 
ATOM     20  C   UNL     1      10.786  13.770  20.315  0.00  0.00    +0.000 A 
ATOM     21  C   UNL     1      10.945  12.375  20.339  0.00  0.00    +0.000 A 
ATOM     22  C   UNL     1      12.145  11.685  19.756  0.00  0.00    +0.000 C 
ATOM     23  C   UNL     1       9.941  11.610  20.917  0.00  0.00    +0.000 A 
ATOM     24  C   UNL     1       8.803  12.219  21.460  0.00  0.00    +0.000 A 
ENDBRANCH  14  18
BRANCH   1  26
ATOM     25  N   UNL     1       0.881  11.569  19.820  0.00  0.00    +0.000 N 
ATOM     26  C   UNL     1       1.332  12.776  20.332  0.00  0.00    +0.000 C 
ATOM     27  O   UNL     1       1.699  12.916  21.495  0.00  0.00    +0.000 OA
ATOM     28  H   UNL     1       0.464  11.542  18.899  0.00  0.00    +0.000 HD
BRANCH  25  29
ATOM     29  C   UNL     1       0.804  10.345  20.598  0.00  0.00    +0.000 C 
BRANCH  29  33
ATOM     30  C   UNL     1       2.460   6.900  18.530  0.00  0.00    +0.000 A 
ATOM     31  C   UNL     1       2.249   6.870  19.908  0.00  0.00    +0.000 A 
ATOM     32  C   UNL     1       1.734   7.991  20.575  0.00  0.00    +0.000 A 
ATOM     33  C   UNL     1       1.442   9.172  19.878  0.00  0.00    +0.000 A 
ATOM     34  C   UNL     1       1.700   9.204  18.497  0.00  0.00    +0.000 A 
ATOM     35  C   UNL     1       2.207   8.077  17.827  0.00  0.00    +0.000 A 
BRANCH  30  37
ATOM     36  C   UNL     1       2.005   4.695  17.809  0.00  0.00    +0.000 C 
ATOM     37  O   UNL     1       2.951   5.745  17.987  0.00  0.00    +0.000 OA
ENDBRANCH  30  37
ENDBRANCH  29  33
ENDBRANCH  25  29
ENDBRANCH   1  26
TORSDOF 5
ENDMDL
MODEL 6
REMARK VINA RESULT:      -6.4      4.969      7.647
REMARK  Name = 
REMARK  9 active torsions:
REMARK  status: ('A' for Active; 'I' for Inactive)
REMARK    1  A    between atoms: C_1  and  O_2
REMARK    2  A    between atoms: O_2  and  C_3
REMARK    3  A    between atoms: C_6  and  C_7
REMARK    4  A    between atoms: C_7  and  N_8
REMARK    5  A    between atoms: C_9  and  C_11
REMARK    6  A    between atoms: C_19  and  C_20
REMARK    7  A    between atoms: C_22  and  C_23
REMARK    8  A    between atoms: N_24  and  C_25
REMARK    9  A    between atoms: C_28  and  C_29
REMARK                            x       y       z     vdW  Elec       q    Type
REMARK                         _______ _______ _______ _____ _____    ______ ____
ROOT
ATOM      1  C   UNL     1       1.242  14.111  19.567  0.00  0.00    +0.000 C 
ATOM      2  C   UNL     1       1.964  13.870  18.225  0.00  0.00    +0.000 C 
ATOM      3  C   UNL     1       3.454  14.244  18.174  0.00  0.00    +0.000 C 
ATOM      4  C   UNL     1       3.792  15.527  18.922  0.00  0.00    +0.000 C 
ATOM      5  N   UNL     1       3.185  15.477  20.231  0.00  0.00    +0.000 N 
ATOM      6  C   UNL     1       3.890  15.320  21.410  0.00  0.00    +0.000 A 
ATOM      7  N   UNL     1       3.224  15.625  22.576  0.00  0.00    +0.000 NA
ATOM      8  N   UNL     1       3.773  15.619  23.909  0.00  0.00    +0.000 NA
ATOM      9  C   UNL     1       5.061  15.294  24.187  0.00  0.00    +0.000 A 
ATOM     10  C   UNL     1       5.454  15.347  25.619  0.00  0.00    +0.000 C 
ATOM     11  C   UNL     1       5.782  14.933  23.036  0.00  0.00    +0.000 A 
ATOM     12  C   UNL     1       7.093  14.504  23.001  0.00  0.00    +0.000 A 
ATOM     13  C   UNL     1       8.059  14.282  24.113  0.00  0.00    +0.000 C 
ATOM     14  N   UNL     1       7.349  14.200  21.656  0.00  0.00    +0.000 N 
ATOM     15  N   UNL     1       6.255  14.465  20.858  0.00  0.00    +0.000 NA
ATOM     16  C   UNL     1       5.268  14.915  21.667  0.00  0.00    +0.000 A 
ATOM     17  C   UNL     1       1.723  15.390  20.257  0.00  0.00    +0.000 C 
ENDROOT
BRANCH  14  18
ATOM     18  C   UNL     1       8.554  13.611  21.096  0.00  0.00    +0.000 A 
ATOM     19  C   UNL     1       8.710  12.218  21.055  0.00  0.00    +0.000 A 
ATOM     20  C   UNL     1       9.928  11.640  20.635  0.00  0.00    +0.000 A 
ATOM     21  C   UNL     1      11.010  12.441  20.233  0.00  0.00    +0.000 A 
ATOM     22  C   UNL     1      12.333  11.865  19.816  0.00  0.00    +0.000 C 
ATOM     23  C   UNL     1      10.843  13.818  20.236  0.00  0.00    +0.000 A 
ATOM     24  C   UNL     1       9.627  14.389  20.630  0.00  0.00    +0.000 A 
ENDBRANCH  14  18
BRANCH   1  26
ATOM     25  N   UNL     1       0.154  12.051  20.307  0.00  0.00    +0.000 N 
ATOM     26  C   UNL     1       1.226  12.905  20.518  0.00  0.00    +0.000 C 
ATOM     27  O   UNL     1       2.113  12.678  21.334  0.00  0.00    +0.000 OA
ATOM     28  H   UNL     1      -0.616  12.351  19.724  0.00  0.00    +0.000 HD
BRANCH  25  29
ATOM     29  C   UNL     1      -0.028  10.798  21.019  0.00  0.00    +0.000 C 
BRANCH  29  33
ATOM     30  C   UNL     1       2.221   7.608  19.109  0.00  0.00    +0.000 A 
ATOM     31  C   UNL     1       1.834   8.737  18.388  0.00  0.00    +0.000 A 
ATOM     32  C   UNL     1       1.091   9.755  19.002  0.00  0.00    +0.000 A 
ATOM     33  C   UNL     1       0.700   9.650  20.345  0.00  0.00    +0.000 A 
ATOM     34  C   UNL     1       1.059   8.488  21.048  0.00  0.00    +0.000 A 
ATOM     35  C   UNL     1       1.812   7.472  20.435  0.00  0.00    +0.000 A 
BRANCH  30  37
ATOM     36  C   UNL     1       2.415   5.371  18.369  0.00  0.00    +0.000 C 
ATOM     37  O   UNL     1       2.954   6.689  18.410  0.00  0.00    +0.000 OA
ENDBRANCH  30  37
ENDBRANCH  29  33
ENDBRANCH  25  29
ENDBRANCH   1  26
TORSDOF 5
ENDMDL
MODEL 7
REMARK VINA RESULT:      -6.3      5.829      8.268
REMARK  Name = 
REMARK  9 active torsions:
REMARK  status: ('A' for Active; 'I' for Inactive)
REMARK    1  A    between atoms: C_1  and  O_2
REMARK    2  A    between atoms: O_2  and  C_3
REMARK    3  A    between atoms: C_6  and  C_7
REMARK    4  A    between atoms: C_7  and  N_8
REMARK    5  A    between atoms: C_9  and  C_11
REMARK    6  A    between atoms: C_19  and  C_20
REMARK    7  A    between atoms: C_22  and  C_23
REMARK    8  A    between atoms: N_24  and  C_25
REMARK    9  A    between atoms: C_28  and  C_29
REMARK                            x       y       z     vdW  Elec       q    Type
REMARK                         _______ _______ _______ _____ _____    ______ ____
ROOT
ATOM      1  C   UNL     1       1.715  15.226  19.714  0.00  0.00    +0.000 C 
ATOM      2  C   UNL     1       2.280  15.738  18.372  0.00  0.00    +0.000 C 
ATOM      3  C   UNL     1       3.788  16.037  18.336  0.00  0.00    +0.000 C 
ATOM      4  C   UNL     1       4.316  16.691  19.606  0.00  0.00    +0.000 C 
ATOM      5  N   UNL     1       3.835  15.950  20.747  0.00  0.00    +0.000 N 
ATOM      6  C   UNL     1       4.630  15.154  21.550  0.00  0.00    +0.000 A 
ATOM      7  N   UNL     1       4.110  14.790  22.772  0.00  0.00    +0.000 NA
ATOM      8  N   UNL     1       4.780  14.039  23.805  0.00  0.00    +0.000 NA
ATOM      9  C   UNL     1       6.052  13.579  23.691  0.00  0.00    +0.000 A 
ATOM     10  C   UNL     1       6.582  12.829  24.858  0.00  0.00    +0.000 C 
ATOM     11  C   UNL     1       6.622  13.887  22.444  0.00  0.00    +0.000 A 
ATOM     12  C   UNL     1       7.877  13.510  22.010  0.00  0.00    +0.000 A 
ATOM     13  C   UNL     1       8.919  12.689  22.688  0.00  0.00    +0.000 C 
ATOM     14  N   UNL     1       7.974  13.985  20.695  0.00  0.00    +0.000 N 
ATOM     15  N   UNL     1       6.839  14.674  20.318  0.00  0.00    +0.000 NA
ATOM     16  C   UNL     1       5.981  14.635  21.364  0.00  0.00    +0.000 A 
ATOM     17  C   UNL     1       2.380  15.904  20.915  0.00  0.00    +0.000 C 
ENDROOT
BRANCH  14  18
ATOM     18  C   UNL     1       9.058  13.766  19.752  0.00  0.00    +0.000 A 
ATOM     19  C   UNL     1      10.281  14.436  19.909  0.00  0.00    +0.000 A 
ATOM     20  C   UNL     1      11.292  14.332  18.929  0.00  0.00    +0.000 A 
ATOM     21  C   UNL     1      11.109  13.546  17.780  0.00  0.00    +0.000 A 
ATOM     22  C   UNL     1      12.145  13.441  16.697  0.00  0.00    +0.000 C 
ATOM     23  C   UNL     1       9.917  12.852  17.643  0.00  0.00    +0.000 A 
ATOM     24  C   UNL     1       8.924  12.936  18.626  0.00  0.00    +0.000 A 
ENDBRANCH  14  18
BRANCH   1  26
ATOM     25  N   UNL     1       0.582  13.114  19.232  0.00  0.00    +0.000 N 
ATOM     26  C   UNL     1       1.674  13.698  19.856  0.00  0.00    +0.000 C 
ATOM     27  O   UNL     1       2.560  13.047  20.403  0.00  0.00    +0.000 OA
ATOM     28  H   UNL     1      -0.183  13.697  18.919  0.00  0.00    +0.000 HD
BRANCH  25  29
ATOM     29  C   UNL     1       0.374  11.679  19.151  0.00  0.00    +0.000 C 
BRANCH  29  33
ATOM     30  C   UNL     1      -3.686  10.824  17.859  0.00  0.00    +0.000 A 
ATOM     31  C   UNL     1      -3.425  11.874  18.739  0.00  0.00    +0.000 A 
ATOM     32  C   UNL     1      -2.116  12.134  19.170  0.00  0.00    +0.000 A 
ATOM     33  C   UNL     1      -1.047  11.332  18.747  0.00  0.00    +0.000 A 
ATOM     34  C   UNL     1      -1.329  10.251  17.895  0.00  0.00    +0.000 A 
ATOM     35  C   UNL     1      -2.640   9.996  17.456  0.00  0.00    +0.000 A 
BRANCH  30  37
ATOM     36  C   UNL     1      -5.839  11.794  17.757  0.00  0.00    +0.000 C 
ATOM     37  O   UNL     1      -4.996  10.675  17.497  0.00  0.00    +0.000 OA
ENDBRANCH  30  37
ENDBRANCH  29  33
ENDBRANCH  25  29
ENDBRANCH   1  26
TORSDOF 5
ENDMDL
MODEL 8
REMARK VINA RESULT:      -6.3      5.153      7.974
REMARK  Name = 
REMARK  9 active torsions:
REMARK  status: ('A' for Active; 'I' for Inactive)
REMARK    1  A    between atoms: C_1  and  O_2
REMARK    2  A    between atoms: O_2  and  C_3
REMARK    3  A    between atoms: C_6  and  C_7
REMARK    4  A    between atoms: C_7  and  N_8
REMARK    5  A    between atoms: C_9  and  C_11
REMARK    6  A    between atoms: C_19  and  C_20
REMARK    7  A    between atoms: C_22  and  C_23
REMARK    8  A    between atoms: N_24  and  C_25
REMARK    9  A    between atoms: C_28  and  C_29
REMARK                            x       y       z     vdW  Elec       q    Type
REMARK                         _______ _______ _______ _____ _____    ______ ____
ROOT
ATOM      1  C   UNL     1       1.895  15.682  20.709  0.00  0.00    +0.000 C 
ATOM      2  C   UNL     1       2.385  16.347  19.407  0.00  0.00    +0.000 C 
ATOM      3  C   UNL     1       3.905  16.523  19.261  0.00  0.00    +0.000 C 
ATOM      4  C   UNL     1       4.605  16.928  20.551  0.00  0.00    +0.000 C 
ATOM      5  N   UNL     1       4.157  16.062  21.615  0.00  0.00    +0.000 N 
ATOM      6  C   UNL     1       4.940  15.089  22.208  0.00  0.00    +0.000 A 
ATOM      7  N   UNL     1       4.497  14.584  23.411  0.00  0.00    +0.000 NA
ATOM      8  N   UNL     1       5.181  13.631  24.250  0.00  0.00    +0.000 NA
ATOM      9  C   UNL     1       6.387  13.091  23.941  0.00  0.00    +0.000 A 
ATOM     10  C   UNL     1       6.944  12.130  24.926  0.00  0.00    +0.000 C 
ATOM     11  C   UNL     1       6.871  13.540  22.700  0.00  0.00    +0.000 A 
ATOM     12  C   UNL     1       8.041  13.133  22.090  0.00  0.00    +0.000 A 
ATOM     13  C   UNL     1       9.055  12.135  22.532  0.00  0.00    +0.000 C 
ATOM     14  N   UNL     1       8.066  13.795  20.855  0.00  0.00    +0.000 N 
ATOM     15  N   UNL     1       6.974  14.625  20.700  0.00  0.00    +0.000 NA
ATOM     16  C   UNL     1       6.212  14.496  21.812  0.00  0.00    +0.000 A 
ATOM     17  C   UNL     1       2.725  16.110  21.923  0.00  0.00    +0.000 C 
ENDROOT
BRANCH  14  18
ATOM     18  C   UNL     1       9.037  13.636  19.785  0.00  0.00    +0.000 A 
ATOM     19  C   UNL     1      10.040  14.597  19.588  0.00  0.00    +0.000 A 
ATOM     20  C   UNL     1      10.904  14.521  18.474  0.00  0.00    +0.000 A 
ATOM     21  C   UNL     1      10.795  13.476  17.542  0.00  0.00    +0.000 A 
ATOM     22  C   UNL     1      11.670  13.381  16.325  0.00  0.00    +0.000 C 
ATOM     23  C   UNL     1       9.829  12.504  17.757  0.00  0.00    +0.000 A 
ATOM     24  C   UNL     1       8.988  12.567  18.875  0.00  0.00    +0.000 A 
ENDBRANCH  14  18
BRANCH   1  26
ATOM     25  N   UNL     1       1.806  13.658  19.341  0.00  0.00    +0.000 N 
ATOM     26  C   UNL     1       1.719  14.158  20.631  0.00  0.00    +0.000 C 
ATOM     27  O   UNL     1       1.590  13.443  21.620  0.00  0.00    +0.000 OA
ATOM     28  H   UNL     1       1.774  14.295  18.556  0.00  0.00    +0.000 HD
BRANCH  25  29
ATOM     29  C   UNL     1       1.763  12.242  19.023  0.00  0.00    +0.000 C 
BRANCH  29  33
ATOM     30  C   UNL     1      -2.234  10.903  17.967  0.00  0.00    +0.000 A 
ATOM     31  C   UNL     1      -1.168  10.005  18.001  0.00  0.00    +0.000 A 
ATOM     32  C   UNL     1       0.124  10.444  18.322  0.00  0.00    +0.000 A 
ATOM     33  C   UNL     1       0.378  11.797  18.592  0.00  0.00    +0.000 A 
ATOM     34  C   UNL     1      -0.697  12.699  18.512  0.00  0.00    +0.000 A 
ATOM     35  C   UNL     1      -1.994  12.256  18.199  0.00  0.00    +0.000 A 
BRANCH  30  37
ATOM     36  C   UNL     1      -4.226  11.081  16.706  0.00  0.00    +0.000 C 
ATOM     37  O   UNL     1      -3.449  10.358  17.657  0.00  0.00    +0.000 OA
ENDBRANCH  30  37
ENDBRANCH  29  33
ENDBRANCH  25  29
ENDBRANCH   1  26
TORSDOF 5
ENDMDL
MODEL 9
REMARK VINA RESULT:      -6.2     10.309     12.730
REMARK  Name = 
REMARK  9 active torsions:
REMARK  status: ('A' for Active; 'I' for Inactive)
REMARK    1  A    between atoms: C_1  and  O_2
REMARK    2  A    between atoms: O_2  and  C_3
REMARK    3  A    between atoms: C_6  and  C_7
REMARK    4  A    between atoms: C_7  and  N_8
REMARK    5  A    between atoms: C_9  and  C_11
REMARK    6  A    between atoms: C_19  and  C_20
REMARK    7  A    between atoms: C_22  and  C_23
REMARK    8  A    between atoms: N_24  and  C_25
REMARK    9  A    between atoms: C_28  and  C_29
REMARK                            x       y       z     vdW  Elec       q    Type
REMARK                         _______ _______ _______ _____ _____    ______ ____
ROOT
ATOM      1  C   UNL     1      -7.582  11.834  19.739  0.00  0.00    +0.000 C 
ATOM      2  C   UNL     1      -7.299  10.472  19.073  0.00  0.00    +0.000 C 
ATOM      3  C   UNL     1      -5.855  10.229  18.605  0.00  0.00    +0.000 C 
ATOM      4  C   UNL     1      -5.193  11.453  17.988  0.00  0.00    +0.000 C 
ATOM      5  N   UNL     1      -5.405  12.585  18.857  0.00  0.00    +0.000 N 
ATOM      6  C   UNL     1      -4.414  13.181  19.614  0.00  0.00    +0.000 A 
ATOM      7  N   UNL     1      -4.688  14.433  20.120  0.00  0.00    +0.000 NA
ATOM      8  N   UNL     1      -3.786  15.279  20.862  0.00  0.00    +0.000 NA
ATOM      9  C   UNL     1      -2.511  14.928  21.168  0.00  0.00    +0.000 A 
ATOM     10  C   UNL     1      -1.725  15.929  21.935  0.00  0.00    +0.000 C 
ATOM     11  C   UNL     1      -2.186  13.640  20.710  0.00  0.00    +0.000 A 
ATOM     12  C   UNL     1      -0.989  12.985  20.912  0.00  0.00    +0.000 A 
ATOM     13  C   UNL     1       0.227  13.418  21.658  0.00  0.00    +0.000 C 
ATOM     14  N   UNL     1      -1.156  11.717  20.338  0.00  0.00    +0.000 N 
ATOM     15  N   UNL     1      -2.400  11.584  19.755  0.00  0.00    +0.000 NA
ATOM     16  C   UNL     1      -3.067  12.743  19.964  0.00  0.00    +0.000 A 
ATOM     17  C   UNL     1      -6.800  12.973  19.077  0.00  0.00    +0.000 C 
ENDROOT
BRANCH  14  18
ATOM     18  C   UNL     1      -0.224  10.602  20.367  0.00  0.00    +0.000 A 
ATOM     19  C   UNL     1       0.574  10.316  19.249  0.00  0.00    +0.000 A 
ATOM     20  C   UNL     1       1.384   9.160  19.218  0.00  0.00    +0.000 A 
ATOM     21  C   UNL     1       1.425   8.274  20.306  0.00  0.00    +0.000 A 
ATOM     22  C   UNL     1       2.244   7.014  20.296  0.00  0.00    +0.000 C 
ATOM     23  C   UNL     1       0.666   8.577  21.427  0.00  0.00    +0.000 A 
ATOM     24  C   UNL     1      -0.118   9.735  21.467  0.00  0.00    +0.000 A 
ENDBRANCH  14  18
BRANCH   1  26
ATOM     25  N   UNL     1      -7.463  13.121  21.814  0.00  0.00    +0.000 N 
ATOM     26  C   UNL     1      -7.448  11.846  21.268  0.00  0.00    +0.000 C 
ATOM     27  O   UNL     1      -7.407  10.827  21.950  0.00  0.00    +0.000 OA
ATOM     28  H   UNL     1      -7.359  13.924  21.208  0.00  0.00    +0.000 HD
BRANCH  25  29
ATOM     29  C   UNL     1      -7.441  13.385  23.242  0.00  0.00    +0.000 C 
BRANCH  29  33
ATOM     30  C   UNL     1      -3.376  14.282  24.489  0.00  0.00    +0.000 A 
ATOM     31  C   UNL     1      -3.785  12.964  24.287  0.00  0.00    +0.000 A 
ATOM     32  C   UNL     1      -5.103  12.677  23.905  0.00  0.00    +0.000 A 
ATOM     33  C   UNL     1      -6.044  13.704  23.741  0.00  0.00    +0.000 A 
ATOM     34  C   UNL     1      -5.632  15.024  23.989  0.00  0.00    +0.000 A 
ATOM     35  C   UNL     1      -4.307  15.312  24.363  0.00  0.00    +0.000 A 
BRANCH  30  37
ATOM     36  C   UNL     1      -1.792  15.529  25.724  0.00  0.00    +0.000 C 
ATOM     37  O   UNL     1      -2.066  14.441  24.845  0.00  0.00    +0.000 OA
ENDBRANCH  30  37
ENDBRANCH  29  33
ENDBRANCH  25  29
ENDBRANCH   1  26
TORSDOF 5
ENDMDL
