MODEL 1
REMARK VINA RESULT:      -7.5      0.000      0.000
REMARK  Name = 
REMARK  7 active torsions:
REMARK  status: ('A' for Active; 'I' for Inactive)
REMARK    1  A    between atoms: C_1  and  C_2
REMARK    2  A    between atoms: C_2  and  C_3
REMARK    3  A    between atoms: C_2  and  C_4
REMARK    4  A    between atoms: C_2  and  C_5
REMARK    5  A    between atoms: N_11  and  C_12
REMARK    6  A    between atoms: C_15  and  N_16
REMARK    7  A    between atoms: C_17  and  C_19
REMARK                            x       y       z     vdW  Elec       q    Type
REMARK                         _______ _______ _______ _____ _____    ______ ____
ROOT
ATOM      1  C   UNL     1      -0.254  10.538  21.300  0.00  0.00    +0.000 A 
ATOM      2  C   UNL     1       0.214   9.782  22.372  0.00  0.00    +0.000 A 
ATOM      3  C   UNL     1       1.068   8.704  22.137  0.00  0.00    +0.000 A 
ATOM      4  C   UNL     1       1.487   8.383  20.839  0.00  0.00    +0.000 A 
ATOM      5  C   UNL     1       1.054   9.185  19.779  0.00  0.00    +0.000 A 
ATOM      6  C   UNL     1       0.148  10.228  20.005  0.00  0.00    +0.000 A 
ENDROOT
BRANCH   1  13
ATOM      7  C   UNL     1      -5.384  13.535  22.723  0.00  0.00    +0.000 A 
ATOM      8  C   UNL     1      -4.194  14.212  22.852  0.00  0.00    +0.000 A 
ATOM      9  C   UNL     1      -3.228  13.360  22.282  0.00  0.00    +0.000 A 
ATOM     10  N   UNL     1      -1.889  13.666  22.221  0.00  0.00    +0.000 N 
ATOM     11  C   UNL     1      -0.850  12.841  21.903  0.00  0.00    +0.000 C 
ATOM     12  O   UNL     1       0.293  13.283  22.009  0.00  0.00    +0.000 OA
ATOM     13  N   UNL     1      -1.170  11.579  21.487  0.00  0.00    +0.000 N 
ATOM     14  N   UNL     1      -3.796  12.238  21.824  0.00  0.00    +0.000 NA
ATOM     15  O   UNL     1      -5.145  12.348  22.102  0.00  0.00    +0.000 OA
ATOM     16  H   UNL     1      -1.595  14.575  22.544  0.00  0.00    +0.000 HD
ATOM     17  H   UNL     1      -2.098  11.476  21.090  0.00  0.00    +0.000 HD
BRANCH   7  19
ATOM     18  C   UNL     1      -6.792  15.258  23.782  0.00  0.00    +0.000 C 
ATOM     19  C   UNL     1      -6.797  13.878  23.100  0.00  0.00    +0.000 C 
ATOM     20  C   UNL     1      -7.334  12.818  24.079  0.00  0.00    +0.000 C 
ATOM     21  C   UNL     1      -7.732  13.935  21.880  0.00  0.00    +0.000 C 
ENDBRANCH   7  19
ENDBRANCH   1  13
BRANCH   4  22
ATOM     22  N   UNL     1       2.327   7.279  20.551  0.00  0.00    +0.000 N 
ATOM     23  C   UNL     1       1.890   5.966  20.505  0.00  0.00    +0.000 C 
ATOM     24  O   UNL     1       0.726   5.589  20.652  0.00  0.00    +0.000 OA
ATOM     25  H   UNL     1       3.236   7.495  20.175  0.00  0.00    +0.000 HD
BRANCH  23  26
ATOM     26  C   UNL     1       2.890   4.916  20.203  0.00  0.00    +0.000 A 
ATOM     27  C   UNL     1       2.700   3.566  20.506  0.00  0.00    +0.000 A 
ATOM     28  C   UNL     1       3.675   2.675  20.081  0.00  0.00    +0.000 A 
ATOM     29  N   UNL     1       4.790   3.032  19.408  0.00  0.00    +0.000 NA
ATOM     30  C   UNL     1       4.948   4.340  19.136  0.00  0.00    +0.000 A 
ATOM     31  C   UNL     1       4.039   5.310  19.510  0.00  0.00    +0.000 A 
ENDBRANCH  23  26
ENDBRANCH   4  22
TORSDOF 4
ENDMDL
MODEL 2
REMARK VINA RESULT:      -7.5      2.057     10.825
REMARK  Name = 
REMARK  7 active torsions:
REMARK  status: ('A' for Active; 'I' for Inactive)
REMARK    1  A    between atoms: C_1  and  C_2
REMARK    2  A    between atoms: C_2  and  C_3
REMARK    3  A    between atoms: C_2  and  C_4
REMARK    4  A    between atoms: C_2  and  C_5
REMARK    5  A    between atoms: N_11  and  C_12
REMARK    6  A    between atoms: C_15  and  N_16
REMARK    7  A    between atoms: C_17  and  C_19
REMARK                            x       y       z     vdW  Elec       q    Type
REMARK                         _______ _______ _______ _____ _____    ______ ____
ROOT
ATOM      1  C   UNL     1       0.508   9.951  19.960  0.00  0.00    +0.000 A 
ATOM      2  C   UNL     1      -0.660  10.288  19.281  0.00  0.00    +0.000 A 
ATOM      3  C   UNL     1      -1.502  11.274  19.800  0.00  0.00    +0.000 A 
ATOM      4  C   UNL     1      -1.176  11.952  20.983  0.00  0.00    +0.000 A 
ATOM      5  C   UNL     1       0.027  11.642  21.622  0.00  0.00    +0.000 A 
ATOM      6  C   UNL     1       0.841  10.610  21.138  0.00  0.00    +0.000 A 
ENDROOT
BRANCH   1  13
ATOM      7  C   UNL     1       2.774   4.357  19.015  0.00  0.00    +0.000 A 
ATOM      8  C   UNL     1       3.000   5.308  18.047  0.00  0.00    +0.000 A 
ATOM      9  C   UNL     1       2.545   6.515  18.612  0.00  0.00    +0.000 A 
ATOM     10  N   UNL     1       2.583   7.722  17.953  0.00  0.00    +0.000 N 
ATOM     11  C   UNL     1       1.979   8.893  18.304  0.00  0.00    +0.000 C 
ATOM     12  O   UNL     1       2.049   9.838  17.519  0.00  0.00    +0.000 OA
ATOM     13  N   UNL     1       1.338   8.917  19.511  0.00  0.00    +0.000 N 
ATOM     14  N   UNL     1       2.081   6.315  19.851  0.00  0.00    +0.000 NA
ATOM     15  O   UNL     1       2.223   4.963  20.101  0.00  0.00    +0.000 OA
ATOM     16  H   UNL     1       3.019   7.751  17.043  0.00  0.00    +0.000 HD
ATOM     17  H   UNL     1       1.670   8.243  20.192  0.00  0.00    +0.000 HD
BRANCH   7  19
ATOM     18  C   UNL     1       3.546   2.426  17.692  0.00  0.00    +0.000 C 
ATOM     19  C   UNL     1       3.042   2.880  19.074  0.00  0.00    +0.000 C 
ATOM     20  C   UNL     1       1.737   2.140  19.419  0.00  0.00    +0.000 C 
ATOM     21  C   UNL     1       4.102   2.518  20.128  0.00  0.00    +0.000 C 
ENDBRANCH   7  19
ENDBRANCH   1  13
BRANCH   4  22
ATOM     22  N   UNL     1      -2.016  12.936  21.562  0.00  0.00    +0.000 N 
ATOM     23  C   UNL     1      -2.828  12.710  22.661  0.00  0.00    +0.000 C 
ATOM     24  O   UNL     1      -2.893  11.661  23.305  0.00  0.00    +0.000 OA
ATOM     25  H   UNL     1      -1.856  13.886  21.272  0.00  0.00    +0.000 HD
BRANCH  23  26
ATOM     26  C   UNL     1      -3.660  13.835  23.146  0.00  0.00    +0.000 A 
ATOM     27  C   UNL     1      -5.022  13.960  22.862  0.00  0.00    +0.000 A 
ATOM     28  C   UNL     1      -5.703  15.010  23.460  0.00  0.00    +0.000 A 
ATOM     29  N   UNL     1      -5.133  15.916  24.284  0.00  0.00    +0.000 NA
ATOM     30  C   UNL     1      -3.818  15.772  24.535  0.00  0.00    +0.000 A 
ATOM     31  C   UNL     1      -3.047  14.762  23.994  0.00  0.00    +0.000 A 
ENDBRANCH  23  26
ENDBRANCH   4  22
TORSDOF 4
ENDMDL
MODEL 3
REMARK VINA RESULT:      -7.4      2.076     10.829
REMARK  Name = 
REMARK  7 active torsions:
REMARK  status: ('A' for Active; 'I' for Inactive)
REMARK    1  A    between atoms: C_1  and  C_2
REMARK    2  A    between atoms: C_2  and  C_3
REMARK    3  A    between atoms: C_2  and  C_4
REMARK    4  A    between atoms: C_2  and  C_5
REMARK    5  A    between atoms: N_11  and  C_12
REMARK    6  A    between atoms: C_15  and  N_16
REMARK    7  A    between atoms: C_17  and  C_19
REMARK                            x       y       z     vdW  Elec       q    Type
REMARK                         _______ _______ _______ _____ _____    ______ ____
ROOT
ATOM      1  C   UNL     1       0.519   9.929  20.001  0.00  0.00    +0.000 A 
ATOM      2  C   UNL     1      -0.654  10.284  19.340  0.00  0.00    +0.000 A 
ATOM      3  C   UNL     1      -1.482  11.269  19.880  0.00  0.00    +0.000 A 
ATOM      4  C   UNL     1      -1.139  11.928  21.068  0.00  0.00    +0.000 A 
ATOM      5  C   UNL     1       0.068  11.601  21.691  0.00  0.00    +0.000 A 
ATOM      6  C   UNL     1       0.870  10.570  21.184  0.00  0.00    +0.000 A 
ENDROOT
BRANCH   1  13
ATOM      7  C   UNL     1       2.740   4.332  18.969  0.00  0.00    +0.000 A 
ATOM      8  C   UNL     1       2.957   5.291  18.007  0.00  0.00    +0.000 A 
ATOM      9  C   UNL     1       2.517   6.495  18.591  0.00  0.00    +0.000 A 
ATOM     10  N   UNL     1       2.552   7.708  17.943  0.00  0.00    +0.000 N 
ATOM     11  C   UNL     1       1.959   8.879  18.314  0.00  0.00    +0.000 C 
ATOM     12  O   UNL     1       2.022   9.831  17.537  0.00  0.00    +0.000 OA
ATOM     13  N   UNL     1       1.337   8.895  19.531  0.00  0.00    +0.000 N 
ATOM     14  N   UNL     1       2.070   6.285  19.834  0.00  0.00    +0.000 NA
ATOM     15  O   UNL     1       2.209   4.930  20.069  0.00  0.00    +0.000 OA
ATOM     16  H   UNL     1       2.974   7.744  17.027  0.00  0.00    +0.000 HD
ATOM     17  H   UNL     1       1.676   8.212  20.200  0.00  0.00    +0.000 HD
BRANCH   7  19
ATOM     18  C   UNL     1       3.997   2.571  20.150  0.00  0.00    +0.000 C 
ATOM     19  C   UNL     1       3.000   2.853  19.010  0.00  0.00    +0.000 C 
ATOM     20  C   UNL     1       3.607   2.406  17.668  0.00  0.00    +0.000 C 
ATOM     21  C   UNL     1       1.720   2.039  19.263  0.00  0.00    +0.000 C 
ENDBRANCH   7  19
ENDBRANCH   1  13
BRANCH   4  22
ATOM     22  N   UNL     1      -1.965  12.911  21.670  0.00  0.00    +0.000 N 
ATOM     23  C   UNL     1      -2.776  12.673  22.766  0.00  0.00    +0.000 C 
ATOM     24  O   UNL     1      -2.852  11.613  23.390  0.00  0.00    +0.000 OA
ATOM     25  H   UNL     1      -1.795  13.865  21.397  0.00  0.00    +0.000 HD
BRANCH  23  26
ATOM     26  C   UNL     1      -3.594  13.798  23.276  0.00  0.00    +0.000 A 
ATOM     27  C   UNL     1      -3.154  14.677  24.268  0.00  0.00    +0.000 A 
ATOM     28  C   UNL     1      -3.981  15.746  24.584  0.00  0.00    +0.000 A 
ATOM     29  N   UNL     1      -5.179  15.978  24.004  0.00  0.00    +0.000 NA
ATOM     30  C   UNL     1      -5.578  15.110  23.056  0.00  0.00    +0.000 A 
ATOM     31  C   UNL     1      -4.831  14.017  22.663  0.00  0.00    +0.000 A 
ENDBRANCH  23  26
ENDBRANCH   4  22
TORSDOF 4
ENDMDL
MODEL 4
REMARK VINA RESULT:      -7.4      1.972      2.587
REMARK  Name = 
REMARK  7 active torsions:
REMARK  status: ('A' for Active; 'I' for Inactive)
REMARK    1  A    between atoms: C_1  and  C_2
REMARK    2  A    between atoms: C_2  and  C_3
REMARK    3  A    between atoms: C_2  and  C_4
REMARK    4  A    between atoms: C_2  and  C_5
REMARK    5  A    between atoms: N_11  and  C_12
REMARK    6  A    between atoms: C_15  and  N_16
REMARK    7  A    between atoms: C_17  and  C_19
REMARK                            x       y       z     vdW  Elec       q    Type
REMARK                         _______ _______ _______ _____ _____    ______ ____
ROOT
ATOM      1  C   UNL     1       0.118   9.991  20.582  0.00  0.00    +0.000 A 
ATOM      2  C   UNL     1       0.244  10.291  19.228  0.00  0.00    +0.000 A 
ATOM      3  C   UNL     1       1.108   9.540  18.430  0.00  0.00    +0.000 A 
ATOM      4  C   UNL     1       1.833   8.466  18.964  0.00  0.00    +0.000 A 
ATOM      5  C   UNL     1       1.654   8.142  20.311  0.00  0.00    +0.000 A 
ATOM      6  C   UNL     1       0.836   8.933  21.128  0.00  0.00    +0.000 A 
ENDROOT
BRANCH   1  13
ATOM      7  C   UNL     1      -4.667  13.096  22.770  0.00  0.00    +0.000 A 
ATOM      8  C   UNL     1      -3.813  12.517  23.680  0.00  0.00    +0.000 A 
ATOM      9  C   UNL     1      -2.728  12.052  22.912  0.00  0.00    +0.000 A 
ATOM     10  N   UNL     1      -1.647  11.391  23.450  0.00  0.00    +0.000 N 
ATOM     11  C   UNL     1      -0.665  10.709  22.795  0.00  0.00    +0.000 C 
ATOM     12  O   UNL     1       0.161  10.094  23.468  0.00  0.00    +0.000 OA
ATOM     13  N   UNL     1      -0.681  10.768  21.429  0.00  0.00    +0.000 N 
ATOM     14  N   UNL     1      -2.903  12.338  21.618  0.00  0.00    +0.000 NA
ATOM     15  O   UNL     1      -4.119  12.991  21.529  0.00  0.00    +0.000 OA
ATOM     16  H   UNL     1      -1.603  11.294  24.454  0.00  0.00    +0.000 HD
ATOM     17  H   UNL     1      -1.147  11.578  21.035  0.00  0.00    +0.000 HD
BRANCH   7  19
ATOM     18  C   UNL     1      -6.916  12.903  23.758  0.00  0.00    +0.000 C 
ATOM     19  C   UNL     1      -5.987  13.796  22.915  0.00  0.00    +0.000 C 
ATOM     20  C   UNL     1      -6.603  14.015  21.522  0.00  0.00    +0.000 C 
ATOM     21  C   UNL     1      -5.854  15.162  23.611  0.00  0.00    +0.000 C 
ENDBRANCH   7  19
ENDBRANCH   1  13
BRANCH   4  22
ATOM     22  N   UNL     1       2.746   7.697  18.199  0.00  0.00    +0.000 N 
ATOM     23  C   UNL     1       2.882   6.324  18.309  0.00  0.00    +0.000 C 
ATOM     24  O   UNL     1       2.208   5.590  19.034  0.00  0.00    +0.000 OA
ATOM     25  H   UNL     1       3.165   8.159  17.408  0.00  0.00    +0.000 HD
BRANCH  23  26
ATOM     26  C   UNL     1       3.888   5.659  17.450  0.00  0.00    +0.000 A 
ATOM     27  C   UNL     1       3.970   4.273  17.295  0.00  0.00    +0.000 A 
ATOM     28  C   UNL     1       4.897   3.788  16.384  0.00  0.00    +0.000 A 
ATOM     29  N   UNL     1       5.725   4.566  15.654  0.00  0.00    +0.000 NA
ATOM     30  C   UNL     1       5.626   5.897  15.828  0.00  0.00    +0.000 A 
ATOM     31  C   UNL     1       4.737   6.484  16.706  0.00  0.00    +0.000 A 
ENDBRANCH  23  26
ENDBRANCH   4  22
TORSDOF 4
ENDMDL
MODEL 5
REMARK VINA RESULT:      -7.3      1.916      2.641
REMARK  Name = 
REMARK  7 active torsions:
REMARK  status: ('A' for Active; 'I' for Inactive)
REMARK    1  A    between atoms: C_1  and  C_2
REMARK    2  A    between atoms: C_2  and  C_3
REMARK    3  A    between atoms: C_2  and  C_4
REMARK    4  A    between atoms: C_2  and  C_5
REMARK    5  A    between atoms: N_11  and  C_12
REMARK    6  A    between atoms: C_15  and  N_16
REMARK    7  A    between atoms: C_17  and  C_19
REMARK                            x       y       z     vdW  Elec       q    Type
REMARK                         _______ _______ _______ _____ _____    ______ ____
ROOT
ATOM      1  C   UNL     1      -0.001  10.100  20.598  0.00  0.00    +0.000 A 
ATOM      2  C   UNL     1       0.072  10.369  19.234  0.00  0.00    +0.000 A 
ATOM      3  C   UNL     1       0.936   9.627  18.427  0.00  0.00    +0.000 A 
ATOM      4  C   UNL     1       1.714   8.592  18.964  0.00  0.00    +0.000 A 
ATOM      5  C   UNL     1       1.588   8.296  20.324  0.00  0.00    +0.000 A 
ATOM      6  C   UNL     1       0.769   9.080  21.146  0.00  0.00    +0.000 A 
ENDROOT
BRANCH   1  13
ATOM      7  C   UNL     1      -4.795  13.163  22.825  0.00  0.00    +0.000 A 
ATOM      8  C   UNL     1      -3.925  12.596  23.728  0.00  0.00    +0.000 A 
ATOM      9  C   UNL     1      -2.843  12.139  22.951  0.00  0.00    +0.000 A 
ATOM     10  N   UNL     1      -1.750  11.492  23.480  0.00  0.00    +0.000 N 
ATOM     11  C   UNL     1      -0.768  10.818  22.816  0.00  0.00    +0.000 C 
ATOM     12  O   UNL     1       0.071  10.214  23.483  0.00  0.00    +0.000 OA
ATOM     13  N   UNL     1      -0.799  10.871  21.451  0.00  0.00    +0.000 N 
ATOM     14  N   UNL     1      -3.036  12.419  21.657  0.00  0.00    +0.000 NA
ATOM     15  O   UNL     1      -4.259  13.058  21.579  0.00  0.00    +0.000 OA
ATOM     16  H   UNL     1      -1.694  11.399  24.483  0.00  0.00    +0.000 HD
ATOM     17  H   UNL     1      -1.277  11.675  21.059  0.00  0.00    +0.000 HD
BRANCH   7  19
ATOM     18  C   UNL     1      -6.769  13.970  21.590  0.00  0.00    +0.000 C 
ATOM     19  C   UNL     1      -6.121  13.849  22.982  0.00  0.00    +0.000 C 
ATOM     20  C   UNL     1      -5.901  15.253  23.574  0.00  0.00    +0.000 C 
ATOM     21  C   UNL     1      -7.078  13.074  23.905  0.00  0.00    +0.000 C 
ENDBRANCH   7  19
ENDBRANCH   1  13
BRANCH   4  22
ATOM     22  N   UNL     1       2.628   7.834  18.190  0.00  0.00    +0.000 N 
ATOM     23  C   UNL     1       2.794   6.465  18.310  0.00  0.00    +0.000 C 
ATOM     24  O   UNL     1       2.149   5.724  19.054  0.00  0.00    +0.000 OA
ATOM     25  H   UNL     1       3.023   8.296  17.387  0.00  0.00    +0.000 HD
BRANCH  23  26
ATOM     26  C   UNL     1       3.798   5.812  17.439  0.00  0.00    +0.000 A 
ATOM     27  C   UNL     1       4.785   6.517  16.745  0.00  0.00    +0.000 A 
ATOM     28  C   UNL     1       5.722   5.773  16.041  0.00  0.00    +0.000 A 
ATOM     29  N   UNL     1       5.731   4.424  15.979  0.00  0.00    +0.000 NA
ATOM     30  C   UNL     1       4.764   3.773  16.654  0.00  0.00    +0.000 A 
ATOM     31  C   UNL     1       3.786   4.416  17.387  0.00  0.00    +0.000 A 
ENDBRANCH  23  26
ENDBRANCH   4  22
TORSDOF 4
ENDMDL
MODEL 6
REMARK VINA RESULT:      -7.3      4.235      5.332
REMARK  Name = 
REMARK  7 active torsions:
REMARK  status: ('A' for Active; 'I' for Inactive)
REMARK    1  A    between atoms: C_1  and  C_2
REMARK    2  A    between atoms: C_2  and  C_3
REMARK    3  A    between atoms: C_2  and  C_4
REMARK    4  A    between atoms: C_2  and  C_5
REMARK    5  A    between atoms: N_11  and  C_12
REMARK    6  A    between atoms: C_15  and  N_16
REMARK    7  A    between atoms: C_17  and  C_19
REMARK                            x       y       z     vdW  Elec       q    Type
REMARK                         _______ _______ _______ _____ _____    ______ ____
ROOT
ATOM      1  C   UNL     1       1.044  10.069  19.125  0.00  0.00    +0.000 A 
ATOM      2  C   UNL     1       1.670   9.573  17.984  0.00  0.00    +0.000 A 
ATOM      3  C   UNL     1       2.245   8.301  18.009  0.00  0.00    +0.000 A 
ATOM      4  C   UNL     1       2.179   7.501  19.157  0.00  0.00    +0.000 A 
ATOM      5  C   UNL     1       1.499   7.990  20.276  0.00  0.00    +0.000 A 
ATOM      6  C   UNL     1       0.976   9.290  20.274  0.00  0.00    +0.000 A 
ENDROOT
BRANCH   1  13
ATOM      7  C   UNL     1       0.695  16.165  18.926  0.00  0.00    +0.000 A 
ATOM      8  C   UNL     1      -0.417  15.451  18.547  0.00  0.00    +0.000 A 
ATOM      9  C   UNL     1      -0.118  14.114  18.874  0.00  0.00    +0.000 A 
ATOM     10  N   UNL     1      -0.978  13.066  18.641  0.00  0.00    +0.000 N 
ATOM     11  C   UNL     1      -0.715  11.729  18.707  0.00  0.00    +0.000 C 
ATOM     12  O   UNL     1      -1.598  10.948  18.356  0.00  0.00    +0.000 OA
ATOM     13  N   UNL     1       0.522  11.367  19.162  0.00  0.00    +0.000 N 
ATOM     14  N   UNL     1       1.096  14.021  19.429  0.00  0.00    +0.000 NA
ATOM     15  O   UNL     1       1.605  15.306  19.459  0.00  0.00    +0.000 OA
ATOM     16  H   UNL     1      -1.894  13.277  18.275  0.00  0.00    +0.000 HD
ATOM     17  H   UNL     1       0.983  12.050  19.754  0.00  0.00    +0.000 HD
BRANCH   7  19
ATOM     18  C   UNL     1       1.431  17.984  17.434  0.00  0.00    +0.000 C 
ATOM     19  C   UNL     1       1.031  17.628  18.878  0.00  0.00    +0.000 C 
ATOM     20  C   UNL     1       2.210  17.911  19.827  0.00  0.00    +0.000 C 
ATOM     21  C   UNL     1      -0.155  18.516  19.293  0.00  0.00    +0.000 C 
ENDBRANCH   7  19
ENDBRANCH   1  13
BRANCH   4  22
ATOM     22  N   UNL     1       2.777   6.218  19.237  0.00  0.00    +0.000 N 
ATOM     23  C   UNL     1       2.340   5.116  18.522  0.00  0.00    +0.000 C 
ATOM     24  O   UNL     1       1.426   5.110  17.696  0.00  0.00    +0.000 OA
ATOM     25  H   UNL     1       3.675   6.171  19.689  0.00  0.00    +0.000 HD
BRANCH  23  26
ATOM     26  C   UNL     1       3.059   3.836  18.720  0.00  0.00    +0.000 A 
ATOM     27  C   UNL     1       3.842   3.562  19.843  0.00  0.00    +0.000 A 
ATOM     28  C   UNL     1       4.381   2.288  19.948  0.00  0.00    +0.000 A 
ATOM     29  N   UNL     1       4.204   1.310  19.034  0.00  0.00    +0.000 NA
ATOM     30  C   UNL     1       3.448   1.605  17.960  0.00  0.00    +0.000 A 
ATOM     31  C   UNL     1       2.863   2.840  17.759  0.00  0.00    +0.000 A 
ENDBRANCH  23  26
ENDBRANCH   4  22
TORSDOF 4
ENDMDL
MODEL 7
REMARK VINA RESULT:      -7.3      2.016     10.861
REMARK  Name = 
REMARK  7 active torsions:
REMARK  status: ('A' for Active; 'I' for Inactive)
REMARK    1  A    between atoms: C_1  and  C_2
REMARK    2  A    between atoms: C_2  and  C_3
REMARK    3  A    between atoms: C_2  and  C_4
REMARK    4  A    between atoms: C_2  and  C_5
REMARK    5  A    between atoms: N_11  and  C_12
REMARK    6  A    between atoms: C_15  and  N_16
REMARK    7  A    between atoms: C_17  and  C_19
REMARK                            x       y       z     vdW  Elec       q    Type
REMARK                         _______ _______ _______ _____ _____    ______ ____
ROOT
ATOM      1  C   UNL     1       0.452  10.098  19.774  0.00  0.00    +0.000 A 
ATOM      2  C   UNL     1      -0.740  10.292  19.080  0.00  0.00    +0.000 A 
ATOM      3  C   UNL     1      -1.563  11.372  19.407  0.00  0.00    +0.000 A 
ATOM      4  C   UNL     1      -1.195  12.282  20.407  0.00  0.00    +0.000 A 
ATOM      5  C   UNL     1       0.030  12.107  21.055  0.00  0.00    +0.000 A 
ATOM      6  C   UNL     1       0.827  10.990  20.773  0.00  0.00    +0.000 A 
ENDROOT
BRANCH   1  13
ATOM      7  C   UNL     1       2.583   4.373  19.809  0.00  0.00    +0.000 A 
ATOM      8  C   UNL     1       2.870   5.153  18.714  0.00  0.00    +0.000 A 
ATOM      9  C   UNL     1       2.432   6.445  19.064  0.00  0.00    +0.000 A 
ATOM     10  N   UNL     1       2.529   7.531  18.225  0.00  0.00    +0.000 N 
ATOM     11  C   UNL     1       1.947   8.757  18.364  0.00  0.00    +0.000 C 
ATOM     12  O   UNL     1       2.073   9.564  17.443  0.00  0.00    +0.000 OA
ATOM     13  N   UNL     1       1.266   8.987  19.526  0.00  0.00    +0.000 N 
ATOM     14  N   UNL     1       1.920   6.454  20.299  0.00  0.00    +0.000 NA
ATOM     15  O   UNL     1       2.013   5.156  20.765  0.00  0.00    +0.000 OA
ATOM     16  H   UNL     1       2.997   7.406  17.340  0.00  0.00    +0.000 HD
ATOM     17  H   UNL     1       1.555   8.421  20.317  0.00  0.00    +0.000 HD
BRANCH   7  19
ATOM     18  C   UNL     1       1.902   2.090  19.176  0.00  0.00    +0.000 C 
ATOM     19  C   UNL     1       2.804   2.918  20.110  0.00  0.00    +0.000 C 
ATOM     20  C   UNL     1       2.428   2.639  21.576  0.00  0.00    +0.000 C 
ATOM     21  C   UNL     1       4.265   2.490  19.891  0.00  0.00    +0.000 C 
ENDBRANCH   7  19
ENDBRANCH   1  13
BRANCH   4  22
ATOM     22  N   UNL     1      -2.014  13.373  20.794  0.00  0.00    +0.000 N 
ATOM     23  C   UNL     1      -2.968  13.307  21.795  0.00  0.00    +0.000 C 
ATOM     24  O   UNL     1      -3.196  12.328  22.509  0.00  0.00    +0.000 OA
ATOM     25  H   UNL     1      -1.743  14.279  20.449  0.00  0.00    +0.000 HD
BRANCH  23  26
ATOM     26  C   UNL     1      -3.757  14.528  22.079  0.00  0.00    +0.000 A 
ATOM     27  C   UNL     1      -3.610  15.719  21.363  0.00  0.00    +0.000 A 
ATOM     28  C   UNL     1      -4.481  16.755  21.668  0.00  0.00    +0.000 A 
ATOM     29  N   UNL     1      -5.443  16.687  22.613  0.00  0.00    +0.000 NA
ATOM     30  C   UNL     1      -5.556  15.529  23.289  0.00  0.00    +0.000 A 
ATOM     31  C   UNL     1      -4.745  14.435  23.063  0.00  0.00    +0.000 A 
ENDBRANCH  23  26
ENDBRANCH   4  22
TORSDOF 4
ENDMDL
MODEL 8
REMARK VINA RESULT:      -7.3      0.462      1.192
REMARK  Name = 
REMARK  7 active torsions:
REMARK  status: ('A' for Active; 'I' for Inactive)
REMARK    1  A    between atoms: C_1  and  C_2
REMARK    2  A    between atoms: C_2  and  C_3
REMARK    3  A    between atoms: C_2  and  C_4
REMARK    4  A    between atoms: C_2  and  C_5
REMARK    5  A    between atoms: N_11  and  C_12
REMARK    6  A    between atoms: C_15  and  N_16
REMARK    7  A    between atoms: C_17  and  C_19
REMARK                            x       y       z     vdW  Elec       q    Type
REMARK                         _______ _______ _______ _____ _____    ______ ____
ROOT
ATOM      1  C   UNL     1      -0.418  10.406  20.896  0.00  0.00    +0.000 A 
ATOM      2  C   UNL     1       0.148  10.302  19.627  0.00  0.00    +0.000 A 
ATOM      3  C   UNL     1       1.065   9.284  19.361  0.00  0.00    +0.000 A 
ATOM      4  C   UNL     1       1.407   8.345  20.344  0.00  0.00    +0.000 A 
ATOM      5  C   UNL     1       0.789   8.429  21.594  0.00  0.00    +0.000 A 
ATOM      6  C   UNL     1      -0.084   9.486  21.883  0.00  0.00    +0.000 A 
ENDROOT
BRANCH   1  13
ATOM      7  C   UNL     1      -5.454  13.437  22.561  0.00  0.00    +0.000 A 
ATOM      8  C   UNL     1      -4.239  13.995  22.883  0.00  0.00    +0.000 A 
ATOM      9  C   UNL     1      -3.287  13.198  22.218  0.00  0.00    +0.000 A 
ATOM     10  N   UNL     1      -1.931  13.417  22.292  0.00  0.00    +0.000 N 
ATOM     11  C   UNL     1      -0.921  12.595  21.885  0.00  0.00    +0.000 C 
ATOM     12  O   UNL     1       0.235  12.931  22.138  0.00  0.00    +0.000 OA
ATOM     13  N   UNL     1      -1.284  11.456  21.223  0.00  0.00    +0.000 N 
ATOM     14  N   UNL     1      -3.884  12.221  21.526  0.00  0.00    +0.000 NA
ATOM     15  O   UNL     1      -5.241  12.371  21.743  0.00  0.00    +0.000 OA
ATOM     16  H   UNL     1      -1.609  14.229  22.797  0.00  0.00    +0.000 HD
ATOM     17  H   UNL     1      -2.186  11.492  20.760  0.00  0.00    +0.000 HD
BRANCH   7  19
ATOM     18  C   UNL     1      -7.164  13.266  24.328  0.00  0.00    +0.000 C 
ATOM     19  C   UNL     1      -6.868  13.801  22.914  0.00  0.00    +0.000 C 
ATOM     20  C   UNL     1      -7.829  13.150  21.903  0.00  0.00    +0.000 C 
ATOM     21  C   UNL     1      -7.102  15.321  22.903  0.00  0.00    +0.000 C 
ENDBRANCH   7  19
ENDBRANCH   1  13
BRANCH   4  22
ATOM     22  N   UNL     1       2.357   7.315  20.127  0.00  0.00    +0.000 N 
ATOM     23  C   UNL     1       2.071   5.965  20.234  0.00  0.00    +0.000 C 
ATOM     24  O   UNL     1       0.964   5.480  20.476  0.00  0.00    +0.000 OA
ATOM     25  H   UNL     1       3.220   7.589  19.687  0.00  0.00    +0.000 HD
BRANCH  23  26
ATOM     26  C   UNL     1       3.173   5.005  19.990  0.00  0.00    +0.000 A 
ATOM     27  C   UNL     1       3.060   3.632  20.225  0.00  0.00    +0.000 A 
ATOM     28  C   UNL     1       4.136   2.835  19.861  0.00  0.00    +0.000 A 
ATOM     29  N   UNL     1       5.277   3.301  19.310  0.00  0.00    +0.000 NA
ATOM     30  C   UNL     1       5.358   4.628  19.101  0.00  0.00    +0.000 A 
ATOM     31  C   UNL     1       4.345   5.511  19.423  0.00  0.00    +0.000 A 
ENDBRANCH  23  26
ENDBRANCH   4  22
TORSDOF 4
ENDMDL
MODEL 9
REMARK VINA RESULT:      -7.3      2.193      2.590
REMARK  Name = 
REMARK  7 active torsions:
REMARK  status: ('A' for Active; 'I' for Inactive)
REMARK    1  A    between atoms: C_1  and  C_2
REMARK    2  A    between atoms: C_2  and  C_3
REMARK    3  A    between atoms: C_2  and  C_4
REMARK    4  A    between atoms: C_2  and  C_5
REMARK    5  A    between atoms: N_11  and  C_12
REMARK    6  A    between atoms: C_15  and  N_16
REMARK    7  A    between atoms: C_17  and  C_19
REMARK                            x       y       z     vdW  Elec       q    Type
REMARK                         _______ _______ _______ _____ _____    ______ ____
ROOT
ATOM      1  C   UNL     1       0.510   9.774  20.604  0.00  0.00    +0.000 A 
ATOM      2  C   UNL     1       1.044   8.578  21.078  0.00  0.00    +0.000 A 
ATOM      3  C   UNL     1       1.805   7.776  20.227  0.00  0.00    +0.000 A 
ATOM      4  C   UNL     1       2.065   8.167  18.906  0.00  0.00    +0.000 A 
ATOM      5  C   UNL     1       1.570   9.396  18.462  0.00  0.00    +0.000 A 
ATOM      6  C   UNL     1       0.754  10.173  19.295  0.00  0.00    +0.000 A 
ENDROOT
BRANCH   1  13
ATOM      7  C   UNL     1      -4.292  13.051  22.482  0.00  0.00    +0.000 A 
ATOM      8  C   UNL     1      -3.540  12.415  23.442  0.00  0.00    +0.000 A 
ATOM      9  C   UNL     1      -2.419  11.916  22.752  0.00  0.00    +0.000 A 
ATOM     10  N   UNL     1      -1.415  11.195  23.357  0.00  0.00    +0.000 N 
ATOM     11  C   UNL     1      -0.415  10.482  22.765  0.00  0.00    +0.000 C 
ATOM     12  O   UNL     1       0.326   9.816  23.487  0.00  0.00    +0.000 OA
ATOM     13  N   UNL     1      -0.319  10.569  21.404  0.00  0.00    +0.000 N 
ATOM     14  N   UNL     1      -2.477  12.236  21.454  0.00  0.00    +0.000 NA
ATOM     15  O   UNL     1      -3.652  12.946  21.286  0.00  0.00    +0.000 OA
ATOM     16  H   UNL     1      -1.456  11.075  24.358  0.00  0.00    +0.000 HD
ATOM     17  H   UNL     1      -0.715  11.408  20.994  0.00  0.00    +0.000 HD
BRANCH   7  19
ATOM     18  C   UNL     1      -5.344  15.123  23.303  0.00  0.00    +0.000 C 
ATOM     19  C   UNL     1      -5.588  13.809  22.539  0.00  0.00    +0.000 C 
ATOM     20  C   UNL     1      -6.638  12.964  23.282  0.00  0.00    +0.000 C 
ATOM     21  C   UNL     1      -6.132  14.146  21.140  0.00  0.00    +0.000 C 
ENDBRANCH   7  19
ENDBRANCH   1  13
BRANCH   4  22
ATOM     22  N   UNL     1       2.804   7.369  17.998  0.00  0.00    +0.000 N 
ATOM     23  C   UNL     1       3.625   6.321  18.380  0.00  0.00    +0.000 C 
ATOM     24  O   UNL     1       3.782   5.913  19.532  0.00  0.00    +0.000 OA
ATOM     25  H   UNL     1       2.559   7.455  17.025  0.00  0.00    +0.000 HD
BRANCH  23  26
ATOM     26  C   UNL     1       4.345   5.585  17.316  0.00  0.00    +0.000 A 
ATOM     27  C   UNL     1       4.387   4.191  17.241  0.00  0.00    +0.000 A 
ATOM     28  C   UNL     1       5.015   3.631  16.138  0.00  0.00    +0.000 A 
ATOM     29  N   UNL     1       5.592   4.345  15.147  0.00  0.00    +0.000 NA
ATOM     30  C   UNL     1       5.540   5.686  15.250  0.00  0.00    +0.000 A 
ATOM     31  C   UNL     1       4.938   6.345  16.303  0.00  0.00    +0.000 A 
ENDBRANCH  23  26
ENDBRANCH   4  22
TORSDOF 4
ENDMDL
