MODEL 1
REMARK VINA RESULT:      -5.6      0.000      0.000
REMARK  Name = 
REMARK  5 active torsions:
REMARK  status: ('A' for Active; 'I' for Inactive)
REMARK    1  A    between atoms: C_1  and  C_2
REMARK    2  A    between atoms: C_2  and  O_4
REMARK    3  A    between atoms: O_4  and  C_5
REMARK    4  A    between atoms: C_10  and  C_11
REMARK    5  A    between atoms: C_10  and  C_12
REMARK                            x       y       z     vdW  Elec       q    Type
REMARK                         _______ _______ _______ _____ _____    ______ ____
ROOT
ATOM      1  C   UNL     1       3.313   3.611  19.294  0.00  0.00    +0.000 C 
ATOM      2  C   UNL     1       4.647   3.041  19.734  0.00  0.00    +0.000 C 
ATOM      3  O   UNL     1       4.817   2.002  20.354  0.00  0.00    +0.000 OA
ATOM      4  O   UNL     1       5.663   3.857  19.329  0.00  0.00    +0.000 OA
ATOM      5  C   UNL     1       5.124   4.993  18.655  0.00  0.00    +0.000 C 
ATOM      6  C   UNL     1       3.722   4.601  18.200  0.00  0.00    +0.000 C 
ATOM      7  C   UNL     1       2.814   5.833  18.158  0.00  0.00    +0.000 C 
ATOM      8  C   UNL     1       3.755   3.952  16.805  0.00  0.00    +0.000 C 
ENDROOT
BRANCH   1   9
ATOM      9  O   UNL     1       2.496   2.554  18.784  0.00  0.00    +0.000 OA
BRANCH   9  11
ATOM     10  C   UNL     1       1.002   3.293  20.426  0.00  0.00    +0.000 C 
ATOM     11  C   UNL     1       1.184   2.574  19.124  0.00  0.00    +0.000 C 
ATOM     12  O   UNL     1       0.267   2.117  18.457  0.00  0.00    +0.000 OA
ENDBRANCH   9  11
ENDBRANCH   1   9
TORSDOF 2
ENDMDL
MODEL 2
REMARK VINA RESULT:      -5.5      2.410      3.711
REMARK  Name = 
REMARK  5 active torsions:
REMARK  status: ('A' for Active; 'I' for Inactive)
REMARK    1  A    between atoms: C_1  and  C_2
REMARK    2  A    between atoms: C_2  and  O_4
REMARK    3  A    between atoms: O_4  and  C_5
REMARK    4  A    between atoms: C_10  and  C_11
REMARK    5  A    between atoms: C_10  and  C_12
REMARK                            x       y       z     vdW  Elec       q    Type
REMARK                         _______ _______ _______ _____ _____    ______ ____
ROOT
ATOM      1  C   UNL     1       6.092   5.472  18.564  0.00  0.00    +0.000 C 
ATOM      2  C   UNL     1       7.370   5.779  19.321  0.00  0.00    +0.000 C 
ATOM      3  O   UNL     1       7.721   5.274  20.376  0.00  0.00    +0.000 OA
ATOM      4  O   UNL     1       8.102   6.713  18.647  0.00  0.00    +0.000 OA
ATOM      5  C   UNL     1       7.401   7.112  17.471  0.00  0.00    +0.000 C 
ATOM      6  C   UNL     1       6.405   5.999  17.162  0.00  0.00    +0.000 C 
ATOM      7  C   UNL     1       5.169   6.572  16.463  0.00  0.00    +0.000 C 
ATOM      8  C   UNL     1       7.041   4.924  16.260  0.00  0.00    +0.000 C 
ENDROOT
BRANCH   1   9
ATOM      9  O   UNL     1       5.870   4.059  18.571  0.00  0.00    +0.000 OA
BRANCH   9  11
ATOM     10  C   UNL     1       3.974   3.179  17.521  0.00  0.00    +0.000 C 
ATOM     11  C   UNL     1       4.602   3.639  18.801  0.00  0.00    +0.000 C 
ATOM     12  O   UNL     1       4.053   3.594  19.892  0.00  0.00    +0.000 OA
ENDBRANCH   9  11
ENDBRANCH   1   9
TORSDOF 2
ENDMDL
MODEL 3
REMARK VINA RESULT:      -5.5      2.871      4.870
REMARK  Name = 
REMARK  5 active torsions:
REMARK  status: ('A' for Active; 'I' for Inactive)
REMARK    1  A    between atoms: C_1  and  C_2
REMARK    2  A    between atoms: C_2  and  O_4
REMARK    3  A    between atoms: O_4  and  C_5
REMARK    4  A    between atoms: C_10  and  C_11
REMARK    5  A    between atoms: C_10  and  C_12
REMARK                            x       y       z     vdW  Elec       q    Type
REMARK                         _______ _______ _______ _____ _____    ______ ____
ROOT
ATOM      1  C   UNL     1       5.696   4.386  16.969  0.00  0.00    +0.000 C 
ATOM      2  C   UNL     1       6.687   4.602  18.097  0.00  0.00    +0.000 C 
ATOM      3  O   UNL     1       7.873   4.863  17.973  0.00  0.00    +0.000 OA
ATOM      4  O   UNL     1       6.061   4.470  19.303  0.00  0.00    +0.000 OA
ATOM      5  C   UNL     1       4.689   4.140  19.096  0.00  0.00    +0.000 C 
ATOM      6  C   UNL     1       4.349   4.572  17.673  0.00  0.00    +0.000 C 
ATOM      7  C   UNL     1       3.257   3.671  17.092  0.00  0.00    +0.000 C 
ATOM      8  C   UNL     1       3.867   6.034  17.640  0.00  0.00    +0.000 C 
ENDROOT
BRANCH   1   9
ATOM      9  O   UNL     1       5.914   5.374  15.958  0.00  0.00    +0.000 OA
BRANCH   9  11
ATOM     10  C   UNL     1       5.828   4.004  14.062  0.00  0.00    +0.000 C 
ATOM     11  C   UNL     1       6.621   4.988  14.867  0.00  0.00    +0.000 C 
ATOM     12  O   UNL     1       7.725   5.404  14.549  0.00  0.00    +0.000 OA
ENDBRANCH   9  11
ENDBRANCH   1   9
TORSDOF 2
ENDMDL
MODEL 4
REMARK VINA RESULT:      -5.5      1.683      3.327
REMARK  Name = 
REMARK  5 active torsions:
REMARK  status: ('A' for Active; 'I' for Inactive)
REMARK    1  A    between atoms: C_1  and  C_2
REMARK    2  A    between atoms: C_2  and  O_4
REMARK    3  A    between atoms: O_4  and  C_5
REMARK    4  A    between atoms: C_10  and  C_11
REMARK    5  A    between atoms: C_10  and  C_12
REMARK                            x       y       z     vdW  Elec       q    Type
REMARK                         _______ _______ _______ _____ _____    ______ ____
ROOT
ATOM      1  C   UNL     1       2.868   2.826  19.581  0.00  0.00    +0.000 C 
ATOM      2  C   UNL     1       3.829   2.333  20.645  0.00  0.00    +0.000 C 
ATOM      3  O   UNL     1       4.993   2.008  20.469  0.00  0.00    +0.000 OA
ATOM      4  O   UNL     1       3.210   2.307  21.861  0.00  0.00    +0.000 OA
ATOM      5  C   UNL     1       1.853   2.721  21.715  0.00  0.00    +0.000 C 
ATOM      6  C   UNL     1       1.779   3.509  20.411  0.00  0.00    +0.000 C 
ATOM      7  C   UNL     1       0.390   3.365  19.783  0.00  0.00    +0.000 C 
ATOM      8  C   UNL     1       2.072   5.001  20.650  0.00  0.00    +0.000 C 
ENDROOT
BRANCH   1   9
ATOM      9  O   UNL     1       3.549   3.748  18.725  0.00  0.00    +0.000 OA
BRANCH   9  11
ATOM     10  C   UNL     1       4.550   4.048  16.631  0.00  0.00    +0.000 C 
ATOM     11  C   UNL     1       3.333   3.621  17.392  0.00  0.00    +0.000 C 
ATOM     12  O   UNL     1       2.316   3.182  16.874  0.00  0.00    +0.000 OA
ENDBRANCH   9  11
ENDBRANCH   1   9
TORSDOF 2
ENDMDL
MODEL 5
REMARK VINA RESULT:      -5.5      1.215      1.323
REMARK  Name = 
REMARK  5 active torsions:
REMARK  status: ('A' for Active; 'I' for Inactive)
REMARK    1  A    between atoms: C_1  and  C_2
REMARK    2  A    between atoms: C_2  and  O_4
REMARK    3  A    between atoms: O_4  and  C_5
REMARK    4  A    between atoms: C_10  and  C_11
REMARK    5  A    between atoms: C_10  and  C_12
REMARK                            x       y       z     vdW  Elec       q    Type
REMARK                         _______ _______ _______ _____ _____    ______ ____
ROOT
ATOM      1  C   UNL     1       3.772   4.258  18.691  0.00  0.00    +0.000 C 
ATOM      2  C   UNL     1       4.883   3.518  19.411  0.00  0.00    +0.000 C 
ATOM      3  O   UNL     1       4.781   2.442  19.979  0.00  0.00    +0.000 OA
ATOM      4  O   UNL     1       6.047   4.226  19.332  0.00  0.00    +0.000 OA
ATOM      5  C   UNL     1       5.818   5.445  18.626  0.00  0.00    +0.000 C 
ATOM      6  C   UNL     1       4.548   5.238  17.808  0.00  0.00    +0.000 C 
ATOM      7  C   UNL     1       3.812   6.569  17.626  0.00  0.00    +0.000 C 
ATOM      8  C   UNL     1       4.872   4.649  16.423  0.00  0.00    +0.000 C 
ENDROOT
BRANCH   1   9
ATOM      9  O   UNL     1       3.011   3.325  17.920  0.00  0.00    +0.000 OA
BRANCH   9  11
ATOM     10  C   UNL     1       1.062   2.546  18.953  0.00  0.00    +0.000 C 
ATOM     11  C   UNL     1       1.663   3.470  17.939  0.00  0.00    +0.000 C 
ATOM     12  O   UNL     1       1.022   4.265  17.267  0.00  0.00    +0.000 OA
ENDBRANCH   9  11
ENDBRANCH   1   9
TORSDOF 2
ENDMDL
MODEL 6
REMARK VINA RESULT:      -5.4      1.890      2.641
REMARK  Name = 
REMARK  5 active torsions:
REMARK  status: ('A' for Active; 'I' for Inactive)
REMARK    1  A    between atoms: C_1  and  C_2
REMARK    2  A    between atoms: C_2  and  O_4
REMARK    3  A    between atoms: O_4  and  C_5
REMARK    4  A    between atoms: C_10  and  C_11
REMARK    5  A    between atoms: C_10  and  C_12
REMARK                            x       y       z     vdW  Elec       q    Type
REMARK                         _______ _______ _______ _____ _____    ______ ____
ROOT
ATOM      1  C   UNL     1       4.304   4.431  19.166  0.00  0.00    +0.000 C 
ATOM      2  C   UNL     1       5.595   5.224  19.104  0.00  0.00    +0.000 C 
ATOM      3  O   UNL     1       6.590   5.033  19.785  0.00  0.00    +0.000 OA
ATOM      4  O   UNL     1       5.500   6.202  18.157  0.00  0.00    +0.000 OA
ATOM      5  C   UNL     1       4.202   6.169  17.564  0.00  0.00    +0.000 C 
ATOM      6  C   UNL     1       3.640   4.777  17.831  0.00  0.00    +0.000 C 
ATOM      7  C   UNL     1       2.113   4.832  17.935  0.00  0.00    +0.000 C 
ATOM      8  C   UNL     1       4.033   3.799  16.709  0.00  0.00    +0.000 C 
ENDROOT
BRANCH   1   9
ATOM      9  O   UNL     1       4.614   3.038  19.267  0.00  0.00    +0.000 OA
BRANCH   9  11
ATOM     10  C   UNL     1       2.912   2.710  20.839  0.00  0.00    +0.000 C 
ATOM     11  C   UNL     1       4.331   2.431  20.446  0.00  0.00    +0.000 C 
ATOM     12  O   UNL     1       5.094   1.721  21.084  0.00  0.00    +0.000 OA
ENDBRANCH   9  11
ENDBRANCH   1   9
TORSDOF 2
ENDMDL
MODEL 7
REMARK VINA RESULT:      -5.4      1.458      3.830
REMARK  Name = 
REMARK  5 active torsions:
REMARK  status: ('A' for Active; 'I' for Inactive)
REMARK    1  A    between atoms: C_1  and  C_2
REMARK    2  A    between atoms: C_2  and  O_4
REMARK    3  A    between atoms: O_4  and  C_5
REMARK    4  A    between atoms: C_10  and  C_11
REMARK    5  A    between atoms: C_10  and  C_12
REMARK                            x       y       z     vdW  Elec       q    Type
REMARK                         _______ _______ _______ _____ _____    ______ ____
ROOT
ATOM      1  C   UNL     1       3.736   3.847  18.987  0.00  0.00    +0.000 C 
ATOM      2  C   UNL     1       3.899   2.537  19.733  0.00  0.00    +0.000 C 
ATOM      3  O   UNL     1       4.927   2.126  20.249  0.00  0.00    +0.000 OA
ATOM      4  O   UNL     1       2.714   1.862  19.761  0.00  0.00    +0.000 OA
ATOM      5  C   UNL     1       1.724   2.603  19.048  0.00  0.00    +0.000 C 
ATOM      6  C   UNL     1       2.218   4.045  18.996  0.00  0.00    +0.000 C 
ATOM      7  C   UNL     1       1.710   4.733  17.726  0.00  0.00    +0.000 C 
ATOM      8  C   UNL     1       1.737   4.837  20.225  0.00  0.00    +0.000 C 
ENDROOT
BRANCH   1   9
ATOM      9  O   UNL     1       4.417   4.882  19.701  0.00  0.00    +0.000 OA
BRANCH   9  11
ATOM     10  C   UNL     1       5.362   5.936  17.838  0.00  0.00    +0.000 C 
ATOM     11  C   UNL     1       5.592   5.314  19.181  0.00  0.00    +0.000 C 
ATOM     12  O   UNL     1       6.681   5.253  19.733  0.00  0.00    +0.000 OA
ENDBRANCH   9  11
ENDBRANCH   1   9
TORSDOF 2
ENDMDL
MODEL 8
REMARK VINA RESULT:      -5.4      1.357      4.017
REMARK  Name = 
REMARK  5 active torsions:
REMARK  status: ('A' for Active; 'I' for Inactive)
REMARK    1  A    between atoms: C_1  and  C_2
REMARK    2  A    between atoms: C_2  and  O_4
REMARK    3  A    between atoms: O_4  and  C_5
REMARK    4  A    between atoms: C_10  and  C_11
REMARK    5  A    between atoms: C_10  and  C_12
REMARK                            x       y       z     vdW  Elec       q    Type
REMARK                         _______ _______ _______ _____ _____    ______ ____
ROOT
ATOM      1  C   UNL     1       2.919   3.680  19.151  0.00  0.00    +0.000 C 
ATOM      2  C   UNL     1       2.568   2.379  18.457  0.00  0.00    +0.000 C 
ATOM      3  O   UNL     1       3.290   1.749  17.700  0.00  0.00    +0.000 OA
ATOM      4  O   UNL     1       1.308   1.986  18.805  0.00  0.00    +0.000 OA
ATOM      5  C   UNL     1       0.731   2.953  19.682  0.00  0.00    +0.000 C 
ATOM      6  C   UNL     1       1.891   3.738  20.284  0.00  0.00    +0.000 C 
ATOM      7  C   UNL     1       1.454   5.170  20.604  0.00  0.00    +0.000 C 
ATOM      8  C   UNL     1       2.401   3.067  21.573  0.00  0.00    +0.000 C 
ENDROOT
BRANCH   1   9
ATOM      9  O   UNL     1       4.259   3.602  19.644  0.00  0.00    +0.000 OA
BRANCH   9  11
ATOM     10  C   UNL     1       4.468   5.589  18.426  0.00  0.00    +0.000 C 
ATOM     11  C   UNL     1       5.167   4.441  19.087  0.00  0.00    +0.000 C 
ATOM     12  O   UNL     1       6.382   4.316  19.144  0.00  0.00    +0.000 OA
ENDBRANCH   9  11
ENDBRANCH   1   9
TORSDOF 2
ENDMDL
MODEL 9
REMARK VINA RESULT:      -5.4      1.838      2.346
REMARK  Name = 
REMARK  5 active torsions:
REMARK  status: ('A' for Active; 'I' for Inactive)
REMARK    1  A    between atoms: C_1  and  C_2
REMARK    2  A    between atoms: C_2  and  O_4
REMARK    3  A    between atoms: O_4  and  C_5
REMARK    4  A    between atoms: C_10  and  C_11
REMARK    5  A    between atoms: C_10  and  C_12
REMARK                            x       y       z     vdW  Elec       q    Type
REMARK                         _______ _______ _______ _____ _____    ______ ____
ROOT
ATOM      1  C   UNL     1       3.634   4.107  19.206  0.00  0.00    +0.000 C 
ATOM      2  C   UNL     1       5.111   4.353  18.965  0.00  0.00    +0.000 C 
ATOM      3  O   UNL     1       5.943   4.630  19.815  0.00  0.00    +0.000 OA
ATOM      4  O   UNL     1       5.399   4.212  17.638  0.00  0.00    +0.000 OA
ATOM      5  C   UNL     1       4.204   3.912  16.918  0.00  0.00    +0.000 C 
ATOM      6  C   UNL     1       3.212   3.362  17.937  0.00  0.00    +0.000 C 
ATOM      7  C   UNL     1       1.779   3.694  17.514  0.00  0.00    +0.000 C 
ATOM      8  C   UNL     1       3.354   1.835  18.079  0.00  0.00    +0.000 C 
ENDROOT
BRANCH   1   9
ATOM      9  O   UNL     1       3.478   3.302  20.379  0.00  0.00    +0.000 OA
BRANCH   9  11
ATOM     10  C   UNL     1       1.969   5.013  20.899  0.00  0.00    +0.000 C 
ATOM     11  C   UNL     1       2.475   3.642  21.226  0.00  0.00    +0.000 C 
ATOM     12  O   UNL     1       2.011   2.928  22.103  0.00  0.00    +0.000 OA
ENDBRANCH   9  11
ENDBRANCH   1   9
TORSDOF 2
ENDMDL
