MODEL 1
REMARK VINA RESULT:      -7.6      0.000      0.000
REMARK  Name = 
REMARK  14 active torsions:
REMARK  status: ('A' for Active; 'I' for Inactive)
REMARK    1  A    between atoms: C_1  and  C_2
REMARK    2  A    between atoms: C_5  and  S_6
REMARK    3  A    between atoms: S_6  and  N_9
REMARK    4  A    between atoms: N_9  and  C_10
REMARK    5  A    between atoms: C_10  and  C_11
REMARK    6  A    between atoms: C_15  and  C_16
REMARK    7  A    between atoms: N_18  and  C_19
REMARK    8  A    between atoms: C_19  and  C_20
REMARK    9  A    between atoms: C_20  and  N_21
REMARK   10  A    between atoms: N_21  and  C_22
REMARK   11  A    between atoms: N_21  and  C_29
REMARK   12  A    between atoms: C_22  and  C_23
REMARK   13  A    between atoms: C_29  and  C_30
REMARK   14  A    between atoms: C_29  and  C_31
REMARK                            x       y       z     vdW  Elec       q    Type
REMARK                         _______ _______ _______ _____ _____    ______ ____
ROOT
ATOM      1  C   UNL     1       2.033   6.229  19.939  0.00  0.00    +0.000 A 
ATOM      2  C   UNL     1       2.360   6.708  18.661  0.00  0.00    +0.000 A 
ATOM      3  C   UNL     1       2.241   8.064  18.354  0.00  0.00    +0.000 A 
ATOM      4  C   UNL     1       1.782   8.957  19.317  0.00  0.00    +0.000 A 
ATOM      5  C   UNL     1       1.418   8.500  20.591  0.00  0.00    +0.000 A 
ATOM      6  C   UNL     1       1.540   7.138  20.895  0.00  0.00    +0.000 A 
ENDROOT
BRANCH   5   7
ATOM      7  C   UNL     1       0.940   9.508  21.576  0.00  0.00    +0.000 C 
ATOM      8  O   UNL     1       1.674  10.434  21.909  0.00  0.00    +0.000 OA
ATOM      9  N   UNL     1      -0.337   9.356  22.041  0.00  0.00    +0.000 N 
ATOM     10  H   UNL     1      -0.943   8.612  21.718  0.00  0.00    +0.000 HD
BRANCH   9  11
ATOM     11  C   UNL     1      -0.899  10.295  22.995  0.00  0.00    +0.000 C 
BRANCH  11  12
ATOM     12  C   UNL     1      -1.747  11.389  22.313  0.00  0.00    +0.000 C 
BRANCH  12  13
ATOM     13  N   UNL     1      -0.966  12.388  21.534  0.00  0.00    +0.000 NA
BRANCH  13  14
ATOM     14  C   UNL     1      -0.411  13.480  22.383  0.00  0.00    +0.000 C 
ATOM     15  C   UNL     1       0.526  14.418  21.601  0.00  0.00    +0.000 C 
ATOM     16  C   UNL     1      -1.502  14.390  22.986  0.00  0.00    +0.000 C 
ENDBRANCH  13  14
BRANCH  13  17
ATOM     17  C   UNL     1      -1.755  12.892  20.379  0.00  0.00    +0.000 C 
BRANCH  17  18
ATOM     18  C   UNL     1      -2.074  11.887  19.287  0.00  0.00    +0.000 A 
ATOM     19  C   UNL     1      -3.384  11.739  18.805  0.00  0.00    +0.000 A 
ATOM     20  C   UNL     1      -3.689  10.806  17.818  0.00  0.00    +0.000 A 
ATOM     21  C   UNL     1      -2.685  10.006  17.283  0.00  0.00    +0.000 A 
ATOM     22  C   UNL     1      -1.378  10.134  17.745  0.00  0.00    +0.000 A 
ATOM     23  C   UNL     1      -1.076  11.069  18.735  0.00  0.00    +0.000 A 
ENDBRANCH  17  18
ENDBRANCH  13  17
ENDBRANCH  12  13
ENDBRANCH  11  12
ENDBRANCH   9  11
ENDBRANCH   5   7
BRANCH   1  24
ATOM     24  C   UNL     1       2.129   4.757  20.294  0.00  0.00    +0.000 C 
BRANCH  24  25
ATOM     25  N   UNL     1       1.975   3.850  19.146  0.00  0.00    +0.000 NA
ATOM     26  H   UNL     1       1.120   3.299  19.149  0.00  0.00    +0.000 HD
BRANCH  25  27
ATOM     27  S   UNL     1       3.292   2.848  18.805  0.00  0.00    +0.000 S 
ATOM     28  O   UNL     1       2.975   2.040  17.651  0.00  0.00    +0.000 OA
ATOM     29  O   UNL     1       3.709   2.267  20.063  0.00  0.00    +0.000 OA
BRANCH  27  34
ATOM     30  C   UNL     1       7.376   7.050  17.217  0.00  0.00    +0.000 C 
ATOM     31  C   UNL     1       6.394   5.980  17.597  0.00  0.00    +0.000 A 
ATOM     32  C   UNL     1       5.475   5.491  16.660  0.00  0.00    +0.000 A 
ATOM     33  C   UNL     1       4.543   4.520  17.026  0.00  0.00    +0.000 A 
ATOM     34  C   UNL     1       4.530   4.034  18.336  0.00  0.00    +0.000 A 
ATOM     35  C   UNL     1       5.439   4.514  19.284  0.00  0.00    +0.000 A 
ATOM     36  C   UNL     1       6.373   5.481  18.908  0.00  0.00    +0.000 A 
ENDBRANCH  27  34
ENDBRANCH  25  27
ENDBRANCH  24  25
ENDBRANCH   1  24
TORSDOF 11
ENDMDL
MODEL 2
REMARK VINA RESULT:      -7.5      3.332      9.444
REMARK  Name = 
REMARK  14 active torsions:
REMARK  status: ('A' for Active; 'I' for Inactive)
REMARK    1  A    between atoms: C_1  and  C_2
REMARK    2  A    between atoms: C_5  and  S_6
REMARK    3  A    between atoms: S_6  and  N_9
REMARK    4  A    between atoms: N_9  and  C_10
REMARK    5  A    between atoms: C_10  and  C_11
REMARK    6  A    between atoms: C_15  and  C_16
REMARK    7  A    between atoms: N_18  and  C_19
REMARK    8  A    between atoms: C_19  and  C_20
REMARK    9  A    between atoms: C_20  and  N_21
REMARK   10  A    between atoms: N_21  and  C_22
REMARK   11  A    between atoms: N_21  and  C_29
REMARK   12  A    between atoms: C_22  and  C_23
REMARK   13  A    between atoms: C_29  and  C_30
REMARK   14  A    between atoms: C_29  and  C_31
REMARK                            x       y       z     vdW  Elec       q    Type
REMARK                         _______ _______ _______ _____ _____    ______ ____
ROOT
ATOM      1  C   UNL     1       0.233  10.428  21.063  0.00  0.00    +0.000 A 
ATOM      2  C   UNL     1       0.296   9.408  22.025  0.00  0.00    +0.000 A 
ATOM      3  C   UNL     1       0.975   8.217  21.761  0.00  0.00    +0.000 A 
ATOM      4  C   UNL     1       1.589   8.025  20.528  0.00  0.00    +0.000 A 
ATOM      5  C   UNL     1       1.514   9.015  19.538  0.00  0.00    +0.000 A 
ATOM      6  C   UNL     1       0.832  10.209  19.807  0.00  0.00    +0.000 A 
ENDROOT
BRANCH   5   7
ATOM      7  C   UNL     1       2.197   8.749  18.243  0.00  0.00    +0.000 C 
ATOM      8  O   UNL     1       1.983   9.477  17.278  0.00  0.00    +0.000 OA
ATOM      9  N   UNL     1       3.071   7.698  18.212  0.00  0.00    +0.000 N 
ATOM     10  H   UNL     1       3.269   7.139  19.033  0.00  0.00    +0.000 HD
BRANCH   9  11
ATOM     11  C   UNL     1       3.796   7.367  16.999  0.00  0.00    +0.000 C 
BRANCH  11  12
ATOM     12  C   UNL     1       5.223   6.855  17.288  0.00  0.00    +0.000 C 
BRANCH  12  13
ATOM     13  N   UNL     1       5.294   5.453  17.781  0.00  0.00    +0.000 NA
BRANCH  13  14
ATOM     14  C   UNL     1       6.692   4.989  18.012  0.00  0.00    +0.000 C 
ATOM     15  C   UNL     1       7.350   4.436  16.737  0.00  0.00    +0.000 C 
ATOM     16  C   UNL     1       7.626   6.112  18.510  0.00  0.00    +0.000 C 
ENDBRANCH  13  14
BRANCH  13  17
ATOM     17  C   UNL     1       4.517   4.542  16.899  0.00  0.00    +0.000 C 
BRANCH  17  18
ATOM     18  C   UNL     1       3.432   3.717  17.568  0.00  0.00    +0.000 A 
ATOM     19  C   UNL     1       2.141   4.238  17.750  0.00  0.00    +0.000 A 
ATOM     20  C   UNL     1       1.146   3.495  18.379  0.00  0.00    +0.000 A 
ATOM     21  C   UNL     1       1.419   2.209  18.833  0.00  0.00    +0.000 A 
ATOM     22  C   UNL     1       2.692   1.671  18.664  0.00  0.00    +0.000 A 
ATOM     23  C   UNL     1       3.687   2.418  18.034  0.00  0.00    +0.000 A 
ENDBRANCH  17  18
ENDBRANCH  13  17
ENDBRANCH  12  13
ENDBRANCH  11  12
ENDBRANCH   9  11
ENDBRANCH   5   7
BRANCH   1  24
ATOM     24  C   UNL     1      -0.518  11.722  21.312  0.00  0.00    +0.000 C 
BRANCH  24  25
ATOM     25  N   UNL     1      -1.982  11.585  21.275  0.00  0.00    +0.000 NA
ATOM     26  H   UNL     1      -2.320  10.681  20.955  0.00  0.00    +0.000 HD
BRANCH  25  27
ATOM     27  S   UNL     1      -2.825  12.815  20.481  0.00  0.00    +0.000 S 
ATOM     28  O   UNL     1      -1.957  13.962  20.346  0.00  0.00    +0.000 OA
ATOM     29  O   UNL     1      -4.125  12.902  21.110  0.00  0.00    +0.000 OA
BRANCH  27  34
ATOM     30  C   UNL     1      -3.597  10.191  15.061  0.00  0.00    +0.000 C 
ATOM     31  C   UNL     1      -3.407  10.879  16.382  0.00  0.00    +0.000 A 
ATOM     32  C   UNL     1      -2.122  11.173  16.853  0.00  0.00    +0.000 A 
ATOM     33  C   UNL     1      -1.948  11.783  18.095  0.00  0.00    +0.000 A 
ATOM     34  C   UNL     1      -3.066  12.102  18.870  0.00  0.00    +0.000 A 
ATOM     35  C   UNL     1      -4.355  11.813  18.415  0.00  0.00    +0.000 A 
ATOM     36  C   UNL     1      -4.521  11.208  17.168  0.00  0.00    +0.000 A 
ENDBRANCH  27  34
ENDBRANCH  25  27
ENDBRANCH  24  25
ENDBRANCH   1  24
TORSDOF 11
ENDMDL
MODEL 3
REMARK VINA RESULT:      -7.5      3.063      9.245
REMARK  Name = 
REMARK  14 active torsions:
REMARK  status: ('A' for Active; 'I' for Inactive)
REMARK    1  A    between atoms: C_1  and  C_2
REMARK    2  A    between atoms: C_5  and  S_6
REMARK    3  A    between atoms: S_6  and  N_9
REMARK    4  A    between atoms: N_9  and  C_10
REMARK    5  A    between atoms: C_10  and  C_11
REMARK    6  A    between atoms: C_15  and  C_16
REMARK    7  A    between atoms: N_18  and  C_19
REMARK    8  A    between atoms: C_19  and  C_20
REMARK    9  A    between atoms: C_20  and  N_21
REMARK   10  A    between atoms: N_21  and  C_22
REMARK   11  A    between atoms: N_21  and  C_29
REMARK   12  A    between atoms: C_22  and  C_23
REMARK   13  A    between atoms: C_29  and  C_30
REMARK   14  A    between atoms: C_29  and  C_31
REMARK                            x       y       z     vdW  Elec       q    Type
REMARK                         _______ _______ _______ _____ _____    ______ ____
ROOT
ATOM      1  C   UNL     1       0.533   9.198  20.832  0.00  0.00    +0.000 A 
ATOM      2  C   UNL     1       0.604   8.034  21.614  0.00  0.00    +0.000 A 
ATOM      3  C   UNL     1       1.359   6.937  21.197  0.00  0.00    +0.000 A 
ATOM      4  C   UNL     1       2.044   6.984  19.987  0.00  0.00    +0.000 A 
ATOM      5  C   UNL     1       1.964   8.121  19.172  0.00  0.00    +0.000 A 
ATOM      6  C   UNL     1       1.205   9.220  19.595  0.00  0.00    +0.000 A 
ENDROOT
BRANCH   5   7
ATOM      7  C   UNL     1       2.725   8.109  17.893  0.00  0.00    +0.000 C 
ATOM      8  O   UNL     1       2.544   8.997  17.065  0.00  0.00    +0.000 OA
ATOM      9  N   UNL     1       3.629   7.097  17.724  0.00  0.00    +0.000 N 
ATOM     10  H   UNL     1       3.797   6.400  18.440  0.00  0.00    +0.000 HD
BRANCH   9  11
ATOM     11  C   UNL     1       4.428   7.006  16.517  0.00  0.00    +0.000 C 
BRANCH  11  12
ATOM     12  C   UNL     1       5.240   5.695  16.446  0.00  0.00    +0.000 C 
BRANCH  12  13
ATOM     13  N   UNL     1       5.247   4.898  17.703  0.00  0.00    +0.000 NA
BRANCH  13  14
ATOM     14  C   UNL     1       6.623   4.596  18.192  0.00  0.00    +0.000 C 
ATOM     15  C   UNL     1       7.653   4.526  17.052  0.00  0.00    +0.000 C 
ATOM     16  C   UNL     1       7.160   5.658  19.175  0.00  0.00    +0.000 C 
ENDBRANCH  13  14
BRANCH  13  17
ATOM     17  C   UNL     1       4.399   3.684  17.564  0.00  0.00    +0.000 C 
BRANCH  17  18
ATOM     18  C   UNL     1       3.281   3.521  18.578  0.00  0.00    +0.000 A 
ATOM     19  C   UNL     1       1.936   3.591  18.183  0.00  0.00    +0.000 A 
ATOM     20  C   UNL     1       0.905   3.462  19.109  0.00  0.00    +0.000 A 
ATOM     21  C   UNL     1       1.197   3.249  20.452  0.00  0.00    +0.000 A 
ATOM     22  C   UNL     1       2.524   3.177  20.868  0.00  0.00    +0.000 A 
ATOM     23  C   UNL     1       3.555   3.307  19.938  0.00  0.00    +0.000 A 
ENDBRANCH  17  18
ENDBRANCH  13  17
ENDBRANCH  12  13
ENDBRANCH  11  12
ENDBRANCH   9  11
ENDBRANCH   5   7
BRANCH   1  24
ATOM     24  C   UNL     1      -0.299  10.395  21.248  0.00  0.00    +0.000 C 
BRANCH  24  25
ATOM     25  N   UNL     1       0.483  11.618  21.488  0.00  0.00    +0.000 NA
ATOM     26  H   UNL     1       0.363  12.028  22.411  0.00  0.00    +0.000 HD
BRANCH  25  27
ATOM     27  S   UNL     1       0.359  12.825  20.313  0.00  0.00    +0.000 S 
ATOM     28  O   UNL     1       1.406  12.634  19.337  0.00  0.00    +0.000 OA
ATOM     29  O   UNL     1       0.181  14.076  21.018  0.00  0.00    +0.000 OA
BRANCH  27  34
ATOM     30  C   UNL     1      -4.929  11.254  17.776  0.00  0.00    +0.000 C 
ATOM     31  C   UNL     1      -3.623  11.680  18.382  0.00  0.00    +0.000 A 
ATOM     32  C   UNL     1      -2.412  11.390  17.741  0.00  0.00    +0.000 A 
ATOM     33  C   UNL     1      -1.199  11.759  18.323  0.00  0.00    +0.000 A 
ATOM     34  C   UNL     1      -1.197  12.423  19.552  0.00  0.00    +0.000 A 
ATOM     35  C   UNL     1      -2.396  12.718  20.205  0.00  0.00    +0.000 A 
ATOM     36  C   UNL     1      -3.607  12.351  19.614  0.00  0.00    +0.000 A 
ENDBRANCH  27  34
ENDBRANCH  25  27
ENDBRANCH  24  25
ENDBRANCH   1  24
TORSDOF 11
ENDMDL
MODEL 4
REMARK VINA RESULT:      -7.5      1.534      2.078
REMARK  Name = 
REMARK  14 active torsions:
REMARK  status: ('A' for Active; 'I' for Inactive)
REMARK    1  A    between atoms: C_1  and  C_2
REMARK    2  A    between atoms: C_5  and  S_6
REMARK    3  A    between atoms: S_6  and  N_9
REMARK    4  A    between atoms: N_9  and  C_10
REMARK    5  A    between atoms: C_10  and  C_11
REMARK    6  A    between atoms: C_15  and  C_16
REMARK    7  A    between atoms: N_18  and  C_19
REMARK    8  A    between atoms: C_19  and  C_20
REMARK    9  A    between atoms: C_20  and  N_21
REMARK   10  A    between atoms: N_21  and  C_22
REMARK   11  A    between atoms: N_21  and  C_29
REMARK   12  A    between atoms: C_22  and  C_23
REMARK   13  A    between atoms: C_29  and  C_30
REMARK   14  A    between atoms: C_29  and  C_31
REMARK                            x       y       z     vdW  Elec       q    Type
REMARK                         _______ _______ _______ _____ _____    ______ ____
ROOT
ATOM      1  C   UNL     1       2.051   7.941  19.351  0.00  0.00    +0.000 A 
ATOM      2  C   UNL     1       2.182   8.514  18.076  0.00  0.00    +0.000 A 
ATOM      3  C   UNL     1       1.788   9.832  17.840  0.00  0.00    +0.000 A 
ATOM      4  C   UNL     1       1.246  10.591  18.872  0.00  0.00    +0.000 A 
ATOM      5  C   UNL     1       1.074  10.033  20.146  0.00  0.00    +0.000 A 
ATOM      6  C   UNL     1       1.472   8.710  20.379  0.00  0.00    +0.000 A 
ENDROOT
BRANCH   5   7
ATOM      7  C   UNL     1       0.494  10.900  21.207  0.00  0.00    +0.000 C 
ATOM      8  O   UNL     1       1.079  11.924  21.548  0.00  0.00    +0.000 OA
ATOM      9  N   UNL     1      -0.706  10.511  21.733  0.00  0.00    +0.000 N 
ATOM     10  H   UNL     1      -1.196   9.687  21.404  0.00  0.00    +0.000 HD
BRANCH   9  11
ATOM     11  C   UNL     1      -1.359  11.297  22.763  0.00  0.00    +0.000 C 
BRANCH  11  12
ATOM     12  C   UNL     1      -2.486  12.187  22.199  0.00  0.00    +0.000 C 
BRANCH  12  13
ATOM     13  N   UNL     1      -2.256  12.679  20.813  0.00  0.00    +0.000 NA
BRANCH  13  14
ATOM     14  C   UNL     1      -1.657  14.044  20.773  0.00  0.00    +0.000 C 
ATOM     15  C   UNL     1      -0.714  14.240  19.573  0.00  0.00    +0.000 C 
ATOM     16  C   UNL     1      -2.713  15.164  20.661  0.00  0.00    +0.000 C 
ENDBRANCH  13  14
BRANCH  13  17
ATOM     17  C   UNL     1      -3.495  12.564  19.999  0.00  0.00    +0.000 C 
BRANCH  17  18
ATOM     18  C   UNL     1      -3.392  11.748  18.723  0.00  0.00    +0.000 A 
ATOM     19  C   UNL     1      -2.241  10.994  18.443  0.00  0.00    +0.000 A 
ATOM     20  C   UNL     1      -2.130  10.258  17.266  0.00  0.00    +0.000 A 
ATOM     21  C   UNL     1      -3.175  10.252  16.347  0.00  0.00    +0.000 A 
ATOM     22  C   UNL     1      -4.325  10.993  16.603  0.00  0.00    +0.000 A 
ATOM     23  C   UNL     1      -4.433  11.730  17.782  0.00  0.00    +0.000 A 
ENDBRANCH  17  18
ENDBRANCH  13  17
ENDBRANCH  12  13
ENDBRANCH  11  12
ENDBRANCH   9  11
ENDBRANCH   5   7
BRANCH   1  24
ATOM     24  C   UNL     1       2.448   6.505  19.631  0.00  0.00    +0.000 C 
BRANCH  24  25
ATOM     25  N   UNL     1       2.268   5.596  18.487  0.00  0.00    +0.000 NA
ATOM     26  H   UNL     1       1.301   5.380  18.260  0.00  0.00    +0.000 HD
BRANCH  25  27
ATOM     27  S   UNL     1       3.173   4.171  18.519  0.00  0.00    +0.000 S 
ATOM     28  O   UNL     1       2.310   3.064  18.178  0.00  0.00    +0.000 OA
ATOM     29  O   UNL     1       3.948   4.196  19.740  0.00  0.00    +0.000 OA
BRANCH  27  34
ATOM     30  C   UNL     1       7.181   5.128  14.059  0.00  0.00    +0.000 C 
ATOM     31  C   UNL     1       6.158   4.890  15.132  0.00  0.00    +0.000 A 
ATOM     32  C   UNL     1       5.499   5.966  15.740  0.00  0.00    +0.000 A 
ATOM     33  C   UNL     1       4.573   5.742  16.759  0.00  0.00    +0.000 A 
ATOM     34  C   UNL     1       4.304   4.435  17.172  0.00  0.00    +0.000 A 
ATOM     35  C   UNL     1       4.954   3.350  16.577  0.00  0.00    +0.000 A 
ATOM     36  C   UNL     1       5.875   3.582  15.554  0.00  0.00    +0.000 A 
ENDBRANCH  27  34
ENDBRANCH  25  27
ENDBRANCH  24  25
ENDBRANCH   1  24
TORSDOF 11
ENDMDL
MODEL 5
REMARK VINA RESULT:      -7.5      3.390     10.001
REMARK  Name = 
REMARK  14 active torsions:
REMARK  status: ('A' for Active; 'I' for Inactive)
REMARK    1  A    between atoms: C_1  and  C_2
REMARK    2  A    between atoms: C_5  and  S_6
REMARK    3  A    between atoms: S_6  and  N_9
REMARK    4  A    between atoms: N_9  and  C_10
REMARK    5  A    between atoms: C_10  and  C_11
REMARK    6  A    between atoms: C_15  and  C_16
REMARK    7  A    between atoms: N_18  and  C_19
REMARK    8  A    between atoms: C_19  and  C_20
REMARK    9  A    between atoms: C_20  and  N_21
REMARK   10  A    between atoms: N_21  and  C_22
REMARK   11  A    between atoms: N_21  and  C_29
REMARK   12  A    between atoms: C_22  and  C_23
REMARK   13  A    between atoms: C_29  and  C_30
REMARK   14  A    between atoms: C_29  and  C_31
REMARK                            x       y       z     vdW  Elec       q    Type
REMARK                         _______ _______ _______ _____ _____    ______ ____
ROOT
ATOM      1  C   UNL     1      -0.300  10.704  20.829  0.00  0.00    +0.000 A 
ATOM      2  C   UNL     1      -0.334  10.527  22.221  0.00  0.00    +0.000 A 
ATOM      3  C   UNL     1       0.366   9.481  22.825  0.00  0.00    +0.000 A 
ATOM      4  C   UNL     1       1.097   8.591  22.045  0.00  0.00    +0.000 A 
ATOM      5  C   UNL     1       1.120   8.727  20.650  0.00  0.00    +0.000 A 
ATOM      6  C   UNL     1       0.418   9.779  20.048  0.00  0.00    +0.000 A 
ENDROOT
BRANCH   5   7
ATOM      7  C   UNL     1       1.927   7.745  19.875  0.00  0.00    +0.000 C 
ATOM      8  O   UNL     1       2.398   8.064  18.787  0.00  0.00    +0.000 OA
ATOM      9  N   UNL     1       2.127   6.521  20.450  0.00  0.00    +0.000 N 
ATOM     10  H   UNL     1       1.769   6.294  21.370  0.00  0.00    +0.000 HD
BRANCH   9  11
ATOM     11  C   UNL     1       2.910   5.501  19.779  0.00  0.00    +0.000 C 
BRANCH  11  12
ATOM     12  C   UNL     1       2.132   4.821  18.632  0.00  0.00    +0.000 C 
BRANCH  12  13
ATOM     13  N   UNL     1       2.921   3.840  17.841  0.00  0.00    +0.000 NA
BRANCH  13  14
ATOM     14  C   UNL     1       2.393   2.449  17.945  0.00  0.00    +0.000 C 
ATOM     15  C   UNL     1       3.427   1.465  18.516  0.00  0.00    +0.000 C 
ATOM     16  C   UNL     1       1.160   2.341  18.867  0.00  0.00    +0.000 C 
ENDBRANCH  13  14
BRANCH  13  17
ATOM     17  C   UNL     1       4.369   3.937  18.168  0.00  0.00    +0.000 C 
BRANCH  17  18
ATOM     18  C   UNL     1       5.303   4.260  17.015  0.00  0.00    +0.000 A 
ATOM     19  C   UNL     1       4.855   4.189  15.686  0.00  0.00    +0.000 A 
ATOM     20  C   UNL     1       5.710   4.464  14.622  0.00  0.00    +0.000 A 
ATOM     21  C   UNL     1       7.031   4.826  14.866  0.00  0.00    +0.000 A 
ATOM     22  C   UNL     1       7.497   4.902  16.175  0.00  0.00    +0.000 A 
ATOM     23  C   UNL     1       6.639   4.625  17.239  0.00  0.00    +0.000 A 
ENDBRANCH  17  18
ENDBRANCH  13  17
ENDBRANCH  12  13
ENDBRANCH  11  12
ENDBRANCH   9  11
ENDBRANCH   5   7
BRANCH   1  24
ATOM     24  C   UNL     1      -1.070  11.817  20.143  0.00  0.00    +0.000 C 
BRANCH  24  25
ATOM     25  N   UNL     1      -0.222  12.785  19.430  0.00  0.00    +0.000 NA
ATOM     26  H   UNL     1       0.403  12.380  18.738  0.00  0.00    +0.000 HD
BRANCH  25  27
ATOM     27  S   UNL     1       0.636  13.875  20.395  0.00  0.00    +0.000 S 
ATOM     28  O   UNL     1       1.978  13.374  20.582  0.00  0.00    +0.000 OA
ATOM     29  O   UNL     1      -0.223  14.211  21.509  0.00  0.00    +0.000 OA
BRANCH  27  34
ATOM     30  C   UNL     1       0.923  18.625  16.625  0.00  0.00    +0.000 C 
ATOM     31  C   UNL     1       0.857  17.478  17.591  0.00  0.00    +0.000 A 
ATOM     32  C   UNL     1       2.024  16.819  17.996  0.00  0.00    +0.000 A 
ATOM     33  C   UNL     1       1.956  15.733  18.868  0.00  0.00    +0.000 A 
ATOM     34  C   UNL     1       0.712  15.304  19.339  0.00  0.00    +0.000 A 
ATOM     35  C   UNL     1      -0.462  15.948  18.943  0.00  0.00    +0.000 A 
ATOM     36  C   UNL     1      -0.385  17.039  18.074  0.00  0.00    +0.000 A 
ENDBRANCH  27  34
ENDBRANCH  25  27
ENDBRANCH  24  25
ENDBRANCH   1  24
TORSDOF 11
ENDMDL
MODEL 6
REMARK VINA RESULT:      -7.4      2.859      9.299
REMARK  Name = 
REMARK  14 active torsions:
REMARK  status: ('A' for Active; 'I' for Inactive)
REMARK    1  A    between atoms: C_1  and  C_2
REMARK    2  A    between atoms: C_5  and  S_6
REMARK    3  A    between atoms: S_6  and  N_9
REMARK    4  A    between atoms: N_9  and  C_10
REMARK    5  A    between atoms: C_10  and  C_11
REMARK    6  A    between atoms: C_15  and  C_16
REMARK    7  A    between atoms: N_18  and  C_19
REMARK    8  A    between atoms: C_19  and  C_20
REMARK    9  A    between atoms: C_20  and  N_21
REMARK   10  A    between atoms: N_21  and  C_22
REMARK   11  A    between atoms: N_21  and  C_29
REMARK   12  A    between atoms: C_22  and  C_23
REMARK   13  A    between atoms: C_29  and  C_30
REMARK   14  A    between atoms: C_29  and  C_31
REMARK                            x       y       z     vdW  Elec       q    Type
REMARK                         _______ _______ _______ _____ _____    ______ ____
ROOT
ATOM      1  C   UNL     1       1.218   9.842  19.874  0.00  0.00    +0.000 A 
ATOM      2  C   UNL     1       1.643  10.069  18.556  0.00  0.00    +0.000 A 
ATOM      3  C   UNL     1       2.195   9.038  17.795  0.00  0.00    +0.000 A 
ATOM      4  C   UNL     1       2.340   7.769  18.344  0.00  0.00    +0.000 A 
ATOM      5  C   UNL     1       1.954   7.523  19.669  0.00  0.00    +0.000 A 
ATOM      6  C   UNL     1       1.399   8.560  20.430  0.00  0.00    +0.000 A 
ENDROOT
BRANCH   5   7
ATOM      7  C   UNL     1       2.131   6.142  20.194  0.00  0.00    +0.000 C 
ATOM      8  O   UNL     1       1.161   5.520  20.620  0.00  0.00    +0.000 OA
ATOM      9  N   UNL     1       3.393   5.620  20.142  0.00  0.00    +0.000 N 
ATOM     10  H   UNL     1       4.171   6.132  19.743  0.00  0.00    +0.000 HD
BRANCH   9  11
ATOM     11  C   UNL     1       3.665   4.277  20.618  0.00  0.00    +0.000 C 
BRANCH  11  12
ATOM     12  C   UNL     1       3.899   3.279  19.464  0.00  0.00    +0.000 C 
BRANCH  12  13
ATOM     13  N   UNL     1       3.616   3.820  18.107  0.00  0.00    +0.000 NA
BRANCH  13  14
ATOM     14  C   UNL     1       2.464   3.146  17.443  0.00  0.00    +0.000 C 
ATOM     15  C   UNL     1       1.976   1.908  18.215  0.00  0.00    +0.000 C 
ATOM     16  C   UNL     1       1.229   4.062  17.302  0.00  0.00    +0.000 C 
ENDBRANCH  13  14
BRANCH  13  17
ATOM     17  C   UNL     1       4.847   3.826  17.273  0.00  0.00    +0.000 C 
BRANCH  17  18
ATOM     18  C   UNL     1       5.810   4.978  17.497  0.00  0.00    +0.000 A 
ATOM     19  C   UNL     1       5.562   6.242  16.937  0.00  0.00    +0.000 A 
ATOM     20  C   UNL     1       6.449   7.298  17.120  0.00  0.00    +0.000 A 
ATOM     21  C   UNL     1       7.601   7.116  17.879  0.00  0.00    +0.000 A 
ATOM     22  C   UNL     1       7.868   5.872  18.443  0.00  0.00    +0.000 A 
ATOM     23  C   UNL     1       6.978   4.815  18.257  0.00  0.00    +0.000 A 
ENDBRANCH  17  18
ENDBRANCH  13  17
ENDBRANCH  12  13
ENDBRANCH  11  12
ENDBRANCH   9  11
ENDBRANCH   5   7
BRANCH   1  24
ATOM     24  C   UNL     1       0.638  10.948  20.734  0.00  0.00    +0.000 C 
BRANCH  24  25
ATOM     25  N   UNL     1       0.004  12.035  19.970  0.00  0.00    +0.000 NA
ATOM     26  H   UNL     1       0.468  12.937  20.043  0.00  0.00    +0.000 HD
BRANCH  25  27
ATOM     27  S   UNL     1      -1.658  12.234  20.197  0.00  0.00    +0.000 S 
ATOM     28  O   UNL     1      -1.961  13.646  20.205  0.00  0.00    +0.000 OA
ATOM     29  O   UNL     1      -2.038  11.358  21.284  0.00  0.00    +0.000 OA
BRANCH  27  34
ATOM     30  C   UNL     1      -3.839  10.009  14.985  0.00  0.00    +0.000 C 
ATOM     31  C   UNL     1      -3.318  10.526  16.295  0.00  0.00    +0.000 A 
ATOM     32  C   UNL     1      -4.083  11.410  17.067  0.00  0.00    +0.000 A 
ATOM     33  C   UNL     1      -3.582  11.913  18.268  0.00  0.00    +0.000 A 
ATOM     34  C   UNL     1      -2.310  11.530  18.700  0.00  0.00    +0.000 A 
ATOM     35  C   UNL     1      -1.534  10.650  17.941  0.00  0.00    +0.000 A 
ATOM     36  C   UNL     1      -2.044  10.146  16.743  0.00  0.00    +0.000 A 
ENDBRANCH  27  34
ENDBRANCH  25  27
ENDBRANCH  24  25
ENDBRANCH   1  24
TORSDOF 11
ENDMDL
MODEL 7
REMARK VINA RESULT:      -7.3      1.110      1.854
REMARK  Name = 
REMARK  14 active torsions:
REMARK  status: ('A' for Active; 'I' for Inactive)
REMARK    1  A    between atoms: C_1  and  C_2
REMARK    2  A    between atoms: C_5  and  S_6
REMARK    3  A    between atoms: S_6  and  N_9
REMARK    4  A    between atoms: N_9  and  C_10
REMARK    5  A    between atoms: C_10  and  C_11
REMARK    6  A    between atoms: C_15  and  C_16
REMARK    7  A    between atoms: N_18  and  C_19
REMARK    8  A    between atoms: C_19  and  C_20
REMARK    9  A    between atoms: C_20  and  N_21
REMARK   10  A    between atoms: N_21  and  C_22
REMARK   11  A    between atoms: N_21  and  C_29
REMARK   12  A    between atoms: C_22  and  C_23
REMARK   13  A    between atoms: C_29  and  C_30
REMARK   14  A    between atoms: C_29  and  C_31
REMARK                            x       y       z     vdW  Elec       q    Type
REMARK                         _______ _______ _______ _____ _____    ______ ____
ROOT
ATOM      1  C   UNL     1       2.079   7.139  19.587  0.00  0.00    +0.000 A 
ATOM      2  C   UNL     1       2.030   7.614  18.267  0.00  0.00    +0.000 A 
ATOM      3  C   UNL     1       1.575   8.903  17.987  0.00  0.00    +0.000 A 
ATOM      4  C   UNL     1       1.151   9.730  19.022  0.00  0.00    +0.000 A 
ATOM      5  C   UNL     1       1.158   9.269  20.345  0.00  0.00    +0.000 A 
ATOM      6  C   UNL     1       1.616   7.975  20.622  0.00  0.00    +0.000 A 
ENDROOT
BRANCH   5   7
ATOM      7  C   UNL     1       0.696  10.206  21.405  0.00  0.00    +0.000 C 
ATOM      8  O   UNL     1       1.225  11.308  21.520  0.00  0.00    +0.000 OA
ATOM      9  N   UNL     1      -0.340   9.785  22.191  0.00  0.00    +0.000 N 
ATOM     10  H   UNL     1      -0.795   8.891  22.048  0.00  0.00    +0.000 HD
BRANCH   9  11
ATOM     11  C   UNL     1      -0.870  10.632  23.243  0.00  0.00    +0.000 C 
BRANCH  11  12
ATOM     12  C   UNL     1      -1.980  11.577  22.735  0.00  0.00    +0.000 C 
BRANCH  12  13
ATOM     13  N   UNL     1      -1.627  13.022  22.758  0.00  0.00    +0.000 NA
BRANCH  13  14
ATOM     14  C   UNL     1      -2.512  13.823  23.650  0.00  0.00    +0.000 C 
ATOM     15  C   UNL     1      -2.798  15.228  23.093  0.00  0.00    +0.000 C 
ATOM     16  C   UNL     1      -3.895  13.172  23.870  0.00  0.00    +0.000 C 
ENDBRANCH  13  14
BRANCH  13  17
ATOM     17  C   UNL     1      -1.545  13.568  21.377  0.00  0.00    +0.000 C 
BRANCH  17  18
ATOM     18  C   UNL     1      -2.323  12.822  20.307  0.00  0.00    +0.000 A 
ATOM     19  C   UNL     1      -1.656  12.086  19.315  0.00  0.00    +0.000 A 
ATOM     20  C   UNL     1      -2.360  11.415  18.319  0.00  0.00    +0.000 A 
ATOM     21  C   UNL     1      -3.750  11.457  18.301  0.00  0.00    +0.000 A 
ATOM     22  C   UNL     1      -4.433  12.181  19.274  0.00  0.00    +0.000 A 
ATOM     23  C   UNL     1      -3.725  12.853  20.270  0.00  0.00    +0.000 A 
ENDBRANCH  17  18
ENDBRANCH  13  17
ENDBRANCH  12  13
ENDBRANCH  11  12
ENDBRANCH   9  11
ENDBRANCH   5   7
BRANCH   1  24
ATOM     24  C   UNL     1       2.545   5.734  19.919  0.00  0.00    +0.000 C 
BRANCH  24  25
ATOM     25  N   UNL     1       2.271   4.744  18.865  0.00  0.00    +0.000 NA
ATOM     26  H   UNL     1       1.467   4.146  19.039  0.00  0.00    +0.000 HD
BRANCH  25  27
ATOM     27  S   UNL     1       3.582   3.801  18.371  0.00  0.00    +0.000 S 
ATOM     28  O   UNL     1       3.275   3.213  17.088  0.00  0.00    +0.000 OA
ATOM     29  O   UNL     1       3.972   3.001  19.512  0.00  0.00    +0.000 OA
BRANCH  27  34
ATOM     30  C   UNL     1       8.005   7.864  17.479  0.00  0.00    +0.000 C 
ATOM     31  C   UNL     1       6.891   6.887  17.726  0.00  0.00    +0.000 A 
ATOM     32  C   UNL     1       6.964   5.977  18.789  0.00  0.00    +0.000 A 
ATOM     33  C   UNL     1       5.943   5.050  18.996  0.00  0.00    +0.000 A 
ATOM     34  C   UNL     1       4.841   5.033  18.136  0.00  0.00    +0.000 A 
ATOM     35  C   UNL     1       4.754   5.933  17.071  0.00  0.00    +0.000 A 
ATOM     36  C   UNL     1       5.778   6.862  16.873  0.00  0.00    +0.000 A 
ENDBRANCH  27  34
ENDBRANCH  25  27
ENDBRANCH  24  25
ENDBRANCH   1  24
TORSDOF 11
ENDMDL
MODEL 8
REMARK VINA RESULT:      -7.3      3.336      9.213
REMARK  Name = 
REMARK  14 active torsions:
REMARK  status: ('A' for Active; 'I' for Inactive)
REMARK    1  A    between atoms: C_1  and  C_2
REMARK    2  A    between atoms: C_5  and  S_6
REMARK    3  A    between atoms: S_6  and  N_9
REMARK    4  A    between atoms: N_9  and  C_10
REMARK    5  A    between atoms: C_10  and  C_11
REMARK    6  A    between atoms: C_15  and  C_16
REMARK    7  A    between atoms: N_18  and  C_19
REMARK    8  A    between atoms: C_19  and  C_20
REMARK    9  A    between atoms: C_20  and  N_21
REMARK   10  A    between atoms: N_21  and  C_22
REMARK   11  A    between atoms: N_21  and  C_29
REMARK   12  A    between atoms: C_22  and  C_23
REMARK   13  A    between atoms: C_29  and  C_30
REMARK   14  A    between atoms: C_29  and  C_31
REMARK                            x       y       z     vdW  Elec       q    Type
REMARK                         _______ _______ _______ _____ _____    ______ ____
ROOT
ATOM      1  C   UNL     1      -0.123  10.031  20.266  0.00  0.00    +0.000 A 
ATOM      2  C   UNL     1      -0.002   9.256  21.429  0.00  0.00    +0.000 A 
ATOM      3  C   UNL     1       0.918   8.208  21.498  0.00  0.00    +0.000 A 
ATOM      4  C   UNL     1       1.720   7.914  20.400  0.00  0.00    +0.000 A 
ATOM      5  C   UNL     1       1.596   8.652  19.215  0.00  0.00    +0.000 A 
ATOM      6  C   UNL     1       0.672   9.704  19.151  0.00  0.00    +0.000 A 
ENDROOT
BRANCH   5   7
ATOM      7  C   UNL     1       2.488   8.290  18.080  0.00  0.00    +0.000 C 
ATOM      8  O   UNL     1       2.512   8.992  17.073  0.00  0.00    +0.000 OA
ATOM      9  N   UNL     1       3.273   7.182  18.242  0.00  0.00    +0.000 N 
ATOM     10  H   UNL     1       3.272   6.644  19.101  0.00  0.00    +0.000 HD
BRANCH   9  11
ATOM     11  C   UNL     1       4.185   6.755  17.198  0.00  0.00    +0.000 C 
BRANCH  11  12
ATOM     12  C   UNL     1       4.549   5.260  17.310  0.00  0.00    +0.000 C 
BRANCH  12  13
ATOM     13  N   UNL     1       5.383   4.909  18.492  0.00  0.00    +0.000 NA
BRANCH  13  14
ATOM     14  C   UNL     1       6.842   4.881  18.186  0.00  0.00    +0.000 C 
ATOM     15  C   UNL     1       7.130   4.580  16.705  0.00  0.00    +0.000 C 
ATOM     16  C   UNL     1       7.547   6.221  18.483  0.00  0.00    +0.000 C 
ENDBRANCH  13  14
BRANCH  13  17
ATOM     17  C   UNL     1       4.897   3.656  19.128  0.00  0.00    +0.000 C 
BRANCH  17  18
ATOM     18  C   UNL     1       3.405   3.565  19.391  0.00  0.00    +0.000 A 
ATOM     19  C   UNL     1       2.798   4.365  20.373  0.00  0.00    +0.000 A 
ATOM     20  C   UNL     1       1.434   4.274  20.635  0.00  0.00    +0.000 A 
ATOM     21  C   UNL     1       0.643   3.388  19.911  0.00  0.00    +0.000 A 
ATOM     22  C   UNL     1       1.223   2.584  18.933  0.00  0.00    +0.000 A 
ATOM     23  C   UNL     1       2.590   2.677  18.674  0.00  0.00    +0.000 A 
ENDBRANCH  17  18
ENDBRANCH  13  17
ENDBRANCH  12  13
ENDBRANCH  11  12
ENDBRANCH   9  11
ENDBRANCH   5   7
BRANCH   1  24
ATOM     24  C   UNL     1      -1.130  11.159  20.154  0.00  0.00    +0.000 C 
BRANCH  24  25
ATOM     25  N   UNL     1      -0.573  12.415  19.625  0.00  0.00    +0.000 NA
ATOM     26  H   UNL     1       0.221  12.301  19.000  0.00  0.00    +0.000 HD
BRANCH  25  27
ATOM     27  S   UNL     1      -0.228  13.614  20.764  0.00  0.00    +0.000 S 
ATOM     28  O   UNL     1       0.202  12.981  21.990  0.00  0.00    +0.000 OA
ATOM     29  O   UNL     1      -1.327  14.553  20.725  0.00  0.00    +0.000 OA
BRANCH  27  34
ATOM     30  C   UNL     1       4.633  16.406  18.431  0.00  0.00    +0.000 C 
ATOM     31  C   UNL     1       3.414  15.713  18.968  0.00  0.00    +0.000 A 
ATOM     32  C   UNL     1       2.297  16.452  19.378  0.00  0.00    +0.000 A 
ATOM     33  C   UNL     1       1.179  15.807  19.906  0.00  0.00    +0.000 A 
ATOM     34  C   UNL     1       1.177  14.415  20.024  0.00  0.00    +0.000 A 
ATOM     35  C   UNL     1       2.284  13.663  19.622  0.00  0.00    +0.000 A 
ATOM     36  C   UNL     1       3.397  14.315  19.089  0.00  0.00    +0.000 A 
ENDBRANCH  27  34
ENDBRANCH  25  27
ENDBRANCH  24  25
ENDBRANCH   1  24
TORSDOF 11
ENDMDL
MODEL 9
REMARK VINA RESULT:      -7.3      2.293      3.739
REMARK  Name = 
REMARK  14 active torsions:
REMARK  status: ('A' for Active; 'I' for Inactive)
REMARK    1  A    between atoms: C_1  and  C_2
REMARK    2  A    between atoms: C_5  and  S_6
REMARK    3  A    between atoms: S_6  and  N_9
REMARK    4  A    between atoms: N_9  and  C_10
REMARK    5  A    between atoms: C_10  and  C_11
REMARK    6  A    between atoms: C_15  and  C_16
REMARK    7  A    between atoms: N_18  and  C_19
REMARK    8  A    between atoms: C_19  and  C_20
REMARK    9  A    between atoms: C_20  and  N_21
REMARK   10  A    between atoms: N_21  and  C_22
REMARK   11  A    between atoms: N_21  and  C_29
REMARK   12  A    between atoms: C_22  and  C_23
REMARK   13  A    between atoms: C_29  and  C_30
REMARK   14  A    between atoms: C_29  and  C_31
REMARK                            x       y       z     vdW  Elec       q    Type
REMARK                         _______ _______ _______ _____ _____    ______ ____
ROOT
ATOM      1  C   UNL     1       2.377   6.927  19.385  0.00  0.00    +0.000 A 
ATOM      2  C   UNL     1       3.075   7.007  18.169  0.00  0.00    +0.000 A 
ATOM      3  C   UNL     1       3.005   8.155  17.379  0.00  0.00    +0.000 A 
ATOM      4  C   UNL     1       2.228   9.234  17.788  0.00  0.00    +0.000 A 
ATOM      5  C   UNL     1       1.496   9.168  18.981  0.00  0.00    +0.000 A 
ATOM      6  C   UNL     1       1.570   8.013  19.772  0.00  0.00    +0.000 A 
ENDROOT
BRANCH   5   7
ATOM      7  C   UNL     1       0.690  10.358  19.364  0.00  0.00    +0.000 C 
ATOM      8  O   UNL     1       0.818  10.851  20.481  0.00  0.00    +0.000 OA
ATOM      9  N   UNL     1      -0.148  10.867  18.410  0.00  0.00    +0.000 N 
ATOM     10  H   UNL     1      -0.203  10.474  17.478  0.00  0.00    +0.000 HD
BRANCH   9  11
ATOM     11  C   UNL     1      -0.966  12.034  18.683  0.00  0.00    +0.000 C 
BRANCH  11  12
ATOM     12  C   UNL     1      -2.115  11.731  19.667  0.00  0.00    +0.000 C 
BRANCH  12  13
ATOM     13  N   UNL     1      -3.434  11.480  19.025  0.00  0.00    +0.000 NA
BRANCH  13  14
ATOM     14  C   UNL     1      -3.326  11.200  17.565  0.00  0.00    +0.000 C 
ATOM     15  C   UNL     1      -3.233   9.695  17.257  0.00  0.00    +0.000 C 
ATOM     16  C   UNL     1      -4.539  11.715  16.761  0.00  0.00    +0.000 C 
ENDBRANCH  13  14
BRANCH  13  17
ATOM     17  C   UNL     1      -4.391  12.574  19.338  0.00  0.00    +0.000 C 
BRANCH  17  18
ATOM     18  C   UNL     1      -5.615  12.190  20.151  0.00  0.00    +0.000 A 
ATOM     19  C   UNL     1      -5.907  12.839  21.362  0.00  0.00    +0.000 A 
ATOM     20  C   UNL     1      -7.015  12.480  22.123  0.00  0.00    +0.000 A 
ATOM     21  C   UNL     1      -7.864  11.469  21.684  0.00  0.00    +0.000 A 
ATOM     22  C   UNL     1      -7.595  10.811  20.487  0.00  0.00    +0.000 A 
ATOM     23  C   UNL     1      -6.483  11.172  19.727  0.00  0.00    +0.000 A 
ENDBRANCH  17  18
ENDBRANCH  13  17
ENDBRANCH  12  13
ENDBRANCH  11  12
ENDBRANCH   9  11
ENDBRANCH   5   7
BRANCH   1  24
ATOM     24  C   UNL     1       2.414   5.682  20.251  0.00  0.00    +0.000 C 
BRANCH  24  25
ATOM     25  N   UNL     1       3.723   5.011  20.287  0.00  0.00    +0.000 NA
ATOM     26  H   UNL     1       4.513   5.601  20.038  0.00  0.00    +0.000 HD
BRANCH  25  27
ATOM     27  S   UNL     1       3.830   3.544  19.457  0.00  0.00    +0.000 S 
ATOM     28  O   UNL     1       2.508   3.159  19.020  0.00  0.00    +0.000 OA
ATOM     29  O   UNL     1       4.662   2.673  20.259  0.00  0.00    +0.000 OA
BRANCH  27  34
ATOM     30  C   UNL     1       7.185   4.958  14.598  0.00  0.00    +0.000 C 
ATOM     31  C   UNL     1       6.340   4.649  15.800  0.00  0.00    +0.000 A 
ATOM     32  C   UNL     1       6.838   4.853  17.093  0.00  0.00    +0.000 A 
ATOM     33  C   UNL     1       6.062   4.535  18.207  0.00  0.00    +0.000 A 
ATOM     34  C   UNL     1       4.780   4.010  18.028  0.00  0.00    +0.000 A 
ATOM     35  C   UNL     1       4.269   3.798  16.745  0.00  0.00    +0.000 A 
ATOM     36  C   UNL     1       5.049   4.125  15.634  0.00  0.00    +0.000 A 
ENDBRANCH  27  34
ENDBRANCH  25  27
ENDBRANCH  24  25
ENDBRANCH   1  24
TORSDOF 11
ENDMDL
