MODEL 1
REMARK VINA RESULT:      -7.3      0.000      0.000
REMARK  Name = 
REMARK  13 active torsions:
REMARK  status: ('A' for Active; 'I' for Inactive)
REMARK    1  A    between atoms: C_2  and  C_3
REMARK    2  A    between atoms: C_2  and  O_13
REMARK    3  A    between atoms: C_3  and  C_4
REMARK    4  A    between atoms: C_4  and  C_5
REMARK    5  A    between atoms: O_13  and  C_14
REMARK    6  A    between atoms: C_14  and  C_15
REMARK    7  A    between atoms: C_15  and  C_16
REMARK    8  A    between atoms: C_16  and  C_17
REMARK    9  A    between atoms: C_17  and  C_18
REMARK   10  A    between atoms: C_18  and  C_19
REMARK   11  A    between atoms: C_19  and  S_20
REMARK   12  A    between atoms: S_20  and  C_21
REMARK   13  A    between atoms: C_24  and  N_25
REMARK                            x       y       z     vdW  Elec       q    Type
REMARK                         _______ _______ _______ _____ _____    ______ ____
ROOT
ATOM      1  C   UNL     1       1.024   9.100  18.075  0.00  0.00    +0.000 C 
ENDROOT
BRANCH   1   2
ATOM      2  C   UNL     1       1.102  10.388  18.895  0.00  0.00    +0.000 C 
BRANCH   2   3
ATOM      3  C   UNL     1      -0.162  10.669  19.701  0.00  0.00    +0.000 C 
BRANCH   3   4
ATOM      4  O   UNL     1      -0.114   9.950  20.942  0.00  0.00    +0.000 OA
BRANCH   4   6
ATOM      5  O   UNL     1       0.142  10.423  23.178  0.00  0.00    +0.000 OA
ATOM      6  C   UNL     1      -0.335  10.663  22.081  0.00  0.00    +0.000 C 
BRANCH   6   7
ATOM      7  C   UNL     1      -1.368  11.744  21.820  0.00  0.00    +0.000 C 
BRANCH   7   8
ATOM      8  C   UNL     1      -1.929  12.433  23.077  0.00  0.00    +0.000 C 
BRANCH   8   9
ATOM      9  C   UNL     1      -3.407  12.831  23.013  0.00  0.00    +0.000 C 
ATOM     10  O   UNL     1      -4.203  12.205  22.314  0.00  0.00    +0.000 OA
ATOM     11  N   UNL     1      -3.793  13.977  23.724  0.00  0.00    +0.000 N 
ATOM     12  C   UNL     1      -5.198  14.427  23.718  0.00  0.00    +0.000 C 
ATOM     13  C   UNL     1      -5.331  15.956  23.885  0.00  0.00    +0.000 C 
ATOM     14  O   UNL     1      -4.582  16.451  24.998  0.00  0.00    +0.000 OA
ATOM     15  C   UNL     1      -3.195  16.101  24.921  0.00  0.00    +0.000 C 
ATOM     16  C   UNL     1      -2.999  14.582  24.802  0.00  0.00    +0.000 C 
ENDBRANCH   8   9
ENDBRANCH   7   8
ENDBRANCH   6   7
ENDBRANCH   4   6
ENDBRANCH   3   4
ENDBRANCH   2   3
ENDBRANCH   1   2
BRANCH   1  17
ATOM     17  C   UNL     1       2.403   8.536  17.693  0.00  0.00    +0.000 C 
BRANCH  17  18
ATOM     18  C   UNL     1       2.895   7.408  18.608  0.00  0.00    +0.000 C 
BRANCH  18  19
ATOM     19  C   UNL     1       2.386   6.001  18.240  0.00  0.00    +0.000 C 
BRANCH  19  20
ATOM     20  S   UNL     1       2.897   4.590  19.333  0.00  0.00    +0.000 S 
BRANCH  20  21
ATOM     21  C   UNL     1       4.290   4.038  18.397  0.00  0.00    +0.000 A 
ATOM     22  C   UNL     1       4.105   3.452  17.128  0.00  0.00    +0.000 A 
ATOM     23  C   UNL     1       5.033   3.633  16.093  0.00  0.00    +0.000 A 
ATOM     24  C   UNL     1       6.195   4.400  16.303  0.00  0.00    +0.000 A 
ATOM     25  C   UNL     1       6.554   4.710  17.624  0.00  0.00    +0.000 A 
ATOM     26  N   UNL     1       7.654   5.270  18.142  0.00  0.00    +0.000 NA
ATOM     27  O   UNL     1       7.406   5.421  19.490  0.00  0.00    +0.000 OA
ATOM     28  N   UNL     1       6.119   5.032  19.811  0.00  0.00    +0.000 NA
ATOM     29  C   UNL     1       5.587   4.534  18.688  0.00  0.00    +0.000 A 
BRANCH  24  30
ATOM     30  N   UNL     1       6.555   5.404  15.331  0.00  0.00    +0.000 N 
ATOM     31  O   UNL     1       5.770   6.340  15.181  0.00  0.00    +0.000 OA
ATOM     32  O   UNL     1       7.643   5.309  14.759  0.00  0.00    +0.000 OA
ENDBRANCH  24  30
ENDBRANCH  20  21
ENDBRANCH  19  20
ENDBRANCH  18  19
ENDBRANCH  17  18
ENDBRANCH   1  17
TORSDOF 13
ENDMDL
MODEL 2
REMARK VINA RESULT:      -7.2      2.835      3.351
REMARK  Name = 
REMARK  13 active torsions:
REMARK  status: ('A' for Active; 'I' for Inactive)
REMARK    1  A    between atoms: C_2  and  C_3
REMARK    2  A    between atoms: C_2  and  O_13
REMARK    3  A    between atoms: C_3  and  C_4
REMARK    4  A    between atoms: C_4  and  C_5
REMARK    5  A    between atoms: O_13  and  C_14
REMARK    6  A    between atoms: C_14  and  C_15
REMARK    7  A    between atoms: C_15  and  C_16
REMARK    8  A    between atoms: C_16  and  C_17
REMARK    9  A    between atoms: C_17  and  C_18
REMARK   10  A    between atoms: C_18  and  C_19
REMARK   11  A    between atoms: C_19  and  S_20
REMARK   12  A    between atoms: S_20  and  C_21
REMARK   13  A    between atoms: C_24  and  N_25
REMARK                            x       y       z     vdW  Elec       q    Type
REMARK                         _______ _______ _______ _____ _____    ______ ____
ROOT
ATOM      1  C   UNL     1       1.744   9.083  17.651  0.00  0.00    +0.000 C 
ENDROOT
BRANCH   1   2
ATOM      2  C   UNL     1       1.270   9.540  19.031  0.00  0.00    +0.000 C 
BRANCH   2   3
ATOM      3  C   UNL     1       1.287  11.055  19.205  0.00  0.00    +0.000 C 
BRANCH   3   4
ATOM      4  O   UNL     1       0.879  11.392  20.539  0.00  0.00    +0.000 OA
BRANCH   4   6
ATOM      5  O   UNL     1      -0.124  13.366  21.160  0.00  0.00    +0.000 OA
ATOM      6  C   UNL     1      -0.170  12.250  20.669  0.00  0.00    +0.000 C 
BRANCH   6   7
ATOM      7  C   UNL     1      -1.451  11.571  20.220  0.00  0.00    +0.000 C 
BRANCH   7   8
ATOM      8  C   UNL     1      -2.166  12.238  19.031  0.00  0.00    +0.000 C 
BRANCH   8   9
ATOM      9  C   UNL     1      -3.301  11.426  18.398  0.00  0.00    +0.000 C 
ATOM     10  O   UNL     1      -3.064  10.494  17.630  0.00  0.00    +0.000 OA
ATOM     11  N   UNL     1      -4.614  11.836  18.676  0.00  0.00    +0.000 N 
ATOM     12  C   UNL     1      -5.764  11.106  18.110  0.00  0.00    +0.000 C 
ATOM     13  C   UNL     1      -6.991  12.016  17.887  0.00  0.00    +0.000 C 
ATOM     14  O   UNL     1      -7.321  12.782  19.049  0.00  0.00    +0.000 OA
ATOM     15  C   UNL     1      -6.221  13.575  19.511  0.00  0.00    +0.000 C 
ATOM     16  C   UNL     1      -4.982  12.712  19.796  0.00  0.00    +0.000 C 
ENDBRANCH   8   9
ENDBRANCH   7   8
ENDBRANCH   6   7
ENDBRANCH   4   6
ENDBRANCH   3   4
ENDBRANCH   2   3
ENDBRANCH   1   2
BRANCH   1  17
ATOM     17  C   UNL     1       2.911   8.083  17.705  0.00  0.00    +0.000 C 
BRANCH  17  18
ATOM     18  C   UNL     1       2.504   6.666  18.126  0.00  0.00    +0.000 C 
BRANCH  18  19
ATOM     19  C   UNL     1       3.107   6.184  19.460  0.00  0.00    +0.000 C 
BRANCH  19  20
ATOM     20  S   UNL     1       3.138   4.355  19.778  0.00  0.00    +0.000 S 
BRANCH  20  21
ATOM     21  C   UNL     1       4.433   3.926  18.654  0.00  0.00    +0.000 A 
ATOM     22  C   UNL     1       4.123   3.431  17.371  0.00  0.00    +0.000 A 
ATOM     23  C   UNL     1       4.924   3.722  16.258  0.00  0.00    +0.000 A 
ATOM     24  C   UNL     1       6.079   4.513  16.399  0.00  0.00    +0.000 A 
ATOM     25  C   UNL     1       6.576   4.736  17.693  0.00  0.00    +0.000 A 
ATOM     26  N   UNL     1       7.711   5.297  18.129  0.00  0.00    +0.000 NA
ATOM     27  O   UNL     1       7.611   5.337  19.504  0.00  0.00    +0.000 OA
ATOM     28  N   UNL     1       6.379   4.878  19.933  0.00  0.00    +0.000 NA
ATOM     29  C   UNL     1       5.739   4.446  18.839  0.00  0.00    +0.000 A 
BRANCH  24  30
ATOM     30  N   UNL     1       6.300   5.600  15.475  0.00  0.00    +0.000 N 
ATOM     31  O   UNL     1       5.480   6.518  15.490  0.00  0.00    +0.000 OA
ATOM     32  O   UNL     1       7.317   5.585  14.778  0.00  0.00    +0.000 OA
ENDBRANCH  24  30
ENDBRANCH  20  21
ENDBRANCH  19  20
ENDBRANCH  18  19
ENDBRANCH  17  18
ENDBRANCH   1  17
TORSDOF 13
ENDMDL
MODEL 3
REMARK VINA RESULT:      -7.2      2.157      3.955
REMARK  Name = 
REMARK  13 active torsions:
REMARK  status: ('A' for Active; 'I' for Inactive)
REMARK    1  A    between atoms: C_2  and  C_3
REMARK    2  A    between atoms: C_2  and  O_13
REMARK    3  A    between atoms: C_3  and  C_4
REMARK    4  A    between atoms: C_4  and  C_5
REMARK    5  A    between atoms: O_13  and  C_14
REMARK    6  A    between atoms: C_14  and  C_15
REMARK    7  A    between atoms: C_15  and  C_16
REMARK    8  A    between atoms: C_16  and  C_17
REMARK    9  A    between atoms: C_17  and  C_18
REMARK   10  A    between atoms: C_18  and  C_19
REMARK   11  A    between atoms: C_19  and  S_20
REMARK   12  A    between atoms: S_20  and  C_21
REMARK   13  A    between atoms: C_24  and  N_25
REMARK                            x       y       z     vdW  Elec       q    Type
REMARK                         _______ _______ _______ _____ _____    ______ ____
ROOT
ATOM      1  C   UNL     1       1.346   4.619  19.901  0.00  0.00    +0.000 C 
ENDROOT
BRANCH   1   2
ATOM      2  C   UNL     1       1.918   5.495  21.016  0.00  0.00    +0.000 C 
BRANCH   2   3
ATOM      3  C   UNL     1       1.425   6.937  20.965  0.00  0.00    +0.000 C 
BRANCH   3   4
ATOM      4  O   UNL     1       1.586   7.456  19.636  0.00  0.00    +0.000 OA
BRANCH   4   6
ATOM      5  O   UNL     1       1.874   9.429  18.491  0.00  0.00    +0.000 OA
ATOM      6  C   UNL     1       1.549   8.809  19.491  0.00  0.00    +0.000 C 
BRANCH   6   7
ATOM      7  C   UNL     1       1.155   9.459  20.804  0.00  0.00    +0.000 C 
BRANCH   7   8
ATOM      8  C   UNL     1       0.023  10.498  20.708  0.00  0.00    +0.000 C 
BRANCH   8   9
ATOM      9  C   UNL     1      -0.537  10.994  22.045  0.00  0.00    +0.000 C 
ATOM     10  O   UNL     1      -0.057  10.619  23.114  0.00  0.00    +0.000 OA
ATOM     11  N   UNL     1      -1.661  11.834  21.997  0.00  0.00    +0.000 N 
ATOM     12  C   UNL     1      -2.260  12.359  23.239  0.00  0.00    +0.000 C 
ATOM     13  C   UNL     1      -3.777  12.611  23.103  0.00  0.00    +0.000 C 
ATOM     14  O   UNL     1      -4.101  13.386  21.945  0.00  0.00    +0.000 OA
ATOM     15  C   UNL     1      -3.609  12.792  20.737  0.00  0.00    +0.000 C 
ATOM     16  C   UNL     1      -2.092  12.563  20.796  0.00  0.00    +0.000 C 
ENDBRANCH   8   9
ENDBRANCH   7   8
ENDBRANCH   6   7
ENDBRANCH   4   6
ENDBRANCH   3   4
ENDBRANCH   2   3
ENDBRANCH   1   2
BRANCH   1  17
ATOM     17  C   UNL     1       1.373   3.117  20.230  0.00  0.00    +0.000 C 
BRANCH  17  18
ATOM     18  C   UNL     1       1.550   2.209  19.007  0.00  0.00    +0.000 C 
BRANCH  18  19
ATOM     19  C   UNL     1       2.213   2.880  17.788  0.00  0.00    +0.000 C 
BRANCH  19  20
ATOM     20  S   UNL     1       4.046   2.669  17.583  0.00  0.00    +0.000 S 
BRANCH  20  21
ATOM     21  C   UNL     1       4.410   4.262  16.912  0.00  0.00    +0.000 A 
ATOM     22  C   UNL     1       3.986   5.428  17.583  0.00  0.00    +0.000 A 
ATOM     23  C   UNL     1       4.750   6.604  17.567  0.00  0.00    +0.000 A 
ATOM     24  C   UNL     1       5.966   6.654  16.859  0.00  0.00    +0.000 A 
ATOM     25  C   UNL     1       6.237   5.634  15.934  0.00  0.00    +0.000 A 
ATOM     26  N   UNL     1       7.205   5.492  15.020  0.00  0.00    +0.000 NA
ATOM     27  O   UNL     1       7.028   4.240  14.470  0.00  0.00    +0.000 OA
ATOM     28  N   UNL     1       5.999   3.557  15.092  0.00  0.00    +0.000 NA
ATOM     29  C   UNL     1       5.454   4.416  15.964  0.00  0.00    +0.000 A 
BRANCH  24  30
ATOM     30  N   UNL     1       7.132   7.199  17.511  0.00  0.00    +0.000 N 
ATOM     31  O   UNL     1       7.384   8.386  17.300  0.00  0.00    +0.000 OA
ATOM     32  O   UNL     1       7.768   6.479  18.283  0.00  0.00    +0.000 OA
ENDBRANCH  24  30
ENDBRANCH  20  21
ENDBRANCH  19  20
ENDBRANCH  18  19
ENDBRANCH  17  18
ENDBRANCH   1  17
TORSDOF 13
ENDMDL
MODEL 4
REMARK VINA RESULT:      -7.1      7.344     10.108
REMARK  Name = 
REMARK  13 active torsions:
REMARK  status: ('A' for Active; 'I' for Inactive)
REMARK    1  A    between atoms: C_2  and  C_3
REMARK    2  A    between atoms: C_2  and  O_13
REMARK    3  A    between atoms: C_3  and  C_4
REMARK    4  A    between atoms: C_4  and  C_5
REMARK    5  A    between atoms: O_13  and  C_14
REMARK    6  A    between atoms: C_14  and  C_15
REMARK    7  A    between atoms: C_15  and  C_16
REMARK    8  A    between atoms: C_16  and  C_17
REMARK    9  A    between atoms: C_17  and  C_18
REMARK   10  A    between atoms: C_18  and  C_19
REMARK   11  A    between atoms: C_19  and  S_20
REMARK   12  A    between atoms: S_20  and  C_21
REMARK   13  A    between atoms: C_24  and  N_25
REMARK                            x       y       z     vdW  Elec       q    Type
REMARK                         _______ _______ _______ _____ _____    ______ ____
ROOT
ATOM      1  C   UNL     1       8.558   7.409  18.529  0.00  0.00    +0.000 C 
ENDROOT
BRANCH   1   2
ATOM      2  C   UNL     1       7.766   8.441  17.725  0.00  0.00    +0.000 C 
BRANCH   2   3
ATOM      3  C   UNL     1       8.230   9.874  17.957  0.00  0.00    +0.000 C 
BRANCH   3   4
ATOM      4  O   UNL     1       9.368   9.879  18.832  0.00  0.00    +0.000 OA
BRANCH   4   6
ATOM      5  O   UNL     1       9.270  11.702  20.229  0.00  0.00    +0.000 OA
ATOM      6  C   UNL     1       9.780  11.085  19.308  0.00  0.00    +0.000 C 
BRANCH   6   7
ATOM      7  C   UNL     1      10.905  11.624  18.444  0.00  0.00    +0.000 C 
BRANCH   7   8
ATOM      8  C   UNL     1      11.487  12.977  18.892  0.00  0.00    +0.000 C 
BRANCH   8   9
ATOM      9  C   UNL     1      11.488  14.083  17.833  0.00  0.00    +0.000 C 
ATOM     10  O   UNL     1      12.306  14.082  16.913  0.00  0.00    +0.000 OA
ATOM     11  N   UNL     1      10.568  15.129  17.997  0.00  0.00    +0.000 N 
ATOM     12  C   UNL     1      10.500  16.232  17.019  0.00  0.00    +0.000 C 
ATOM     13  C   UNL     1      10.035  17.559  17.655  0.00  0.00    +0.000 C 
ATOM     14  O   UNL     1       8.836  17.407  18.422  0.00  0.00    +0.000 OA
ATOM     15  C   UNL     1       8.966  16.411  19.444  0.00  0.00    +0.000 C 
ATOM     16  C   UNL     1       9.382  15.052  18.861  0.00  0.00    +0.000 C 
ENDBRANCH   8   9
ENDBRANCH   7   8
ENDBRANCH   6   7
ENDBRANCH   4   6
ENDBRANCH   3   4
ENDBRANCH   2   3
ENDBRANCH   1   2
BRANCH   1  17
ATOM     17  C   UNL     1       7.780   6.108  18.786  0.00  0.00    +0.000 C 
BRANCH  17  18
ATOM     18  C   UNL     1       6.356   6.105  18.218  0.00  0.00    +0.000 C 
BRANCH  18  19
ATOM     19  C   UNL     1       5.706   4.712  18.096  0.00  0.00    +0.000 C 
BRANCH  19  20
ATOM     20  S   UNL     1       4.518   4.439  16.696  0.00  0.00    +0.000 S 
BRANCH  20  21
ATOM     21  C   UNL     1       3.091   4.027  17.652  0.00  0.00    +0.000 A 
ATOM     22  C   UNL     1       2.680   2.683  17.770  0.00  0.00    +0.000 A 
ATOM     23  C   UNL     1       2.094   2.194  18.946  0.00  0.00    +0.000 A 
ATOM     24  C   UNL     1       1.886   3.048  20.046  0.00  0.00    +0.000 A 
ATOM     25  C   UNL     1       1.981   4.433  19.838  0.00  0.00    +0.000 A 
ATOM     26  N   UNL     1       1.690   5.476  20.625  0.00  0.00    +0.000 NA
ATOM     27  O   UNL     1       2.084   6.599  19.929  0.00  0.00    +0.000 OA
ATOM     28  N   UNL     1       2.699   6.263  18.737  0.00  0.00    +0.000 NA
ATOM     29  C   UNL     1       2.600   4.932  18.627  0.00  0.00    +0.000 A 
BRANCH  24  30
ATOM     30  N   UNL     1       2.292   2.609  21.360  0.00  0.00    +0.000 N 
ATOM     31  O   UNL     1       1.427   2.599  22.235  0.00  0.00    +0.000 OA
ATOM     32  O   UNL     1       3.448   2.211  21.518  0.00  0.00    +0.000 OA
ENDBRANCH  24  30
ENDBRANCH  20  21
ENDBRANCH  19  20
ENDBRANCH  18  19
ENDBRANCH  17  18
ENDBRANCH   1  17
TORSDOF 13
ENDMDL
MODEL 5
REMARK VINA RESULT:      -7.1      2.173      3.713
REMARK  Name = 
REMARK  13 active torsions:
REMARK  status: ('A' for Active; 'I' for Inactive)
REMARK    1  A    between atoms: C_2  and  C_3
REMARK    2  A    between atoms: C_2  and  O_13
REMARK    3  A    between atoms: C_3  and  C_4
REMARK    4  A    between atoms: C_4  and  C_5
REMARK    5  A    between atoms: O_13  and  C_14
REMARK    6  A    between atoms: C_14  and  C_15
REMARK    7  A    between atoms: C_15  and  C_16
REMARK    8  A    between atoms: C_16  and  C_17
REMARK    9  A    between atoms: C_17  and  C_18
REMARK   10  A    between atoms: C_18  and  C_19
REMARK   11  A    between atoms: C_19  and  S_20
REMARK   12  A    between atoms: S_20  and  C_21
REMARK   13  A    between atoms: C_24  and  N_25
REMARK                            x       y       z     vdW  Elec       q    Type
REMARK                         _______ _______ _______ _____ _____    ______ ____
ROOT
ATOM      1  C   UNL     1       2.055   5.046  20.617  0.00  0.00    +0.000 C 
ENDROOT
BRANCH   1   2
ATOM      2  C   UNL     1       1.441   6.387  21.018  0.00  0.00    +0.000 C 
BRANCH   2   3
ATOM      3  C   UNL     1       1.725   7.505  20.022  0.00  0.00    +0.000 C 
BRANCH   3   4
ATOM      4  O   UNL     1       1.596   8.778  20.673  0.00  0.00    +0.000 OA
BRANCH   4   6
ATOM      5  O   UNL     1      -0.178   8.867  22.133  0.00  0.00    +0.000 OA
ATOM      6  C   UNL     1       0.347   9.148  21.068  0.00  0.00    +0.000 C 
BRANCH   6   7
ATOM      7  C   UNL     1      -0.360   9.870  19.936  0.00  0.00    +0.000 C 
BRANCH   7   8
ATOM      8  C   UNL     1       0.029  11.348  19.756  0.00  0.00    +0.000 C 
BRANCH   8   9
ATOM      9  C   UNL     1      -0.166  12.242  20.985  0.00  0.00    +0.000 C 
ATOM     10  O   UNL     1       0.723  12.369  21.826  0.00  0.00    +0.000 OA
ATOM     11  N   UNL     1      -1.422  12.847  21.144  0.00  0.00    +0.000 N 
ATOM     12  C   UNL     1      -1.692  13.725  22.298  0.00  0.00    +0.000 C 
ATOM     13  C   UNL     1      -3.177  13.708  22.720  0.00  0.00    +0.000 C 
ATOM     14  O   UNL     1      -4.061  13.932  21.618  0.00  0.00    +0.000 OA
ATOM     15  C   UNL     1      -3.859  12.990  20.557  0.00  0.00    +0.000 C 
ATOM     16  C   UNL     1      -2.405  12.998  20.062  0.00  0.00    +0.000 C 
ENDBRANCH   8   9
ENDBRANCH   7   8
ENDBRANCH   6   7
ENDBRANCH   4   6
ENDBRANCH   3   4
ENDBRANCH   2   3
ENDBRANCH   1   2
BRANCH   1  17
ATOM     17  C   UNL     1       1.021   3.916  20.484  0.00  0.00    +0.000 C 
BRANCH  17  18
ATOM     18  C   UNL     1       1.172   3.073  19.213  0.00  0.00    +0.000 C 
BRANCH  18  19
ATOM     19  C   UNL     1       1.918   3.767  18.056  0.00  0.00    +0.000 C 
BRANCH  19  20
ATOM     20  S   UNL     1       3.622   3.157  17.643  0.00  0.00    +0.000 S 
BRANCH  20  21
ATOM     21  C   UNL     1       4.263   4.649  16.948  0.00  0.00    +0.000 A 
ATOM     22  C   UNL     1       3.981   5.892  17.553  0.00  0.00    +0.000 A 
ATOM     23  C   UNL     1       4.914   6.938  17.551  0.00  0.00    +0.000 A 
ATOM     24  C   UNL     1       6.164   6.778  16.923  0.00  0.00    +0.000 A 
ATOM     25  C   UNL     1       6.332   5.692  16.049  0.00  0.00    +0.000 A 
ATOM     26  N   UNL     1       7.320   5.370  15.205  0.00  0.00    +0.000 NA
ATOM     27  O   UNL     1       6.988   4.137  14.684  0.00  0.00    +0.000 OA
ATOM     28  N   UNL     1       5.832   3.641  15.259  0.00  0.00    +0.000 NA
ATOM     29  C   UNL     1       5.372   4.606  16.066  0.00  0.00    +0.000 A 
BRANCH  24  30
ATOM     30  N   UNL     1       7.359   7.169  17.631  0.00  0.00    +0.000 N 
ATOM     31  O   UNL     1       7.843   8.263  17.343  0.00  0.00    +0.000 OA
ATOM     32  O   UNL     1       7.787   6.429  18.519  0.00  0.00    +0.000 OA
ENDBRANCH  24  30
ENDBRANCH  20  21
ENDBRANCH  19  20
ENDBRANCH  18  19
ENDBRANCH  17  18
ENDBRANCH   1  17
TORSDOF 13
ENDMDL
MODEL 6
REMARK VINA RESULT:      -7.1      2.723      4.341
REMARK  Name = 
REMARK  13 active torsions:
REMARK  status: ('A' for Active; 'I' for Inactive)
REMARK    1  A    between atoms: C_2  and  C_3
REMARK    2  A    between atoms: C_2  and  O_13
REMARK    3  A    between atoms: C_3  and  C_4
REMARK    4  A    between atoms: C_4  and  C_5
REMARK    5  A    between atoms: O_13  and  C_14
REMARK    6  A    between atoms: C_14  and  C_15
REMARK    7  A    between atoms: C_15  and  C_16
REMARK    8  A    between atoms: C_16  and  C_17
REMARK    9  A    between atoms: C_17  and  C_18
REMARK   10  A    between atoms: C_18  and  C_19
REMARK   11  A    between atoms: C_19  and  S_20
REMARK   12  A    between atoms: S_20  and  C_21
REMARK   13  A    between atoms: C_24  and  N_25
REMARK                            x       y       z     vdW  Elec       q    Type
REMARK                         _______ _______ _______ _____ _____    ______ ____
ROOT
ATOM      1  C   UNL     1       1.634   3.786  20.687  0.00  0.00    +0.000 C 
ENDROOT
BRANCH   1   2
ATOM      2  C   UNL     1       2.260   5.091  21.182  0.00  0.00    +0.000 C 
BRANCH   2   3
ATOM      3  C   UNL     1       1.723   6.328  20.470  0.00  0.00    +0.000 C 
BRANCH   3   4
ATOM      4  O   UNL     1       1.034   7.166  21.411  0.00  0.00    +0.000 OA
BRANCH   4   6
ATOM      5  O   UNL     1       1.660   9.163  22.363  0.00  0.00    +0.000 OA
ATOM      6  C   UNL     1       1.337   8.493  21.396  0.00  0.00    +0.000 C 
BRANCH   6   7
ATOM      7  C   UNL     1       1.097   9.062  20.010  0.00  0.00    +0.000 C 
BRANCH   7   8
ATOM      8  C   UNL     1      -0.105  10.017  19.891  0.00  0.00    +0.000 C 
BRANCH   8   9
ATOM      9  C   UNL     1       0.201  11.400  19.309  0.00  0.00    +0.000 C 
ATOM     10  O   UNL     1       1.191  11.587  18.602  0.00  0.00    +0.000 OA
ATOM     11  N   UNL     1      -0.652  12.452  19.673  0.00  0.00    +0.000 N 
ATOM     12  C   UNL     1      -0.431  13.815  19.153  0.00  0.00    +0.000 C 
ATOM     13  C   UNL     1      -0.919  14.907  20.128  0.00  0.00    +0.000 C 
ATOM     14  O   UNL     1      -2.259  14.682  20.574  0.00  0.00    +0.000 OA
ATOM     15  C   UNL     1      -2.421  13.396  21.184  0.00  0.00    +0.000 C 
ATOM     16  C   UNL     1      -1.996  12.263  20.238  0.00  0.00    +0.000 C 
ENDBRANCH   8   9
ENDBRANCH   7   8
ENDBRANCH   6   7
ENDBRANCH   4   6
ENDBRANCH   3   4
ENDBRANCH   2   3
ENDBRANCH   1   2
BRANCH   1  17
ATOM     17  C   UNL     1       1.132   3.862  19.236  0.00  0.00    +0.000 C 
BRANCH  17  18
ATOM     18  C   UNL     1       1.285   2.555  18.450  0.00  0.00    +0.000 C 
BRANCH  18  19
ATOM     19  C   UNL     1       2.439   2.540  17.429  0.00  0.00    +0.000 C 
BRANCH  19  20
ATOM     20  S   UNL     1       4.162   2.780  18.077  0.00  0.00    +0.000 S 
BRANCH  20  21
ATOM     21  C   UNL     1       4.508   4.331  17.305  0.00  0.00    +0.000 A 
ATOM     22  C   UNL     1       4.135   5.536  17.936  0.00  0.00    +0.000 A 
ATOM     23  C   UNL     1       4.910   6.698  17.817  0.00  0.00    +0.000 A 
ATOM     24  C   UNL     1       6.086   6.694  17.044  0.00  0.00    +0.000 A 
ATOM     25  C   UNL     1       6.295   5.624  16.159  0.00  0.00    +0.000 A 
ATOM     26  N   UNL     1       7.210   5.421  15.204  0.00  0.00    +0.000 NA
ATOM     27  O   UNL     1       6.988   4.145  14.730  0.00  0.00    +0.000 OA
ATOM     28  N   UNL     1       5.987   3.510  15.442  0.00  0.00    +0.000 NA
ATOM     29  C   UNL     1       5.500   4.420  16.295  0.00  0.00    +0.000 A 
BRANCH  24  30
ATOM     30  N   UNL     1       7.293   7.255  17.602  0.00  0.00    +0.000 N 
ATOM     31  O   UNL     1       7.647   8.353  17.171  0.00  0.00    +0.000 OA
ATOM     32  O   UNL     1       7.861   6.647  18.511  0.00  0.00    +0.000 OA
ENDBRANCH  24  30
ENDBRANCH  20  21
ENDBRANCH  19  20
ENDBRANCH  18  19
ENDBRANCH  17  18
ENDBRANCH   1  17
TORSDOF 13
ENDMDL
MODEL 7
REMARK VINA RESULT:      -7.1      1.535      1.817
REMARK  Name = 
REMARK  13 active torsions:
REMARK  status: ('A' for Active; 'I' for Inactive)
REMARK    1  A    between atoms: C_2  and  C_3
REMARK    2  A    between atoms: C_2  and  O_13
REMARK    3  A    between atoms: C_3  and  C_4
REMARK    4  A    between atoms: C_4  and  C_5
REMARK    5  A    between atoms: O_13  and  C_14
REMARK    6  A    between atoms: C_14  and  C_15
REMARK    7  A    between atoms: C_15  and  C_16
REMARK    8  A    between atoms: C_16  and  C_17
REMARK    9  A    between atoms: C_17  and  C_18
REMARK   10  A    between atoms: C_18  and  C_19
REMARK   11  A    between atoms: C_19  and  S_20
REMARK   12  A    between atoms: S_20  and  C_21
REMARK   13  A    between atoms: C_24  and  N_25
REMARK                            x       y       z     vdW  Elec       q    Type
REMARK                         _______ _______ _______ _____ _____    ______ ____
ROOT
ATOM      1  C   UNL     1       1.162   8.477  20.522  0.00  0.00    +0.000 C 
ENDROOT
BRANCH   1   2
ATOM      2  C   UNL     1       0.969   9.574  19.475  0.00  0.00    +0.000 C 
BRANCH   2   3
ATOM      3  C   UNL     1       0.005  10.669  19.917  0.00  0.00    +0.000 C 
BRANCH   3   4
ATOM      4  O   UNL     1      -0.640  10.281  21.140  0.00  0.00    +0.000 OA
BRANCH   4   6
ATOM      5  O   UNL     1      -0.424  10.787  23.372  0.00  0.00    +0.000 OA
ATOM      6  C   UNL     1      -0.511  11.122  22.202  0.00  0.00    +0.000 C 
BRANCH   6   7
ATOM      7  C   UNL     1      -0.613  12.562  21.736  0.00  0.00    +0.000 C 
BRANCH   7   8
ATOM      8  C   UNL     1      -1.947  13.263  22.053  0.00  0.00    +0.000 C 
BRANCH   8   9
ATOM      9  C   UNL     1      -3.147  12.818  21.212  0.00  0.00    +0.000 C 
ATOM     10  O   UNL     1      -3.014  12.510  20.028  0.00  0.00    +0.000 OA
ATOM     11  N   UNL     1      -4.407  12.846  21.828  0.00  0.00    +0.000 N 
ATOM     12  C   UNL     1      -5.614  12.430  21.089  0.00  0.00    +0.000 C 
ATOM     13  C   UNL     1      -6.886  13.159  21.573  0.00  0.00    +0.000 C 
ATOM     14  O   UNL     1      -7.042  13.098  22.994  0.00  0.00    +0.000 OA
ATOM     15  C   UNL     1      -5.903  13.619  23.690  0.00  0.00    +0.000 C 
ATOM     16  C   UNL     1      -4.611  12.896  23.282  0.00  0.00    +0.000 C 
ENDBRANCH   8   9
ENDBRANCH   7   8
ENDBRANCH   6   7
ENDBRANCH   4   6
ENDBRANCH   3   4
ENDBRANCH   2   3
ENDBRANCH   1   2
BRANCH   1  17
ATOM     17  C   UNL     1       2.236   7.447  20.135  0.00  0.00    +0.000 C 
BRANCH  17  18
ATOM     18  C   UNL     1       2.358   7.203  18.627  0.00  0.00    +0.000 C 
BRANCH  18  19
ATOM     19  C   UNL     1       2.382   5.721  18.205  0.00  0.00    +0.000 C 
BRANCH  19  20
ATOM     20  S   UNL     1       3.122   4.502  19.393  0.00  0.00    +0.000 S 
BRANCH  20  21
ATOM     21  C   UNL     1       4.497   3.991  18.407  0.00  0.00    +0.000 A 
ATOM     22  C   UNL     1       4.283   3.411  17.139  0.00  0.00    +0.000 A 
ATOM     23  C   UNL     1       5.172   3.623  16.076  0.00  0.00    +0.000 A 
ATOM     24  C   UNL     1       6.322   4.415  16.255  0.00  0.00    +0.000 A 
ATOM     25  C   UNL     1       6.718   4.722  17.566  0.00  0.00    +0.000 A 
ATOM     26  N   UNL     1       7.821   5.303  18.052  0.00  0.00    +0.000 NA
ATOM     27  O   UNL     1       7.614   5.437  19.409  0.00  0.00    +0.000 OA
ATOM     28  N   UNL     1       6.347   5.015  19.770  0.00  0.00    +0.000 NA
ATOM     29  C   UNL     1       5.790   4.515  18.660  0.00  0.00    +0.000 A 
BRANCH  24  30
ATOM     30  N   UNL     1       6.626   5.436  15.281  0.00  0.00    +0.000 N 
ATOM     31  O   UNL     1       5.840   6.379  15.200  0.00  0.00    +0.000 OA
ATOM     32  O   UNL     1       7.674   5.344  14.638  0.00  0.00    +0.000 OA
ENDBRANCH  24  30
ENDBRANCH  20  21
ENDBRANCH  19  20
ENDBRANCH  18  19
ENDBRANCH  17  18
ENDBRANCH   1  17
TORSDOF 13
ENDMDL
MODEL 8
REMARK VINA RESULT:      -6.9      4.058      5.049
REMARK  Name = 
REMARK  13 active torsions:
REMARK  status: ('A' for Active; 'I' for Inactive)
REMARK    1  A    between atoms: C_2  and  C_3
REMARK    2  A    between atoms: C_2  and  O_13
REMARK    3  A    between atoms: C_3  and  C_4
REMARK    4  A    between atoms: C_4  and  C_5
REMARK    5  A    between atoms: O_13  and  C_14
REMARK    6  A    between atoms: C_14  and  C_15
REMARK    7  A    between atoms: C_15  and  C_16
REMARK    8  A    between atoms: C_16  and  C_17
REMARK    9  A    between atoms: C_17  and  C_18
REMARK   10  A    between atoms: C_18  and  C_19
REMARK   11  A    between atoms: C_19  and  S_20
REMARK   12  A    between atoms: S_20  and  C_21
REMARK   13  A    between atoms: C_24  and  N_25
REMARK                            x       y       z     vdW  Elec       q    Type
REMARK                         _______ _______ _______ _____ _____    ______ ____
ROOT
ATOM      1  C   UNL     1       1.321   5.069  20.694  0.00  0.00    +0.000 C 
ENDROOT
BRANCH   1   2
ATOM      2  C   UNL     1       1.857   6.410  20.194  0.00  0.00    +0.000 C 
BRANCH   2   3
ATOM      3  C   UNL     1       1.324   7.605  20.978  0.00  0.00    +0.000 C 
BRANCH   3   4
ATOM      4  O   UNL     1       1.368   8.781  20.155  0.00  0.00    +0.000 OA
BRANCH   4   6
ATOM      5  O   UNL     1      -0.262   9.856  21.369  0.00  0.00    +0.000 OA
ATOM      6  C   UNL     1       0.393   9.710  20.350  0.00  0.00    +0.000 C 
BRANCH   6   7
ATOM      7  C   UNL     1       0.144  10.474  19.063  0.00  0.00    +0.000 C 
BRANCH   7   8
ATOM      8  C   UNL     1       1.220  11.512  18.697  0.00  0.00    +0.000 C 
BRANCH   8   9
ATOM      9  C   UNL     1       0.731  12.958  18.567  0.00  0.00    +0.000 C 
ATOM     10  O   UNL     1      -0.352  13.219  18.044  0.00  0.00    +0.000 OA
ATOM     11  N   UNL     1       1.600  13.970  19.004  0.00  0.00    +0.000 N 
ATOM     12  C   UNL     1       1.204  15.389  18.919  0.00  0.00    +0.000 C 
ATOM     13  C   UNL     1       2.414  16.330  18.733  0.00  0.00    +0.000 C 
ATOM     14  O   UNL     1       3.448  16.087  19.691  0.00  0.00    +0.000 OA
ATOM     15  C   UNL     1       3.899  14.726  19.672  0.00  0.00    +0.000 C 
ATOM     16  C   UNL     1       2.741  13.743  19.902  0.00  0.00    +0.000 C 
ENDBRANCH   8   9
ENDBRANCH   7   8
ENDBRANCH   6   7
ENDBRANCH   4   6
ENDBRANCH   3   4
ENDBRANCH   2   3
ENDBRANCH   1   2
BRANCH   1  17
ATOM     17  C   UNL     1       2.405   3.985  20.817  0.00  0.00    +0.000 C 
BRANCH  17  18
ATOM     18  C   UNL     1       2.239   2.818  19.837  0.00  0.00    +0.000 C 
BRANCH  18  19
ATOM     19  C   UNL     1       2.401   3.188  18.349  0.00  0.00    +0.000 C 
BRANCH  19  20
ATOM     20  S   UNL     1       3.997   2.732  17.519  0.00  0.00    +0.000 S 
BRANCH  20  21
ATOM     21  C   UNL     1       4.430   4.332  16.908  0.00  0.00    +0.000 A 
ATOM     22  C   UNL     1       4.057   5.489  17.623  0.00  0.00    +0.000 A 
ATOM     23  C   UNL     1       4.871   6.630  17.651  0.00  0.00    +0.000 A 
ATOM     24  C   UNL     1       6.088   6.655  16.944  0.00  0.00    +0.000 A 
ATOM     25  C   UNL     1       6.315   5.660  15.980  0.00  0.00    +0.000 A 
ATOM     26  N   UNL     1       7.276   5.510  15.060  0.00  0.00    +0.000 NA
ATOM     27  O   UNL     1       7.045   4.289  14.464  0.00  0.00    +0.000 OA
ATOM     28  N   UNL     1       5.987   3.628  15.061  0.00  0.00    +0.000 NA
ATOM     29  C   UNL     1       5.480   4.476  15.965  0.00  0.00    +0.000 A 
BRANCH  24  30
ATOM     30  N   UNL     1       7.277   7.124  17.614  0.00  0.00    +0.000 N 
ATOM     31  O   UNL     1       7.779   6.371  18.449  0.00  0.00    +0.000 OA
ATOM     32  O   UNL     1       7.757   8.207  17.274  0.00  0.00    +0.000 OA
ENDBRANCH  24  30
ENDBRANCH  20  21
ENDBRANCH  19  20
ENDBRANCH  18  19
ENDBRANCH  17  18
ENDBRANCH   1  17
TORSDOF 13
ENDMDL
MODEL 9
REMARK VINA RESULT:      -6.9      3.967     11.745
REMARK  Name = 
REMARK  13 active torsions:
REMARK  status: ('A' for Active; 'I' for Inactive)
REMARK    1  A    between atoms: C_2  and  C_3
REMARK    2  A    between atoms: C_2  and  O_13
REMARK    3  A    between atoms: C_3  and  C_4
REMARK    4  A    between atoms: C_4  and  C_5
REMARK    5  A    between atoms: O_13  and  C_14
REMARK    6  A    between atoms: C_14  and  C_15
REMARK    7  A    between atoms: C_15  and  C_16
REMARK    8  A    between atoms: C_16  and  C_17
REMARK    9  A    between atoms: C_17  and  C_18
REMARK   10  A    between atoms: C_18  and  C_19
REMARK   11  A    between atoms: C_19  and  S_20
REMARK   12  A    between atoms: S_20  and  C_21
REMARK   13  A    between atoms: C_24  and  N_25
REMARK                            x       y       z     vdW  Elec       q    Type
REMARK                         _______ _______ _______ _____ _____    ______ ____
ROOT
ATOM      1  C   UNL     1       1.605   8.795  18.790  0.00  0.00    +0.000 C 
ENDROOT
BRANCH   1   2
ATOM      2  C   UNL     1       2.663   8.326  17.791  0.00  0.00    +0.000 C 
BRANCH   2   3
ATOM      3  C   UNL     1       3.282   6.981  18.153  0.00  0.00    +0.000 C 
BRANCH   3   4
ATOM      4  O   UNL     1       2.268   5.964  18.144  0.00  0.00    +0.000 OA
BRANCH   4   6
ATOM      5  O   UNL     1       2.148   5.632  20.416  0.00  0.00    +0.000 OA
ATOM      6  C   UNL     1       2.135   5.212  19.271  0.00  0.00    +0.000 C 
BRANCH   6   7
ATOM      7  C   UNL     1       2.088   3.740  18.906  0.00  0.00    +0.000 C 
BRANCH   7   8
ATOM      8  C   UNL     1       3.211   3.258  17.970  0.00  0.00    +0.000 C 
BRANCH   8   9
ATOM      9  C   UNL     1       4.639   3.548  18.443  0.00  0.00    +0.000 C 
ATOM     10  O   UNL     1       5.019   3.206  19.562  0.00  0.00    +0.000 OA
ATOM     11  N   UNL     1       5.465   4.278  17.575  0.00  0.00    +0.000 N 
ATOM     12  C   UNL     1       6.856   4.596  17.952  0.00  0.00    +0.000 C 
ATOM     13  C   UNL     1       7.354   5.914  17.321  0.00  0.00    +0.000 C 
ATOM     14  O   UNL     1       7.123   5.965  15.910  0.00  0.00    +0.000 OA
ATOM     15  C   UNL     1       5.743   5.772  15.576  0.00  0.00    +0.000 C 
ATOM     16  C   UNL     1       5.205   4.447  16.139  0.00  0.00    +0.000 C 
ENDBRANCH   8   9
ENDBRANCH   7   8
ENDBRANCH   6   7
ENDBRANCH   4   6
ENDBRANCH   3   4
ENDBRANCH   2   3
ENDBRANCH   1   2
BRANCH   1  17
ATOM     17  C   UNL     1       1.249  10.284  18.649  0.00  0.00    +0.000 C 
BRANCH  17  18
ATOM     18  C   UNL     1       0.670  10.915  19.921  0.00  0.00    +0.000 C 
BRANCH  18  19
ATOM     19  C   UNL     1       0.464  12.441  19.856  0.00  0.00    +0.000 C 
BRANCH  19  20
ATOM     20  S   UNL     1      -0.642  13.103  18.521  0.00  0.00    +0.000 S 
BRANCH  20  21
ATOM     21  C   UNL     1      -2.064  12.109  18.855  0.00  0.00    +0.000 A 
ATOM     22  C   UNL     1      -3.015  12.529  19.808  0.00  0.00    +0.000 A 
ATOM     23  C   UNL     1      -4.381  12.255  19.652  0.00  0.00    +0.000 A 
ATOM     24  C   UNL     1      -4.840  11.531  18.535  0.00  0.00    +0.000 A 
ATOM     25  C   UNL     1      -3.897  10.834  17.764  0.00  0.00    +0.000 A 
ATOM     26  N   UNL     1      -4.036   9.954  16.765  0.00  0.00    +0.000 NA
ATOM     27  O   UNL     1      -2.760   9.681  16.319  0.00  0.00    +0.000 OA
ATOM     28  N   UNL     1      -1.819  10.449  16.980  0.00  0.00    +0.000 NA
ATOM     29  C   UNL     1      -2.487  11.131  17.919  0.00  0.00    +0.000 A 
BRANCH  24  30
ATOM     30  N   UNL     1      -5.970  12.035  17.791  0.00  0.00    +0.000 N 
ATOM     31  O   UNL     1      -5.737  12.891  16.938  0.00  0.00    +0.000 OA
ATOM     32  O   UNL     1      -7.080  11.542  18.000  0.00  0.00    +0.000 OA
ENDBRANCH  24  30
ENDBRANCH  20  21
ENDBRANCH  19  20
ENDBRANCH  18  19
ENDBRANCH  17  18
ENDBRANCH   1  17
TORSDOF 13
ENDMDL
