MODEL 1
REMARK VINA RESULT:      -6.9      0.000      0.000
REMARK  Name = 
REMARK  15 active torsions:
REMARK  status: ('A' for Active; 'I' for Inactive)
REMARK    1  A    between atoms: C_1  and  O_2
REMARK    2  A    between atoms: O_2  and  C_3
REMARK    3  A    between atoms: C_6  and  C_7
REMARK    4  A    between atoms: C_8  and  C_9
REMARK    5  A    between atoms: C_9  and  C_11
REMARK    6  A    between atoms: C_12  and  O_13
REMARK    7  A    between atoms: C_14  and  O_15
REMARK    8  A    between atoms: O_15  and  C_16
REMARK    9  A    between atoms: C_17  and  O_18
REMARK   10  A    between atoms: O_18  and  C_19
REMARK   11  A    between atoms: C_20  and  O_21
REMARK   12  A    between atoms: O_21  and  C_22
REMARK   13  A    between atoms: C_23  and  O_24
REMARK   14  A    between atoms: O_24  and  C_25
REMARK   15  A    between atoms: C_27  and  O_28
REMARK                            x       y       z     vdW  Elec       q    Type
REMARK                         _______ _______ _______ _____ _____    ______ ____
ROOT
ATOM      1  C   UNL     1       9.207  12.544  18.521  0.00  0.00    +0.000 A 
ATOM      2  C   UNL     1       8.205  13.262  17.833  0.00  0.00    +0.000 A 
ATOM      3  C   UNL     1       7.773  14.519  18.268  0.00  0.00    +0.000 A 
ATOM      4  C   UNL     1       8.326  15.071  19.443  0.00  0.00    +0.000 A 
ATOM      5  C   UNL     1       9.312  14.365  20.177  0.00  0.00    +0.000 A 
ATOM      6  C   UNL     1       9.758  13.084  19.717  0.00  0.00    +0.000 A 
ENDROOT
BRANCH   1   7
ATOM      7  C   UNL     1       9.594  11.160  18.042  0.00  0.00    +0.000 C 
ATOM      8  O   UNL     1      10.644  10.936  17.471  0.00  0.00    +0.000 OA
BRANCH   7  10
ATOM      9  C   UNL     1       8.307   9.094  17.570  0.00  0.00    +0.000 C 
ATOM     10  C   UNL     1       8.688  10.034  18.461  0.00  0.00    +0.000 C 
BRANCH   9  14
ATOM     11  C   UNL     1       6.680   5.246  18.710  0.00  0.00    +0.000 A 
ATOM     12  C   UNL     1       6.135   5.959  17.641  0.00  0.00    +0.000 A 
ATOM     13  C   UNL     1       6.648   7.205  17.254  0.00  0.00    +0.000 A 
ATOM     14  C   UNL     1       7.723   7.777  17.932  0.00  0.00    +0.000 A 
ATOM     15  C   UNL     1       8.260   7.074  19.025  0.00  0.00    +0.000 A 
ATOM     16  C   UNL     1       7.745   5.823  19.411  0.00  0.00    +0.000 A 
BRANCH  11  18
ATOM     17  C   UNL     1       4.664   3.954  18.711  0.00  0.00    +0.000 C 
ATOM     18  O   UNL     1       6.066   4.041  18.919  0.00  0.00    +0.000 OA
ENDBRANCH  11  18
BRANCH  16  19
ATOM     19  O   UNL     1       8.302   5.191  20.490  0.00  0.00    +0.000 OA
ATOM     20  H   UNL     1       7.779   4.403  20.710  0.00  0.00    +0.000 HD
ENDBRANCH  16  19
ENDBRANCH   9  14
ENDBRANCH   7  10
ENDBRANCH   1   7
BRANCH   2  21
ATOM     21  O   UNL     1       7.586  12.736  16.724  0.00  0.00    +0.000 OA
ATOM     22  H   UNL     1       6.802  12.232  17.004  0.00  0.00    +0.000 HD
ENDBRANCH   2  21
BRANCH   3  23
ATOM     23  O   UNL     1       6.752  15.233  17.709  0.00  0.00    +0.000 OA
ATOM     24  C   UNL     1       5.391  14.956  17.987  0.00  0.00    +0.000 C 
ENDBRANCH   3  23
BRANCH   4  25
ATOM     25  O   UNL     1       7.847  16.254  19.971  0.00  0.00    +0.000 OA
ATOM     26  C   UNL     1       8.503  17.468  19.615  0.00  0.00    +0.000 C 
ENDBRANCH   4  25
BRANCH   5  27
ATOM     27  O   UNL     1       9.921  14.829  21.318  0.00  0.00    +0.000 OA
ATOM     28  C   UNL     1       9.357  14.601  22.601  0.00  0.00    +0.000 C 
ENDBRANCH   5  27
BRANCH   6  29
ATOM     29  O   UNL     1      10.778  12.360  20.290  0.00  0.00    +0.000 OA
ATOM     30  C   UNL     1      12.128  12.592  19.893  0.00  0.00    +0.000 C 
ENDBRANCH   6  29
TORSDOF 10
ENDMDL
MODEL 2
REMARK VINA RESULT:      -6.8      5.968      7.420
REMARK  Name = 
REMARK  15 active torsions:
REMARK  status: ('A' for Active; 'I' for Inactive)
REMARK    1  A    between atoms: C_1  and  O_2
REMARK    2  A    between atoms: O_2  and  C_3
REMARK    3  A    between atoms: C_6  and  C_7
REMARK    4  A    between atoms: C_8  and  C_9
REMARK    5  A    between atoms: C_9  and  C_11
REMARK    6  A    between atoms: C_12  and  O_13
REMARK    7  A    between atoms: C_14  and  O_15
REMARK    8  A    between atoms: O_15  and  C_16
REMARK    9  A    between atoms: C_17  and  O_18
REMARK   10  A    between atoms: O_18  and  C_19
REMARK   11  A    between atoms: C_20  and  O_21
REMARK   12  A    between atoms: O_21  and  C_22
REMARK   13  A    between atoms: C_23  and  O_24
REMARK   14  A    between atoms: O_24  and  C_25
REMARK   15  A    between atoms: C_27  and  O_28
REMARK                            x       y       z     vdW  Elec       q    Type
REMARK                         _______ _______ _______ _____ _____    ______ ____
ROOT
ATOM      1  C   UNL     1       1.018  10.845  19.192  0.00  0.00    +0.000 A 
ATOM      2  C   UNL     1       1.711  12.030  18.861  0.00  0.00    +0.000 A 
ATOM      3  C   UNL     1       1.865  13.072  19.781  0.00  0.00    +0.000 A 
ATOM      4  C   UNL     1       1.283  12.955  21.061  0.00  0.00    +0.000 A 
ATOM      5  C   UNL     1       0.553  11.793  21.418  0.00  0.00    +0.000 A 
ATOM      6  C   UNL     1       0.412  10.725  20.474  0.00  0.00    +0.000 A 
ENDROOT
BRANCH   1   7
ATOM      7  C   UNL     1       0.828   9.773  18.139  0.00  0.00    +0.000 C 
ATOM      8  O   UNL     1      -0.205   9.651  17.509  0.00  0.00    +0.000 OA
BRANCH   7  10
ATOM      9  C   UNL     1       2.237   7.741  18.319  0.00  0.00    +0.000 C 
ATOM     10  C   UNL     1       2.048   8.966  17.784  0.00  0.00    +0.000 C 
BRANCH   9  14
ATOM     11  C   UNL     1       4.940   4.711  16.813  0.00  0.00    +0.000 A 
ATOM     12  C   UNL     1       5.252   6.066  16.689  0.00  0.00    +0.000 A 
ATOM     13  C   UNL     1       4.392   7.063  17.172  0.00  0.00    +0.000 A 
ATOM     14  C   UNL     1       3.188   6.730  17.791  0.00  0.00    +0.000 A 
ATOM     15  C   UNL     1       2.858   5.367  17.895  0.00  0.00    +0.000 A 
ATOM     16  C   UNL     1       3.724   4.368  17.412  0.00  0.00    +0.000 A 
BRANCH  11  18
ATOM     17  C   UNL     1       6.168   3.925  14.913  0.00  0.00    +0.000 C 
ATOM     18  O   UNL     1       5.913   3.890  16.309  0.00  0.00    +0.000 OA
ENDBRANCH  11  18
BRANCH  16  19
ATOM     19  O   UNL     1       3.343   3.058  17.533  0.00  0.00    +0.000 OA
ATOM     20  H   UNL     1       3.528   2.750  18.435  0.00  0.00    +0.000 HD
ENDBRANCH  16  19
ENDBRANCH   9  14
ENDBRANCH   7  10
ENDBRANCH   1   7
BRANCH   2  21
ATOM     21  O   UNL     1       2.235  12.221  17.604  0.00  0.00    +0.000 OA
ATOM     22  H   UNL     1       1.521  12.482  16.996  0.00  0.00    +0.000 HD
ENDBRANCH   2  21
BRANCH   3  23
ATOM     23  O   UNL     1       2.444  14.278  19.508  0.00  0.00    +0.000 OA
ATOM     24  C   UNL     1       1.793  15.277  18.745  0.00  0.00    +0.000 C 
ENDBRANCH   3  23
BRANCH   4  25
ATOM     25  O   UNL     1       1.312  14.005  21.958  0.00  0.00    +0.000 OA
ATOM     26  C   UNL     1       0.201  14.897  21.991  0.00  0.00    +0.000 C 
ENDBRANCH   4  25
BRANCH   5  27
ATOM     27  O   UNL     1      -0.029  11.581  22.644  0.00  0.00    +0.000 OA
ATOM     28  C   UNL     1      -1.418  11.794  22.848  0.00  0.00    +0.000 C 
ENDBRANCH   5  27
BRANCH   6  29
ATOM     29  O   UNL     1      -0.184   9.516  20.748  0.00  0.00    +0.000 OA
ATOM     30  C   UNL     1       0.522   8.524  21.491  0.00  0.00    +0.000 C 
ENDBRANCH   6  29
TORSDOF 10
ENDMDL
MODEL 3
REMARK VINA RESULT:      -6.5      5.136      7.001
REMARK  Name = 
REMARK  15 active torsions:
REMARK  status: ('A' for Active; 'I' for Inactive)
REMARK    1  A    between atoms: C_1  and  O_2
REMARK    2  A    between atoms: O_2  and  C_3
REMARK    3  A    between atoms: C_6  and  C_7
REMARK    4  A    between atoms: C_8  and  C_9
REMARK    5  A    between atoms: C_9  and  C_11
REMARK    6  A    between atoms: C_12  and  O_13
REMARK    7  A    between atoms: C_14  and  O_15
REMARK    8  A    between atoms: O_15  and  C_16
REMARK    9  A    between atoms: C_17  and  O_18
REMARK   10  A    between atoms: O_18  and  C_19
REMARK   11  A    between atoms: C_20  and  O_21
REMARK   12  A    between atoms: O_21  and  C_22
REMARK   13  A    between atoms: C_23  and  O_24
REMARK   14  A    between atoms: O_24  and  C_25
REMARK   15  A    between atoms: C_27  and  O_28
REMARK                            x       y       z     vdW  Elec       q    Type
REMARK                         _______ _______ _______ _____ _____    ______ ____
ROOT
ATOM      1  C   UNL     1       1.249  11.242  19.033  0.00  0.00    +0.000 A 
ATOM      2  C   UNL     1       2.021  12.272  18.452  0.00  0.00    +0.000 A 
ATOM      3  C   UNL     1       2.263  13.475  19.123  0.00  0.00    +0.000 A 
ATOM      4  C   UNL     1       1.695  13.682  20.398  0.00  0.00    +0.000 A 
ATOM      5  C   UNL     1       0.888  12.682  20.999  0.00  0.00    +0.000 A 
ATOM      6  C   UNL     1       0.656  11.448  20.310  0.00  0.00    +0.000 A 
ENDROOT
BRANCH   1   7
ATOM      7  C   UNL     1       0.966   9.984  18.238  0.00  0.00    +0.000 C 
ATOM      8  O   UNL     1      -0.125   9.747  17.756  0.00  0.00    +0.000 OA
BRANCH   7  10
ATOM      9  C   UNL     1       2.215   7.847  18.392  0.00  0.00    +0.000 C 
ATOM     10  C   UNL     1       2.153   9.113  17.926  0.00  0.00    +0.000 C 
BRANCH   9  14
ATOM     11  C   UNL     1       4.825   4.726  16.910  0.00  0.00    +0.000 A 
ATOM     12  C   UNL     1       5.198   6.068  16.816  0.00  0.00    +0.000 A 
ATOM     13  C   UNL     1       4.369   7.094  17.292  0.00  0.00    +0.000 A 
ATOM     14  C   UNL     1       3.136   6.804  17.873  0.00  0.00    +0.000 A 
ATOM     15  C   UNL     1       2.745   5.456  17.947  0.00  0.00    +0.000 A 
ATOM     16  C   UNL     1       3.580   4.428  17.471  0.00  0.00    +0.000 A 
BRANCH  11  18
ATOM     17  C   UNL     1       6.071   3.917  15.031  0.00  0.00    +0.000 C 
ATOM     18  O   UNL     1       5.775   3.871  16.419  0.00  0.00    +0.000 OA
ENDBRANCH  11  18
BRANCH  16  19
ATOM     19  O   UNL     1       3.140   3.134  17.562  0.00  0.00    +0.000 OA
ATOM     20  H   UNL     1       2.615   2.914  16.775  0.00  0.00    +0.000 HD
ENDBRANCH  16  19
ENDBRANCH   9  14
ENDBRANCH   7  10
ENDBRANCH   1   7
BRANCH   2  21
ATOM     21  O   UNL     1       2.537  12.146  17.185  0.00  0.00    +0.000 OA
ATOM     22  H   UNL     1       2.570  11.203  16.944  0.00  0.00    +0.000 HD
ENDBRANCH   2  21
BRANCH   3  23
ATOM     23  O   UNL     1       2.924  14.546  18.595  0.00  0.00    +0.000 OA
ATOM     24  C   UNL     1       4.337  14.629  18.570  0.00  0.00    +0.000 C 
ENDBRANCH   3  23
BRANCH   4  25
ATOM     25  O   UNL     1       1.813  14.896  21.045  0.00  0.00    +0.000 OA
ATOM     26  C   UNL     1       2.883  15.069  21.970  0.00  0.00    +0.000 C 
ENDBRANCH   4  25
BRANCH   5  27
ATOM     27  O   UNL     1       0.311  12.785  22.241  0.00  0.00    +0.000 OA
ATOM     28  C   UNL     1      -0.983  13.343  22.410  0.00  0.00    +0.000 C 
ENDBRANCH   5  27
BRANCH   6  29
ATOM     29  O   UNL     1      -0.021  10.375  20.840  0.00  0.00    +0.000 OA
ATOM     30  C   UNL     1       0.652   9.461  21.704  0.00  0.00    +0.000 C 
ENDBRANCH   6  29
TORSDOF 10
ENDMDL
MODEL 4
REMARK VINA RESULT:      -6.5      6.163      7.667
REMARK  Name = 
REMARK  15 active torsions:
REMARK  status: ('A' for Active; 'I' for Inactive)
REMARK    1  A    between atoms: C_1  and  O_2
REMARK    2  A    between atoms: O_2  and  C_3
REMARK    3  A    between atoms: C_6  and  C_7
REMARK    4  A    between atoms: C_8  and  C_9
REMARK    5  A    between atoms: C_9  and  C_11
REMARK    6  A    between atoms: C_12  and  O_13
REMARK    7  A    between atoms: C_14  and  O_15
REMARK    8  A    between atoms: O_15  and  C_16
REMARK    9  A    between atoms: C_17  and  O_18
REMARK   10  A    between atoms: O_18  and  C_19
REMARK   11  A    between atoms: C_20  and  O_21
REMARK   12  A    between atoms: O_21  and  C_22
REMARK   13  A    between atoms: C_23  and  O_24
REMARK   14  A    between atoms: O_24  and  C_25
REMARK   15  A    between atoms: C_27  and  O_28
REMARK                            x       y       z     vdW  Elec       q    Type
REMARK                         _______ _______ _______ _____ _____    ______ ____
ROOT
ATOM      1  C   UNL     1       0.671  11.030  19.390  0.00  0.00    +0.000 A 
ATOM      2  C   UNL     1       1.227  12.291  19.083  0.00  0.00    +0.000 A 
ATOM      3  C   UNL     1       1.277  13.321  20.027  0.00  0.00    +0.000 A 
ATOM      4  C   UNL     1       0.727  13.111  21.309  0.00  0.00    +0.000 A 
ATOM      5  C   UNL     1       0.131  11.868  21.644  0.00  0.00    +0.000 A 
ATOM      6  C   UNL     1       0.097  10.814  20.674  0.00  0.00    +0.000 A 
ENDROOT
BRANCH   1   7
ATOM      7  C   UNL     1       0.586   9.969  18.312  0.00  0.00    +0.000 C 
ATOM      8  O   UNL     1      -0.399   9.822  17.616  0.00  0.00    +0.000 OA
BRANCH   7  10
ATOM      9  C   UNL     1       2.118   8.051  18.662  0.00  0.00    +0.000 C 
ATOM     10  C   UNL     1       1.855   9.211  18.025  0.00  0.00    +0.000 C 
BRANCH   9  14
ATOM     11  C   UNL     1       5.097   5.225  17.287  0.00  0.00    +0.000 A 
ATOM     12  C   UNL     1       4.353   4.968  18.440  0.00  0.00    +0.000 A 
ATOM     13  C   UNL     1       3.382   5.868  18.901  0.00  0.00    +0.000 A 
ATOM     14  C   UNL     1       3.131   7.059  18.220  0.00  0.00    +0.000 A 
ATOM     15  C   UNL     1       3.896   7.334  17.073  0.00  0.00    +0.000 A 
ATOM     16  C   UNL     1       4.868   6.428  16.611  0.00  0.00    +0.000 A 
BRANCH  11  18
ATOM     17  C   UNL     1       7.365   4.474  17.113  0.00  0.00    +0.000 C 
ATOM     18  O   UNL     1       5.974   4.219  16.981  0.00  0.00    +0.000 OA
ENDBRANCH  11  18
BRANCH  16  19
ATOM     19  O   UNL     1       5.588   6.755  15.493  0.00  0.00    +0.000 OA
ATOM     20  H   UNL     1       6.536   6.744  15.704  0.00  0.00    +0.000 HD
ENDBRANCH  16  19
ENDBRANCH   9  14
ENDBRANCH   7  10
ENDBRANCH   1   7
BRANCH   2  21
ATOM     21  O   UNL     1       1.712  12.568  17.827  0.00  0.00    +0.000 OA
ATOM     22  H   UNL     1       0.967  12.645  17.205  0.00  0.00    +0.000 HD
ENDBRANCH   2  21
BRANCH   3  23
ATOM     23  O   UNL     1       1.718  14.589  19.780  0.00  0.00    +0.000 OA
ATOM     24  C   UNL     1       0.950  15.532  19.053  0.00  0.00    +0.000 C 
ENDBRANCH   3  23
BRANCH   4  25
ATOM     25  O   UNL     1       0.651  14.136  22.232  0.00  0.00    +0.000 OA
ATOM     26  C   UNL     1      -0.556  14.889  22.310  0.00  0.00    +0.000 C 
ENDBRANCH   4  25
BRANCH   5  27
ATOM     27  O   UNL     1      -0.410  11.564  22.869  0.00  0.00    +0.000 OA
ATOM     28  C   UNL     1      -1.811  11.629  23.093  0.00  0.00    +0.000 C 
ENDBRANCH   5  27
BRANCH   6  29
ATOM     29  O   UNL     1      -0.361   9.541  20.922  0.00  0.00    +0.000 OA
ATOM     30  C   UNL     1       0.409   8.650  21.728  0.00  0.00    +0.000 C 
ENDBRANCH   6  29
TORSDOF 10
ENDMDL
MODEL 5
REMARK VINA RESULT:      -6.5      7.404      9.184
REMARK  Name = 
REMARK  15 active torsions:
REMARK  status: ('A' for Active; 'I' for Inactive)
REMARK    1  A    between atoms: C_1  and  O_2
REMARK    2  A    between atoms: O_2  and  C_3
REMARK    3  A    between atoms: C_6  and  C_7
REMARK    4  A    between atoms: C_8  and  C_9
REMARK    5  A    between atoms: C_9  and  C_11
REMARK    6  A    between atoms: C_12  and  O_13
REMARK    7  A    between atoms: C_14  and  O_15
REMARK    8  A    between atoms: O_15  and  C_16
REMARK    9  A    between atoms: C_17  and  O_18
REMARK   10  A    between atoms: O_18  and  C_19
REMARK   11  A    between atoms: C_20  and  O_21
REMARK   12  A    between atoms: O_21  and  C_22
REMARK   13  A    between atoms: C_23  and  O_24
REMARK   14  A    between atoms: O_24  and  C_25
REMARK   15  A    between atoms: C_27  and  O_28
REMARK                            x       y       z     vdW  Elec       q    Type
REMARK                         _______ _______ _______ _____ _____    ______ ____
ROOT
ATOM      1  C   UNL     1       0.032  10.295  21.358  0.00  0.00    +0.000 A 
ATOM      2  C   UNL     1      -0.762  10.790  22.415  0.00  0.00    +0.000 A 
ATOM      3  C   UNL     1      -1.731  11.777  22.205  0.00  0.00    +0.000 A 
ATOM      4  C   UNL     1      -1.898  12.317  20.912  0.00  0.00    +0.000 A 
ATOM      5  C   UNL     1      -1.096  11.866  19.833  0.00  0.00    +0.000 A 
ATOM      6  C   UNL     1      -0.116  10.846  20.055  0.00  0.00    +0.000 A 
ENDROOT
BRANCH   1   7
ATOM      7  C   UNL     1       1.109   9.270  21.652  0.00  0.00    +0.000 C 
ATOM      8  O   UNL     1       1.989   9.463  22.468  0.00  0.00    +0.000 OA
BRANCH   7  10
ATOM      9  C   UNL     1       1.930   7.390  20.259  0.00  0.00    +0.000 C 
ATOM     10  C   UNL     1       0.938   7.922  21.005  0.00  0.00    +0.000 C 
BRANCH   9  14
ATOM     11  C   UNL     1       2.134   3.188  19.233  0.00  0.00    +0.000 A 
ATOM     12  C   UNL     1       2.693   4.152  18.393  0.00  0.00    +0.000 A 
ATOM     13  C   UNL     1       2.640   5.518  18.707  0.00  0.00    +0.000 A 
ATOM     14  C   UNL     1       2.019   5.959  19.875  0.00  0.00    +0.000 A 
ATOM     15  C   UNL     1       1.433   4.993  20.712  0.00  0.00    +0.000 A 
ATOM     16  C   UNL     1       1.490   3.623  20.396  0.00  0.00    +0.000 A 
BRANCH  11  18
ATOM     17  C   UNL     1       3.595   1.537  18.298  0.00  0.00    +0.000 C 
ATOM     18  O   UNL     1       2.310   1.911  18.774  0.00  0.00    +0.000 OA
ENDBRANCH  11  18
BRANCH  16  19
ATOM     19  O   UNL     1       0.892   2.731  21.245  0.00  0.00    +0.000 OA
ATOM     20  H   UNL     1       1.320   2.777  22.116  0.00  0.00    +0.000 HD
ENDBRANCH  16  19
ENDBRANCH   9  14
ENDBRANCH   7  10
ENDBRANCH   1   7
BRANCH   2  21
ATOM     21  O   UNL     1      -0.590  10.346  23.704  0.00  0.00    +0.000 OA
ATOM     22  H   UNL     1      -1.213  10.811  24.290  0.00  0.00    +0.000 HD
ENDBRANCH   2  21
BRANCH   3  23
ATOM     23  O   UNL     1      -2.474  12.366  23.187  0.00  0.00    +0.000 OA
ATOM     24  C   UNL     1      -2.095  13.586  23.797  0.00  0.00    +0.000 C 
ENDBRANCH   3  23
BRANCH   4  25
ATOM     25  O   UNL     1      -2.760  13.371  20.684  0.00  0.00    +0.000 OA
ATOM     26  C   UNL     1      -4.097  13.079  20.287  0.00  0.00    +0.000 C 
ENDBRANCH   4  25
BRANCH   5  27
ATOM     27  O   UNL     1      -1.200  12.317  18.540  0.00  0.00    +0.000 OA
ATOM     28  C   UNL     1      -0.497  13.471  18.102  0.00  0.00    +0.000 C 
ENDBRANCH   5  27
BRANCH   6  29
ATOM     29  O   UNL     1       0.642  10.263  19.065  0.00  0.00    +0.000 OA
ATOM     30  C   UNL     1       1.815  10.918  18.586  0.00  0.00    +0.000 C 
ENDBRANCH   6  29
TORSDOF 10
ENDMDL
MODEL 6
REMARK VINA RESULT:      -6.4      2.388      8.692
REMARK  Name = 
REMARK  15 active torsions:
REMARK  status: ('A' for Active; 'I' for Inactive)
REMARK    1  A    between atoms: C_1  and  O_2
REMARK    2  A    between atoms: O_2  and  C_3
REMARK    3  A    between atoms: C_6  and  C_7
REMARK    4  A    between atoms: C_8  and  C_9
REMARK    5  A    between atoms: C_9  and  C_11
REMARK    6  A    between atoms: C_12  and  O_13
REMARK    7  A    between atoms: C_14  and  O_15
REMARK    8  A    between atoms: O_15  and  C_16
REMARK    9  A    between atoms: C_17  and  O_18
REMARK   10  A    between atoms: O_18  and  C_19
REMARK   11  A    between atoms: C_20  and  O_21
REMARK   12  A    between atoms: O_21  and  C_22
REMARK   13  A    between atoms: C_23  and  O_24
REMARK   14  A    between atoms: O_24  and  C_25
REMARK   15  A    between atoms: C_27  and  O_28
REMARK                            x       y       z     vdW  Elec       q    Type
REMARK                         _______ _______ _______ _____ _____    ______ ____
ROOT
ATOM      1  C   UNL     1       5.966   6.243  17.794  0.00  0.00    +0.000 A 
ATOM      2  C   UNL     1       4.678   6.773  17.565  0.00  0.00    +0.000 A 
ATOM      3  C   UNL     1       3.539   6.218  18.158  0.00  0.00    +0.000 A 
ATOM      4  C   UNL     1       3.674   5.078  18.979  0.00  0.00    +0.000 A 
ATOM      5  C   UNL     1       4.949   4.500  19.206  0.00  0.00    +0.000 A 
ATOM      6  C   UNL     1       6.111   5.083  18.606  0.00  0.00    +0.000 A 
ENDROOT
BRANCH   1   7
ATOM      7  C   UNL     1       7.158   6.846  17.079  0.00  0.00    +0.000 C 
ATOM      8  O   UNL     1       7.730   6.277  16.169  0.00  0.00    +0.000 OA
BRANCH   7  10
ATOM      9  C   UNL     1       8.325   8.533  18.471  0.00  0.00    +0.000 C 
ATOM     10  C   UNL     1       7.499   8.267  17.436  0.00  0.00    +0.000 C 
BRANCH   9  14
ATOM     11  C   UNL     1      10.288  12.317  19.234  0.00  0.00    +0.000 A 
ATOM     12  C   UNL     1      10.061  11.886  17.926  0.00  0.00    +0.000 A 
ATOM     13  C   UNL     1       9.425  10.666  17.657  0.00  0.00    +0.000 A 
ATOM     14  C   UNL     1       9.001   9.837  18.694  0.00  0.00    +0.000 A 
ATOM     15  C   UNL     1       9.250  10.255  20.013  0.00  0.00    +0.000 A 
ATOM     16  C   UNL     1       9.886  11.481  20.281  0.00  0.00    +0.000 A 
BRANCH  11  18
ATOM     17  C   UNL     1      10.090  14.701  19.126  0.00  0.00    +0.000 C 
ATOM     18  O   UNL     1      10.894  13.543  19.296  0.00  0.00    +0.000 OA
ENDBRANCH  11  18
BRANCH  16  19
ATOM     19  O   UNL     1      10.110  11.830  21.586  0.00  0.00    +0.000 OA
ATOM     20  H   UNL     1       9.268  12.070  22.006  0.00  0.00    +0.000 HD
ENDBRANCH  16  19
ENDBRANCH   9  14
ENDBRANCH   7  10
ENDBRANCH   1   7
BRANCH   2  21
ATOM     21  O   UNL     1       4.486   7.839  16.718  0.00  0.00    +0.000 OA
ATOM     22  H   UNL     1       4.412   8.656  17.243  0.00  0.00    +0.000 HD
ENDBRANCH   2  21
BRANCH   3  23
ATOM     23  O   UNL     1       2.257   6.618  17.917  0.00  0.00    +0.000 OA
ATOM     24  C   UNL     1       1.755   7.866  18.360  0.00  0.00    +0.000 C 
ENDBRANCH   3  23
BRANCH   4  25
ATOM     25  O   UNL     1       2.567   4.430  19.489  0.00  0.00    +0.000 OA
ATOM     26  C   UNL     1       2.087   4.819  20.774  0.00  0.00    +0.000 C 
ENDBRANCH   4  25
BRANCH   5  27
ATOM     27  O   UNL     1       5.180   3.405  20.004  0.00  0.00    +0.000 OA
ATOM     28  C   UNL     1       4.532   2.166  19.762  0.00  0.00    +0.000 C 
ENDBRANCH   5  27
BRANCH   6  29
ATOM     29  O   UNL     1       7.401   4.670  18.840  0.00  0.00    +0.000 OA
ATOM     30  C   UNL     1       8.168   5.276  19.878  0.00  0.00    +0.000 C 
ENDBRANCH   6  29
TORSDOF 10
ENDMDL
MODEL 7
REMARK VINA RESULT:      -6.4      4.942      6.834
REMARK  Name = 
REMARK  15 active torsions:
REMARK  status: ('A' for Active; 'I' for Inactive)
REMARK    1  A    between atoms: C_1  and  O_2
REMARK    2  A    between atoms: O_2  and  C_3
REMARK    3  A    between atoms: C_6  and  C_7
REMARK    4  A    between atoms: C_8  and  C_9
REMARK    5  A    between atoms: C_9  and  C_11
REMARK    6  A    between atoms: C_12  and  O_13
REMARK    7  A    between atoms: C_14  and  O_15
REMARK    8  A    between atoms: O_15  and  C_16
REMARK    9  A    between atoms: C_17  and  O_18
REMARK   10  A    between atoms: O_18  and  C_19
REMARK   11  A    between atoms: C_20  and  O_21
REMARK   12  A    between atoms: O_21  and  C_22
REMARK   13  A    between atoms: C_23  and  O_24
REMARK   14  A    between atoms: O_24  and  C_25
REMARK   15  A    between atoms: C_27  and  O_28
REMARK                            x       y       z     vdW  Elec       q    Type
REMARK                         _______ _______ _______ _____ _____    ______ ____
ROOT
ATOM      1  C   UNL     1       1.176  12.220  19.340  0.00  0.00    +0.000 A 
ATOM      2  C   UNL     1       2.198  12.758  18.528  0.00  0.00    +0.000 A 
ATOM      3  C   UNL     1       2.987  13.831  18.955  0.00  0.00    +0.000 A 
ATOM      4  C   UNL     1       2.735  14.415  20.215  0.00  0.00    +0.000 A 
ATOM      5  C   UNL     1       1.696  13.921  21.044  0.00  0.00    +0.000 A 
ATOM      6  C   UNL     1       0.902  12.814  20.604  0.00  0.00    +0.000 A 
ENDROOT
BRANCH   1   7
ATOM      7  C   UNL     1       0.311  11.098  18.804  0.00  0.00    +0.000 C 
ATOM      8  O   UNL     1      -0.652  11.299  18.090  0.00  0.00    +0.000 OA
BRANCH   7  10
ATOM      9  C   UNL     1       1.601   9.079  18.164  0.00  0.00    +0.000 C 
ATOM     10  C   UNL     1       0.804   9.699  19.060  0.00  0.00    +0.000 C 
BRANCH   9  14
ATOM     11  C   UNL     1       3.923   5.548  19.109  0.00  0.00    +0.000 A 
ATOM     12  C   UNL     1       4.183   6.280  17.949  0.00  0.00    +0.000 A 
ATOM     13  C   UNL     1       3.446   7.428  17.626  0.00  0.00    +0.000 A 
ATOM     14  C   UNL     1       2.418   7.874  18.455  0.00  0.00    +0.000 A 
ATOM     15  C   UNL     1       2.135   7.125  19.611  0.00  0.00    +0.000 A 
ATOM     16  C   UNL     1       2.879   5.975  19.935  0.00  0.00    +0.000 A 
BRANCH  11  18
ATOM     17  C   UNL     1       4.285   3.188  18.921  0.00  0.00    +0.000 C 
ATOM     18  O   UNL     1       4.763   4.479  19.267  0.00  0.00    +0.000 OA
ENDBRANCH  11  18
BRANCH  16  19
ATOM     19  O   UNL     1       2.550   5.282  21.070  0.00  0.00    +0.000 OA
ATOM     20  H   UNL     1       1.697   5.599  21.407  0.00  0.00    +0.000 HD
ENDBRANCH  16  19
ENDBRANCH   9  14
ENDBRANCH   7  10
ENDBRANCH   1   7
BRANCH   2  21
ATOM     21  O   UNL     1       2.436  12.270  17.266  0.00  0.00    +0.000 OA
ATOM     22  H   UNL     1       3.394  12.276  17.095  0.00  0.00    +0.000 HD
ENDBRANCH   2  21
BRANCH   3  23
ATOM     23  O   UNL     1       3.932  14.459  18.196  0.00  0.00    +0.000 OA
ATOM     24  C   UNL     1       3.617  15.534  17.329  0.00  0.00    +0.000 C 
ENDBRANCH   3  23
BRANCH   4  25
ATOM     25  O   UNL     1       3.412  15.547  20.626  0.00  0.00    +0.000 OA
ATOM     26  C   UNL     1       4.570  15.384  21.441  0.00  0.00    +0.000 C 
ENDBRANCH   4  25
BRANCH   5  27
ATOM     27  O   UNL     1       1.391  14.411  22.291  0.00  0.00    +0.000 OA
ATOM     28  C   UNL     1       0.550  15.543  22.453  0.00  0.00    +0.000 C 
ENDBRANCH   5  27
BRANCH   6  29
ATOM     29  O   UNL     1      -0.058  12.191  21.366  0.00  0.00    +0.000 OA
ATOM     30  C   UNL     1      -1.407  12.654  21.333  0.00  0.00    +0.000 C 
ENDBRANCH   6  29
TORSDOF 10
ENDMDL
MODEL 8
REMARK VINA RESULT:      -6.4      2.538      9.313
REMARK  Name = 
REMARK  15 active torsions:
REMARK  status: ('A' for Active; 'I' for Inactive)
REMARK    1  A    between atoms: C_1  and  O_2
REMARK    2  A    between atoms: O_2  and  C_3
REMARK    3  A    between atoms: C_6  and  C_7
REMARK    4  A    between atoms: C_8  and  C_9
REMARK    5  A    between atoms: C_9  and  C_11
REMARK    6  A    between atoms: C_12  and  O_13
REMARK    7  A    between atoms: C_14  and  O_15
REMARK    8  A    between atoms: O_15  and  C_16
REMARK    9  A    between atoms: C_17  and  O_18
REMARK   10  A    between atoms: O_18  and  C_19
REMARK   11  A    between atoms: C_20  and  O_21
REMARK   12  A    between atoms: O_21  and  C_22
REMARK   13  A    between atoms: C_23  and  O_24
REMARK   14  A    between atoms: O_24  and  C_25
REMARK   15  A    between atoms: C_27  and  O_28
REMARK                            x       y       z     vdW  Elec       q    Type
REMARK                         _______ _______ _______ _____ _____    ______ ____
ROOT
ATOM      1  C   UNL     1       5.152   5.929  18.057  0.00  0.00    +0.000 A 
ATOM      2  C   UNL     1       5.410   4.630  18.549  0.00  0.00    +0.000 A 
ATOM      3  C   UNL     1       4.508   3.972  19.391  0.00  0.00    +0.000 A 
ATOM      4  C   UNL     1       3.326   4.632  19.789  0.00  0.00    +0.000 A 
ATOM      5  C   UNL     1       3.049   5.949  19.340  0.00  0.00    +0.000 A 
ATOM      6  C   UNL     1       3.972   6.610  18.467  0.00  0.00    +0.000 A 
ENDROOT
BRANCH   1   7
ATOM      7  C   UNL     1       6.190   6.620  17.198  0.00  0.00    +0.000 C 
ATOM      8  O   UNL     1       6.149   6.605  15.983  0.00  0.00    +0.000 OA
BRANCH   7  10
ATOM      9  C   UNL     1       7.699   8.583  17.338  0.00  0.00    +0.000 C 
ATOM     10  C   UNL     1       7.190   7.478  17.925  0.00  0.00    +0.000 C 
BRANCH   9  14
ATOM     11  C   UNL     1       9.713  11.835  19.367  0.00  0.00    +0.000 A 
ATOM     12  C   UNL     1       9.694  10.555  19.923  0.00  0.00    +0.000 A 
ATOM     13  C   UNL     1       9.050   9.487  19.281  0.00  0.00    +0.000 A 
ATOM     14  C   UNL     1       8.400   9.674  18.062  0.00  0.00    +0.000 A 
ATOM     15  C   UNL     1       8.395  10.967  17.511  0.00  0.00    +0.000 A 
ATOM     16  C   UNL     1       9.044  12.036  18.156  0.00  0.00    +0.000 A 
BRANCH  11  18
ATOM     17  C   UNL     1       9.749  13.364  21.210  0.00  0.00    +0.000 C 
ATOM     18  O   UNL     1      10.413  12.736  20.124  0.00  0.00    +0.000 OA
ENDBRANCH  11  18
BRANCH  16  19
ATOM     19  O   UNL     1       8.997  13.276  17.575  0.00  0.00    +0.000 OA
ATOM     20  H   UNL     1       9.022  13.182  16.609  0.00  0.00    +0.000 HD
ENDBRANCH  16  19
ENDBRANCH   9  14
ENDBRANCH   7  10
ENDBRANCH   1   7
BRANCH   2  21
ATOM     21  O   UNL     1       6.579   3.973  18.246  0.00  0.00    +0.000 OA
ATOM     22  H   UNL     1       7.190   4.591  17.809  0.00  0.00    +0.000 HD
ENDBRANCH   2  21
BRANCH   3  23
ATOM     23  O   UNL     1       4.726   2.757  19.974  0.00  0.00    +0.000 OA
ATOM     24  C   UNL     1       4.331   1.541  19.365  0.00  0.00    +0.000 C 
ENDBRANCH   3  23
BRANCH   4  25
ATOM     25  O   UNL     1       2.466   4.065  20.709  0.00  0.00    +0.000 OA
ATOM     26  C   UNL     1       1.288   3.424  20.229  0.00  0.00    +0.000 C 
ENDBRANCH   4  25
BRANCH   5  27
ATOM     27  O   UNL     1       1.919   6.661  19.658  0.00  0.00    +0.000 OA
ATOM     28  C   UNL     1       1.821   7.388  20.873  0.00  0.00    +0.000 C 
ENDBRANCH   5  27
BRANCH   6  29
ATOM     29  O   UNL     1       3.756   7.840  17.891  0.00  0.00    +0.000 OA
ATOM     30  C   UNL     1       2.440   8.222  17.495  0.00  0.00    +0.000 C 
ENDBRANCH   6  29
TORSDOF 10
ENDMDL
MODEL 9
REMARK VINA RESULT:      -6.3      7.645      9.124
REMARK  Name = 
REMARK  15 active torsions:
REMARK  status: ('A' for Active; 'I' for Inactive)
REMARK    1  A    between atoms: C_1  and  O_2
REMARK    2  A    between atoms: O_2  and  C_3
REMARK    3  A    between atoms: C_6  and  C_7
REMARK    4  A    between atoms: C_8  and  C_9
REMARK    5  A    between atoms: C_9  and  C_11
REMARK    6  A    between atoms: C_12  and  O_13
REMARK    7  A    between atoms: C_14  and  O_15
REMARK    8  A    between atoms: O_15  and  C_16
REMARK    9  A    between atoms: C_17  and  O_18
REMARK   10  A    between atoms: O_18  and  C_19
REMARK   11  A    between atoms: C_20  and  O_21
REMARK   12  A    between atoms: O_21  and  C_22
REMARK   13  A    between atoms: C_23  and  O_24
REMARK   14  A    between atoms: O_24  and  C_25
REMARK   15  A    between atoms: C_27  and  O_28
REMARK                            x       y       z     vdW  Elec       q    Type
REMARK                         _______ _______ _______ _____ _____    ______ ____
ROOT
ATOM      1  C   UNL     1       0.120  10.337  21.494  0.00  0.00    +0.000 A 
ATOM      2  C   UNL     1      -0.810  10.686  22.497  0.00  0.00    +0.000 A 
ATOM      3  C   UNL     1      -1.782  11.670  22.287  0.00  0.00    +0.000 A 
ATOM      4  C   UNL     1      -1.815  12.357  21.055  0.00  0.00    +0.000 A 
ATOM      5  C   UNL     1      -0.877  12.054  20.035  0.00  0.00    +0.000 A 
ATOM      6  C   UNL     1       0.107  11.036  20.255  0.00  0.00    +0.000 A 
ENDROOT
BRANCH   1   7
ATOM      7  C   UNL     1       1.190   9.309  21.795  0.00  0.00    +0.000 C 
ATOM      8  O   UNL     1       2.062   9.495  22.622  0.00  0.00    +0.000 OA
BRANCH   7  10
ATOM      9  C   UNL     1       1.960   7.500  20.284  0.00  0.00    +0.000 C 
ATOM     10  C   UNL     1       1.024   7.964  21.139  0.00  0.00    +0.000 C 
BRANCH   9  14
ATOM     11  C   UNL     1       2.375   3.398  18.957  0.00  0.00    +0.000 A 
ATOM     12  C   UNL     1       1.738   3.694  20.163  0.00  0.00    +0.000 A 
ATOM     13  C   UNL     1       1.591   5.015  20.610  0.00  0.00    +0.000 A 
ATOM     14  C   UNL     1       2.083   6.082  19.860  0.00  0.00    +0.000 A 
ATOM     15  C   UNL     1       2.747   5.787  18.657  0.00  0.00    +0.000 A 
ATOM     16  C   UNL     1       2.892   4.461  18.209  0.00  0.00    +0.000 A 
BRANCH  11  18
ATOM     17  C   UNL     1       3.645   1.385  18.702  0.00  0.00    +0.000 C 
ATOM     18  O   UNL     1       2.396   2.059  18.677  0.00  0.00    +0.000 OA
ENDBRANCH  11  18
BRANCH  16  19
ATOM     19  O   UNL     1       3.556   4.237  17.033  0.00  0.00    +0.000 OA
ATOM     20  H   UNL     1       3.290   3.376  16.670  0.00  0.00    +0.000 HD
ENDBRANCH  16  19
ENDBRANCH   9  14
ENDBRANCH   7  10
ENDBRANCH   1   7
BRANCH   2  21
ATOM     21  O   UNL     1      -0.774  10.096  23.738  0.00  0.00    +0.000 OA
ATOM     22  H   UNL     1      -0.463   9.178  23.648  0.00  0.00    +0.000 HD
ENDBRANCH   2  21
BRANCH   3  23
ATOM     23  O   UNL     1      -2.656  12.122  23.234  0.00  0.00    +0.000 OA
ATOM     24  C   UNL     1      -2.453  13.333  23.937  0.00  0.00    +0.000 C 
ENDBRANCH   3  23
BRANCH   4  25
ATOM     25  O   UNL     1      -2.682  13.411  20.848  0.00  0.00    +0.000 OA
ATOM     26  C   UNL     1      -3.983  13.129  20.340  0.00  0.00    +0.000 C 
ENDBRANCH   4  25
BRANCH   5  27
ATOM     27  O   UNL     1      -0.844  12.654  18.800  0.00  0.00    +0.000 OA
ATOM     28  C   UNL     1      -0.075  13.825  18.568  0.00  0.00    +0.000 C 
ENDBRANCH   5  27
BRANCH   6  29
ATOM     29  O   UNL     1       0.995  10.592  19.303  0.00  0.00    +0.000 OA
ATOM     30  C   UNL     1       0.518   9.918  18.141  0.00  0.00    +0.000 C 
ENDBRANCH   6  29
TORSDOF 10
ENDMDL
