MODEL 1
REMARK VINA RESULT:      -7.9      0.000      0.000
REMARK  Name = 
REMARK  13 active torsions:
REMARK  status: ('A' for Active; 'I' for Inactive)
REMARK    1  A    between atoms: C_1  and  O_2
REMARK    2  A    between atoms: O_2  and  C_3
REMARK    3  A    between atoms: C_6  and  C_7
REMARK    4  A    between atoms: N_8  and  N_9
REMARK    5  A    between atoms: C_10  and  C_12
REMARK    6  A    between atoms: C_12  and  O_13
REMARK    7  A    between atoms: O_13  and  C_14
REMARK    8  A    between atoms: C_16  and  C_17
REMARK    9  A    between atoms: C_19  and  C_20
REMARK   10  A    between atoms: C_23  and  C_24
REMARK   11  A    between atoms: C_24  and  O_25
REMARK   12  A    between atoms: O_25  and  C_26
REMARK   13  A    between atoms: C_26  and  C_27
REMARK                            x       y       z     vdW  Elec       q    Type
REMARK                         _______ _______ _______ _____ _____    ______ ____
ROOT
ATOM      1  C   UNL     1       2.935   8.359  17.980  0.00  0.00    +0.000 C 
ATOM      2  N   UNL     1       1.797   8.977  17.910  0.00  0.00    +0.000 NA
ENDROOT
BRANCH   1   6
ATOM      3  C   UNL     1       3.227   4.118  17.601  0.00  0.00    +0.000 A 
ATOM      4  C   UNL     1       2.039   4.718  18.051  0.00  0.00    +0.000 A 
ATOM      5  C   UNL     1       1.942   6.099  18.203  0.00  0.00    +0.000 A 
ATOM      6  C   UNL     1       3.037   6.893  17.885  0.00  0.00    +0.000 A 
ATOM      7  C   UNL     1       4.225   6.317  17.430  0.00  0.00    +0.000 A 
ATOM      8  C   UNL     1       4.335   4.922  17.291  0.00  0.00    +0.000 A 
BRANCH   3  10
ATOM      9  C   UNL     1       2.576   1.953  18.276  0.00  0.00    +0.000 C 
ATOM     10  O   UNL     1       3.367   2.767  17.429  0.00  0.00    +0.000 OA
ENDBRANCH   3  10
BRANCH   8  11
ATOM     11  C   UNL     1       5.639   4.340  16.767  0.00  0.00    +0.000 C 
BRANCH  11  12
ATOM     12  O   UNL     1       6.750   5.253  16.752  0.00  0.00    +0.000 OA
BRANCH  12  13
ATOM     13  C   UNL     1       7.673   5.031  17.716  0.00  0.00    +0.000 C 
ATOM     14  C   UNL     1       7.713   6.132  18.731  0.00  0.00    +0.000 C 
ATOM     15  O   UNL     1       8.398   4.051  17.779  0.00  0.00    +0.000 OA
ENDBRANCH  12  13
ENDBRANCH  11  12
ENDBRANCH   8  11
ENDBRANCH   1   6
BRANCH   2  16
ATOM     16  N   UNL     1       1.858  10.333  18.126  0.00  0.00    +0.000 N 
ATOM     17  C   UNL     1       0.809  11.111  18.591  0.00  0.00    +0.000 C 
ATOM     18  O   UNL     1       0.862  12.337  18.471  0.00  0.00    +0.000 OA
ATOM     19  H   UNL     1       2.468  10.843  17.492  0.00  0.00    +0.000 HD
BRANCH  17  20
ATOM     20  C   UNL     1      -0.402  10.417  19.206  0.00  0.00    +0.000 C 
BRANCH  20  21
ATOM     21  O   UNL     1      -1.513  11.310  19.281  0.00  0.00    +0.000 OA
BRANCH  21  22
ATOM     22  C   UNL     1      -2.445  11.212  18.280  0.00  0.00    +0.000 A 
ATOM     23  C   UNL     1      -2.209  10.650  17.027  0.00  0.00    +0.000 A 
ATOM     24  C   UNL     1      -3.216  10.610  16.057  0.00  0.00    +0.000 A 
ATOM     25  C   UNL     1      -2.908  10.066  14.692  0.00  0.00    +0.000 C 
ATOM     26  C   UNL     1      -4.485  11.113  16.363  0.00  0.00    +0.000 A 
ATOM     27  C   UNL     1      -4.747  11.669  17.622  0.00  0.00    +0.000 A 
ATOM     28  C   UNL     1      -6.097  12.251  17.929  0.00  0.00    +0.000 C 
ATOM     29  C   UNL     1      -3.716  11.719  18.574  0.00  0.00    +0.000 A 
ENDBRANCH  21  22
ENDBRANCH  20  21
ENDBRANCH  17  20
ENDBRANCH   2  16
TORSDOF 9
ENDMDL
MODEL 2
REMARK VINA RESULT:      -7.8      1.851      3.403
REMARK  Name = 
REMARK  13 active torsions:
REMARK  status: ('A' for Active; 'I' for Inactive)
REMARK    1  A    between atoms: C_1  and  O_2
REMARK    2  A    between atoms: O_2  and  C_3
REMARK    3  A    between atoms: C_6  and  C_7
REMARK    4  A    between atoms: N_8  and  N_9
REMARK    5  A    between atoms: C_10  and  C_12
REMARK    6  A    between atoms: C_12  and  O_13
REMARK    7  A    between atoms: O_13  and  C_14
REMARK    8  A    between atoms: C_16  and  C_17
REMARK    9  A    between atoms: C_19  and  C_20
REMARK   10  A    between atoms: C_23  and  C_24
REMARK   11  A    between atoms: C_24  and  O_25
REMARK   12  A    between atoms: O_25  and  C_26
REMARK   13  A    between atoms: C_26  and  C_27
REMARK                            x       y       z     vdW  Elec       q    Type
REMARK                         _______ _______ _______ _____ _____    ______ ____
ROOT
ATOM      1  C   UNL     1       1.935   9.672  17.890  0.00  0.00    +0.000 C 
ATOM      2  N   UNL     1       1.590  10.442  18.875  0.00  0.00    +0.000 NA
ENDROOT
BRANCH   1   6
ATOM      3  C   UNL     1       3.509   5.769  18.599  0.00  0.00    +0.000 A 
ATOM      4  C   UNL     1       3.951   6.533  17.506  0.00  0.00    +0.000 A 
ATOM      5  C   UNL     1       3.425   7.797  17.251  0.00  0.00    +0.000 A 
ATOM      6  C   UNL     1       2.460   8.313  18.107  0.00  0.00    +0.000 A 
ATOM      7  C   UNL     1       2.011   7.573  19.202  0.00  0.00    +0.000 A 
ATOM      8  C   UNL     1       2.525   6.288  19.455  0.00  0.00    +0.000 A 
BRANCH   3  10
ATOM      9  C   UNL     1       5.398   4.453  19.116  0.00  0.00    +0.000 C 
ATOM     10  O   UNL     1       4.001   4.525  18.894  0.00  0.00    +0.000 OA
ENDBRANCH   3  10
BRANCH   8  11
ATOM     11  C   UNL     1       2.027   5.527  20.674  0.00  0.00    +0.000 C 
BRANCH  11  12
ATOM     12  O   UNL     1       0.859   4.718  20.450  0.00  0.00    +0.000 OA
BRANCH  12  13
ATOM     13  C   UNL     1       1.101   3.388  20.383  0.00  0.00    +0.000 C 
ATOM     14  C   UNL     1       2.013   2.919  21.474  0.00  0.00    +0.000 C 
ATOM     15  O   UNL     1       0.634   2.633  19.544  0.00  0.00    +0.000 OA
ENDBRANCH  12  13
ENDBRANCH  11  12
ENDBRANCH   8  11
ENDBRANCH   1   6
BRANCH   2  16
ATOM     16  N   UNL     1       1.224  11.717  18.516  0.00  0.00    +0.000 N 
ATOM     17  C   UNL     1      -0.033  12.267  18.708  0.00  0.00    +0.000 C 
ATOM     18  O   UNL     1      -0.350  13.290  18.097  0.00  0.00    +0.000 OA
ATOM     19  H   UNL     1       1.682  12.078  17.682  0.00  0.00    +0.000 HD
BRANCH  17  20
ATOM     20  C   UNL     1      -1.005  11.563  19.648  0.00  0.00    +0.000 C 
BRANCH  20  21
ATOM     21  O   UNL     1      -1.540  10.388  19.038  0.00  0.00    +0.000 OA
BRANCH  21  22
ATOM     22  C   UNL     1      -2.412  10.582  17.998  0.00  0.00    +0.000 A 
ATOM     23  C   UNL     1      -2.216  10.115  16.700  0.00  0.00    +0.000 A 
ATOM     24  C   UNL     1      -3.152  10.376  15.694  0.00  0.00    +0.000 A 
ATOM     25  C   UNL     1      -2.876   9.922  14.289  0.00  0.00    +0.000 C 
ATOM     26  C   UNL     1      -4.314  11.090  16.006  0.00  0.00    +0.000 A 
ATOM     27  C   UNL     1      -4.537  11.557  17.308  0.00  0.00    +0.000 A 
ATOM     28  C   UNL     1      -5.762  12.364  17.626  0.00  0.00    +0.000 C 
ATOM     29  C   UNL     1      -3.574  11.301  18.298  0.00  0.00    +0.000 A 
ENDBRANCH  21  22
ENDBRANCH  20  21
ENDBRANCH  17  20
ENDBRANCH   2  16
TORSDOF 9
ENDMDL
MODEL 3
REMARK VINA RESULT:      -7.8      1.687      2.477
REMARK  Name = 
REMARK  13 active torsions:
REMARK  status: ('A' for Active; 'I' for Inactive)
REMARK    1  A    between atoms: C_1  and  O_2
REMARK    2  A    between atoms: O_2  and  C_3
REMARK    3  A    between atoms: C_6  and  C_7
REMARK    4  A    between atoms: N_8  and  N_9
REMARK    5  A    between atoms: C_10  and  C_12
REMARK    6  A    between atoms: C_12  and  O_13
REMARK    7  A    between atoms: O_13  and  C_14
REMARK    8  A    between atoms: C_16  and  C_17
REMARK    9  A    between atoms: C_19  and  C_20
REMARK   10  A    between atoms: C_23  and  C_24
REMARK   11  A    between atoms: C_24  and  O_25
REMARK   12  A    between atoms: O_25  and  C_26
REMARK   13  A    between atoms: C_26  and  C_27
REMARK                            x       y       z     vdW  Elec       q    Type
REMARK                         _______ _______ _______ _____ _____    ______ ____
ROOT
ATOM      1  C   UNL     1       1.818   6.860  20.977  0.00  0.00    +0.000 C 
ATOM      2  N   UNL     1       1.458   7.982  20.435  0.00  0.00    +0.000 NA
ENDROOT
BRANCH   1   6
ATOM      3  C   UNL     1       2.857   3.504  18.554  0.00  0.00    +0.000 A 
ATOM      4  C   UNL     1       1.662   3.513  19.291  0.00  0.00    +0.000 A 
ATOM      5  C   UNL     1       1.326   4.593  20.106  0.00  0.00    +0.000 A 
ATOM      6  C   UNL     1       2.184   5.683  20.170  0.00  0.00    +0.000 A 
ATOM      7  C   UNL     1       3.374   5.696  19.441  0.00  0.00    +0.000 A 
ATOM      8  C   UNL     1       3.728   4.602  18.631  0.00  0.00    +0.000 A 
BRANCH   3  10
ATOM      9  C   UNL     1       3.688   1.301  18.390  0.00  0.00    +0.000 C 
ATOM     10  O   UNL     1       3.226   2.469  17.735  0.00  0.00    +0.000 OA
ENDBRANCH   3  10
BRANCH   8  11
ATOM     11  C   UNL     1       5.021   4.670  17.833  0.00  0.00    +0.000 C 
BRANCH  11  12
ATOM     12  O   UNL     1       6.211   4.352  18.576  0.00  0.00    +0.000 OA
BRANCH  12  13
ATOM     13  C   UNL     1       7.354   4.841  18.042  0.00  0.00    +0.000 C 
ATOM     14  C   UNL     1       7.629   6.248  18.476  0.00  0.00    +0.000 C 
ATOM     15  O   UNL     1       8.099   4.224  17.297  0.00  0.00    +0.000 OA
ENDBRANCH  12  13
ENDBRANCH  11  12
ENDBRANCH   8  11
ENDBRANCH   1   6
BRANCH   2  16
ATOM     16  N   UNL     1       1.043   8.948  21.319  0.00  0.00    +0.000 N 
ATOM     17  C   UNL     1       0.671  10.237  20.971  0.00  0.00    +0.000 C 
ATOM     18  O   UNL     1       0.603  11.107  21.842  0.00  0.00    +0.000 OA
ATOM     19  H   UNL     1       1.475   8.905  22.239  0.00  0.00    +0.000 HD
BRANCH  17  20
ATOM     20  C   UNL     1       0.393  10.549  19.504  0.00  0.00    +0.000 C 
BRANCH  20  21
ATOM     21  O   UNL     1      -0.432  11.707  19.379  0.00  0.00    +0.000 OA
BRANCH  21  22
ATOM     22  C   UNL     1      -1.657  11.524  18.792  0.00  0.00    +0.000 A 
ATOM     23  C   UNL     1      -2.858  12.030  19.286  0.00  0.00    +0.000 A 
ATOM     24  C   UNL     1      -4.067  11.778  18.629  0.00  0.00    +0.000 A 
ATOM     25  C   UNL     1      -5.352  12.275  19.227  0.00  0.00    +0.000 C 
ATOM     26  C   UNL     1      -4.063  11.033  17.445  0.00  0.00    +0.000 A 
ATOM     27  C   UNL     1      -2.865  10.527  16.924  0.00  0.00    +0.000 A 
ATOM     28  C   UNL     1      -2.873   9.688  15.679  0.00  0.00    +0.000 C 
ATOM     29  C   UNL     1      -1.665  10.775  17.611  0.00  0.00    +0.000 A 
ENDBRANCH  21  22
ENDBRANCH  20  21
ENDBRANCH  17  20
ENDBRANCH   2  16
TORSDOF 9
ENDMDL
MODEL 4
REMARK VINA RESULT:      -7.8      1.240      2.291
REMARK  Name = 
REMARK  13 active torsions:
REMARK  status: ('A' for Active; 'I' for Inactive)
REMARK    1  A    between atoms: C_1  and  O_2
REMARK    2  A    between atoms: O_2  and  C_3
REMARK    3  A    between atoms: C_6  and  C_7
REMARK    4  A    between atoms: N_8  and  N_9
REMARK    5  A    between atoms: C_10  and  C_12
REMARK    6  A    between atoms: C_12  and  O_13
REMARK    7  A    between atoms: O_13  and  C_14
REMARK    8  A    between atoms: C_16  and  C_17
REMARK    9  A    between atoms: C_19  and  C_20
REMARK   10  A    between atoms: C_23  and  C_24
REMARK   11  A    between atoms: C_24  and  O_25
REMARK   12  A    between atoms: O_25  and  C_26
REMARK   13  A    between atoms: C_26  and  C_27
REMARK                            x       y       z     vdW  Elec       q    Type
REMARK                         _______ _______ _______ _____ _____    ______ ____
ROOT
ATOM      1  C   UNL     1       3.109   8.687  17.783  0.00  0.00    +0.000 C 
ATOM      2  N   UNL     1       1.977   9.285  17.574  0.00  0.00    +0.000 NA
ENDROOT
BRANCH   1   6
ATOM      3  C   UNL     1       3.469   4.441  17.567  0.00  0.00    +0.000 A 
ATOM      4  C   UNL     1       2.328   5.035  18.129  0.00  0.00    +0.000 A 
ATOM      5  C   UNL     1       2.212   6.420  18.229  0.00  0.00    +0.000 A 
ATOM      6  C   UNL     1       3.238   7.221  17.744  0.00  0.00    +0.000 A 
ATOM      7  C   UNL     1       4.378   6.650  17.175  0.00  0.00    +0.000 A 
ATOM      8  C   UNL     1       4.510   5.252  17.089  0.00  0.00    +0.000 A 
BRANCH   3  10
ATOM      9  C   UNL     1       2.666   2.290  18.116  0.00  0.00    +0.000 C 
ATOM     10  O   UNL     1       3.625   3.086  17.441  0.00  0.00    +0.000 OA
ENDBRANCH   3  10
BRANCH   8  11
ATOM     11  C   UNL     1       5.757   4.674  16.438  0.00  0.00    +0.000 C 
BRANCH  11  12
ATOM     12  O   UNL     1       6.521   5.605  15.654  0.00  0.00    +0.000 OA
BRANCH  12  13
ATOM     13  C   UNL     1       6.985   5.109  14.484  0.00  0.00    +0.000 C 
ATOM     14  C   UNL     1       6.186   3.936  14.007  0.00  0.00    +0.000 C 
ATOM     15  O   UNL     1       7.938   5.554  13.863  0.00  0.00    +0.000 OA
ENDBRANCH  12  13
ENDBRANCH  11  12
ENDBRANCH   8  11
ENDBRANCH   1   6
BRANCH   2  16
ATOM     16  N   UNL     1       1.997  10.647  17.754  0.00  0.00    +0.000 N 
ATOM     17  C   UNL     1       1.169  11.347  18.616  0.00  0.00    +0.000 C 
ATOM     18  O   UNL     1       1.054  12.569  18.493  0.00  0.00    +0.000 OA
ATOM     19  H   UNL     1       2.240  11.188  16.927  0.00  0.00    +0.000 HD
BRANCH  17  20
ATOM     20  C   UNL     1       0.390  10.572  19.674  0.00  0.00    +0.000 C 
BRANCH  20  21
ATOM     21  O   UNL     1      -0.549   9.686  19.066  0.00  0.00    +0.000 OA
BRANCH  21  22
ATOM     22  C   UNL     1      -1.625  10.267  18.445  0.00  0.00    +0.000 A 
ATOM     23  C   UNL     1      -2.562  11.082  19.077  0.00  0.00    +0.000 A 
ATOM     24  C   UNL     1      -3.642  11.618  18.368  0.00  0.00    +0.000 A 
ATOM     25  C   UNL     1      -4.675  12.431  19.094  0.00  0.00    +0.000 C 
ATOM     26  C   UNL     1      -3.762  11.355  16.999  0.00  0.00    +0.000 A 
ATOM     27  C   UNL     1      -2.823  10.550  16.342  0.00  0.00    +0.000 A 
ATOM     28  C   UNL     1      -2.984  10.232  14.883  0.00  0.00    +0.000 C 
ATOM     29  C   UNL     1      -1.759  10.005  17.078  0.00  0.00    +0.000 A 
ENDBRANCH  21  22
ENDBRANCH  20  21
ENDBRANCH  17  20
ENDBRANCH   2  16
TORSDOF 9
ENDMDL
MODEL 5
REMARK VINA RESULT:      -7.6      1.666      2.011
REMARK  Name = 
REMARK  13 active torsions:
REMARK  status: ('A' for Active; 'I' for Inactive)
REMARK    1  A    between atoms: C_1  and  O_2
REMARK    2  A    between atoms: O_2  and  C_3
REMARK    3  A    between atoms: C_6  and  C_7
REMARK    4  A    between atoms: N_8  and  N_9
REMARK    5  A    between atoms: C_10  and  C_12
REMARK    6  A    between atoms: C_12  and  O_13
REMARK    7  A    between atoms: O_13  and  C_14
REMARK    8  A    between atoms: C_16  and  C_17
REMARK    9  A    between atoms: C_19  and  C_20
REMARK   10  A    between atoms: C_23  and  C_24
REMARK   11  A    between atoms: C_24  and  O_25
REMARK   12  A    between atoms: O_25  and  C_26
REMARK   13  A    between atoms: C_26  and  C_27
REMARK                            x       y       z     vdW  Elec       q    Type
REMARK                         _______ _______ _______ _____ _____    ______ ____
ROOT
ATOM      1  C   UNL     1       1.986   7.676  20.452  0.00  0.00    +0.000 C 
ATOM      2  N   UNL     1       0.878   7.816  21.111  0.00  0.00    +0.000 NA
ENDROOT
BRANCH   1   6
ATOM      3  C   UNL     1       3.006   4.020  18.502  0.00  0.00    +0.000 A 
ATOM      4  C   UNL     1       2.152   4.024  19.617  0.00  0.00    +0.000 A 
ATOM      5  C   UNL     1       1.834   5.209  20.277  0.00  0.00    +0.000 A 
ATOM      6  C   UNL     1       2.359   6.406  19.807  0.00  0.00    +0.000 A 
ATOM      7  C   UNL     1       3.205   6.425  18.696  0.00  0.00    +0.000 A 
ATOM      8  C   UNL     1       3.545   5.230  18.037  0.00  0.00    +0.000 A 
BRANCH   3  10
ATOM      9  C   UNL     1       3.301   1.679  18.565  0.00  0.00    +0.000 C 
ATOM     10  O   UNL     1       3.342   2.882  17.817  0.00  0.00    +0.000 OA
ENDBRANCH   3  10
BRANCH   8  11
ATOM     11  C   UNL     1       4.448   5.300  16.815  0.00  0.00    +0.000 C 
BRANCH  11  12
ATOM     12  O   UNL     1       5.809   4.895  17.042  0.00  0.00    +0.000 OA
BRANCH  12  13
ATOM     13  C   UNL     1       6.603   4.955  15.948  0.00  0.00    +0.000 C 
ATOM     14  C   UNL     1       6.212   3.953  14.905  0.00  0.00    +0.000 C 
ATOM     15  O   UNL     1       7.532   5.732  15.799  0.00  0.00    +0.000 OA
ENDBRANCH  12  13
ENDBRANCH  11  12
ENDBRANCH   8  11
ENDBRANCH   1   6
BRANCH   2  16
ATOM     16  N   UNL     1       0.727   9.025  21.746  0.00  0.00    +0.000 N 
ATOM     17  C   UNL     1       0.363  10.209  21.124  0.00  0.00    +0.000 C 
ATOM     18  O   UNL     1       0.540  11.281  21.706  0.00  0.00    +0.000 OA
ATOM     19  H   UNL     1       1.349   9.178  22.536  0.00  0.00    +0.000 HD
BRANCH  17  20
ATOM     20  C   UNL     1      -0.216  10.149  19.715  0.00  0.00    +0.000 C 
BRANCH  20  21
ATOM     21  O   UNL     1      -0.948  11.337  19.416  0.00  0.00    +0.000 OA
BRANCH  21  22
ATOM     22  C   UNL     1      -1.987  11.208  18.530  0.00  0.00    +0.000 A 
ATOM     23  C   UNL     1      -1.893  10.602  17.278  0.00  0.00    +0.000 A 
ATOM     24  C   UNL     1      -3.003  10.533  16.430  0.00  0.00    +0.000 A 
ATOM     25  C   UNL     1      -2.850   9.940  15.059  0.00  0.00    +0.000 C 
ATOM     26  C   UNL     1      -4.229  11.052  16.859  0.00  0.00    +0.000 A 
ATOM     27  C   UNL     1      -4.348  11.653  18.119  0.00  0.00    +0.000 A 
ATOM     28  C   UNL     1      -5.654  12.251  18.555  0.00  0.00    +0.000 C 
ATOM     29  C   UNL     1      -3.216  11.731  18.946  0.00  0.00    +0.000 A 
ENDBRANCH  21  22
ENDBRANCH  20  21
ENDBRANCH  17  20
ENDBRANCH   2  16
TORSDOF 9
ENDMDL
MODEL 6
REMARK VINA RESULT:      -7.6      1.703      1.800
REMARK  Name = 
REMARK  13 active torsions:
REMARK  status: ('A' for Active; 'I' for Inactive)
REMARK    1  A    between atoms: C_1  and  O_2
REMARK    2  A    between atoms: O_2  and  C_3
REMARK    3  A    between atoms: C_6  and  C_7
REMARK    4  A    between atoms: N_8  and  N_9
REMARK    5  A    between atoms: C_10  and  C_12
REMARK    6  A    between atoms: C_12  and  O_13
REMARK    7  A    between atoms: O_13  and  C_14
REMARK    8  A    between atoms: C_16  and  C_17
REMARK    9  A    between atoms: C_19  and  C_20
REMARK   10  A    between atoms: C_23  and  C_24
REMARK   11  A    between atoms: C_24  and  O_25
REMARK   12  A    between atoms: O_25  and  C_26
REMARK   13  A    between atoms: C_26  and  C_27
REMARK                            x       y       z     vdW  Elec       q    Type
REMARK                         _______ _______ _______ _____ _____    ______ ____
ROOT
ATOM      1  C   UNL     1       2.102   7.568  20.219  0.00  0.00    +0.000 C 
ATOM      2  N   UNL     1       1.274   7.769  21.197  0.00  0.00    +0.000 NA
ENDROOT
BRANCH   1   6
ATOM      3  C   UNL     1       2.678   3.726  18.454  0.00  0.00    +0.000 A 
ATOM      4  C   UNL     1       1.786   3.896  19.525  0.00  0.00    +0.000 A 
ATOM      5  C   UNL     1       1.610   5.141  20.126  0.00  0.00    +0.000 A 
ATOM      6  C   UNL     1       2.318   6.232  19.639  0.00  0.00    +0.000 A 
ATOM      7  C   UNL     1       3.205   6.086  18.570  0.00  0.00    +0.000 A 
ATOM      8  C   UNL     1       3.401   4.828  17.972  0.00  0.00    +0.000 A 
BRANCH   3  10
ATOM      9  C   UNL     1       3.624   1.566  18.558  0.00  0.00    +0.000 C 
ATOM     10  O   UNL     1       2.879   2.524  17.827  0.00  0.00    +0.000 OA
ENDBRANCH   3  10
BRANCH   8  11
ATOM     11  C   UNL     1       4.356   4.720  16.793  0.00  0.00    +0.000 C 
BRANCH  11  12
ATOM     12  O   UNL     1       5.621   4.104  17.091  0.00  0.00    +0.000 OA
BRANCH  12  13
ATOM     13  C   UNL     1       6.355   4.750  18.026  0.00  0.00    +0.000 C 
ATOM     14  C   UNL     1       7.032   5.969  17.477  0.00  0.00    +0.000 C 
ATOM     15  O   UNL     1       6.463   4.406  19.193  0.00  0.00    +0.000 OA
ENDBRANCH  12  13
ENDBRANCH  11  12
ENDBRANCH   8  11
ENDBRANCH   1   6
BRANCH   2  16
ATOM     16  N   UNL     1       1.266   9.048  21.699  0.00  0.00    +0.000 N 
ATOM     17  C   UNL     1       0.592  10.119  21.134  0.00  0.00    +0.000 C 
ATOM     18  O   UNL     1       0.879  11.268  21.477  0.00  0.00    +0.000 OA
ATOM     19  H   UNL     1       2.123   9.333  22.167  0.00  0.00    +0.000 HD
BRANCH  17  20
ATOM     20  C   UNL     1      -0.465   9.841  20.071  0.00  0.00    +0.000 C 
BRANCH  20  21
ATOM     21  O   UNL     1      -0.619  10.963  19.202  0.00  0.00    +0.000 OA
BRANCH  21  22
ATOM     22  C   UNL     1      -1.736  10.973  18.407  0.00  0.00    +0.000 A 
ATOM     23  C   UNL     1      -1.811  10.407  17.136  0.00  0.00    +0.000 A 
ATOM     24  C   UNL     1      -2.989  10.482  16.386  0.00  0.00    +0.000 A 
ATOM     25  C   UNL     1      -3.015   9.927  14.990  0.00  0.00    +0.000 C 
ATOM     26  C   UNL     1      -4.114  11.106  16.934  0.00  0.00    +0.000 A 
ATOM     27  C   UNL     1      -4.064  11.669  18.216  0.00  0.00    +0.000 A 
ATOM     28  C   UNL     1      -5.259  12.381  18.781  0.00  0.00    +0.000 C 
ATOM     29  C   UNL     1      -2.864  11.602  18.943  0.00  0.00    +0.000 A 
ENDBRANCH  21  22
ENDBRANCH  20  21
ENDBRANCH  17  20
ENDBRANCH   2  16
TORSDOF 9
ENDMDL
MODEL 7
REMARK VINA RESULT:      -7.5      1.634      2.361
REMARK  Name = 
REMARK  13 active torsions:
REMARK  status: ('A' for Active; 'I' for Inactive)
REMARK    1  A    between atoms: C_1  and  O_2
REMARK    2  A    between atoms: O_2  and  C_3
REMARK    3  A    between atoms: C_6  and  C_7
REMARK    4  A    between atoms: N_8  and  N_9
REMARK    5  A    between atoms: C_10  and  C_12
REMARK    6  A    between atoms: C_12  and  O_13
REMARK    7  A    between atoms: O_13  and  C_14
REMARK    8  A    between atoms: C_16  and  C_17
REMARK    9  A    between atoms: C_19  and  C_20
REMARK   10  A    between atoms: C_23  and  C_24
REMARK   11  A    between atoms: C_24  and  O_25
REMARK   12  A    between atoms: O_25  and  C_26
REMARK   13  A    between atoms: C_26  and  C_27
REMARK                            x       y       z     vdW  Elec       q    Type
REMARK                         _______ _______ _______ _____ _____    ______ ____
ROOT
ATOM      1  C   UNL     1       1.891   8.276  19.991  0.00  0.00    +0.000 C 
ATOM      2  N   UNL     1       0.955   8.695  20.786  0.00  0.00    +0.000 NA
ENDROOT
BRANCH   1   6
ATOM      3  C   UNL     1       2.836   4.138  19.550  0.00  0.00    +0.000 A 
ATOM      4  C   UNL     1       1.876   4.558  20.485  0.00  0.00    +0.000 A 
ATOM      5  C   UNL     1       1.579   5.909  20.656  0.00  0.00    +0.000 A 
ATOM      6  C   UNL     1       2.234   6.850  19.870  0.00  0.00    +0.000 A 
ATOM      7  C   UNL     1       3.187   6.452  18.930  0.00  0.00    +0.000 A 
ATOM      8  C   UNL     1       3.505   5.092  18.766  0.00  0.00    +0.000 A 
BRANCH   3  10
ATOM      9  C   UNL     1       2.110   2.005  18.850  0.00  0.00    +0.000 C 
ATOM     10  O   UNL     1       3.156   2.823  19.342  0.00  0.00    +0.000 OA
ENDBRANCH   3  10
BRANCH   8  11
ATOM     11  C   UNL     1       4.529   4.702  17.712  0.00  0.00    +0.000 C 
BRANCH  11  12
ATOM     12  O   UNL     1       5.787   4.236  18.230  0.00  0.00    +0.000 OA
BRANCH  12  13
ATOM     13  C   UNL     1       6.601   5.212  18.695  0.00  0.00    +0.000 C 
ATOM     14  C   UNL     1       7.185   6.040  17.592  0.00  0.00    +0.000 C 
ATOM     15  O   UNL     1       6.841   5.421  19.874  0.00  0.00    +0.000 OA
ENDBRANCH  12  13
ENDBRANCH  11  12
ENDBRANCH   8  11
ENDBRANCH   1   6
BRANCH   2  16
ATOM     16  N   UNL     1       0.830  10.061  20.868  0.00  0.00    +0.000 N 
ATOM     17  C   UNL     1       0.410  10.884  19.836  0.00  0.00    +0.000 C 
ATOM     18  O   UNL     1       0.611  12.099  19.905  0.00  0.00    +0.000 OA
ATOM     19  H   UNL     1       1.501  10.519  21.480  0.00  0.00    +0.000 HD
BRANCH  17  20
ATOM     20  C   UNL     1      -0.259  10.252  18.620  0.00  0.00    +0.000 C 
BRANCH  20  21
ATOM     21  O   UNL     1      -1.633   9.969  18.887  0.00  0.00    +0.000 OA
BRANCH  21  22
ATOM     22  C   UNL     1      -2.540  10.410  17.958  0.00  0.00    +0.000 A 
ATOM     23  C   UNL     1      -3.651  11.201  18.246  0.00  0.00    +0.000 A 
ATOM     24  C   UNL     1      -4.537  11.589  17.235  0.00  0.00    +0.000 A 
ATOM     25  C   UNL     1      -5.764  12.379  17.589  0.00  0.00    +0.000 C 
ATOM     26  C   UNL     1      -4.283  11.203  15.914  0.00  0.00    +0.000 A 
ATOM     27  C   UNL     1      -3.165  10.420  15.602  0.00  0.00    +0.000 A 
ATOM     28  C   UNL     1      -2.924   9.969  14.190  0.00  0.00    +0.000 C 
ATOM     29  C   UNL     1      -2.300  10.024  16.635  0.00  0.00    +0.000 A 
ENDBRANCH  21  22
ENDBRANCH  20  21
ENDBRANCH  17  20
ENDBRANCH   2  16
TORSDOF 9
ENDMDL
MODEL 8
REMARK VINA RESULT:      -7.5      1.257      1.338
REMARK  Name = 
REMARK  13 active torsions:
REMARK  status: ('A' for Active; 'I' for Inactive)
REMARK    1  A    between atoms: C_1  and  O_2
REMARK    2  A    between atoms: O_2  and  C_3
REMARK    3  A    between atoms: C_6  and  C_7
REMARK    4  A    between atoms: N_8  and  N_9
REMARK    5  A    between atoms: C_10  and  C_12
REMARK    6  A    between atoms: C_12  and  O_13
REMARK    7  A    between atoms: O_13  and  C_14
REMARK    8  A    between atoms: C_16  and  C_17
REMARK    9  A    between atoms: C_19  and  C_20
REMARK   10  A    between atoms: C_23  and  C_24
REMARK   11  A    between atoms: C_24  and  O_25
REMARK   12  A    between atoms: O_25  and  C_26
REMARK   13  A    between atoms: C_26  and  C_27
REMARK                            x       y       z     vdW  Elec       q    Type
REMARK                         _______ _______ _______ _____ _____    ______ ____
ROOT
ATOM      1  C   UNL     1       2.577   8.975  18.339  0.00  0.00    +0.000 C 
ATOM      2  N   UNL     1       1.479   9.479  17.867  0.00  0.00    +0.000 NA
ENDROOT
BRANCH   1   6
ATOM      3  C   UNL     1       3.092   4.752  18.665  0.00  0.00    +0.000 A 
ATOM      4  C   UNL     1       2.252   5.442  19.554  0.00  0.00    +0.000 A 
ATOM      5  C   UNL     1       2.097   6.825  19.473  0.00  0.00    +0.000 A 
ATOM      6  C   UNL     1       2.774   7.523  18.481  0.00  0.00    +0.000 A 
ATOM      7  C   UNL     1       3.609   6.855  17.583  0.00  0.00    +0.000 A 
ATOM      8  C   UNL     1       3.784   5.462  17.672  0.00  0.00    +0.000 A 
BRANCH   3  10
ATOM      9  C   UNL     1       4.009   2.900  19.805  0.00  0.00    +0.000 C 
ATOM     10  O   UNL     1       3.270   3.394  18.702  0.00  0.00    +0.000 OA
ENDBRANCH   3  10
BRANCH   8  11
ATOM     11  C   UNL     1       4.682   4.772  16.657  0.00  0.00    +0.000 C 
BRANCH  11  12
ATOM     12  O   UNL     1       5.511   5.653  15.880  0.00  0.00    +0.000 OA
BRANCH  12  13
ATOM     13  C   UNL     1       6.809   5.280  15.800  0.00  0.00    +0.000 C 
ATOM     14  C   UNL     1       7.269   4.553  17.026  0.00  0.00    +0.000 C 
ATOM     15  O   UNL     1       7.540   5.490  14.845  0.00  0.00    +0.000 OA
ENDBRANCH  12  13
ENDBRANCH  11  12
ENDBRANCH   8  11
ENDBRANCH   1   6
BRANCH   2  16
ATOM     16  N   UNL     1       1.406  10.851  17.900  0.00  0.00    +0.000 N 
ATOM     17  C   UNL     1       0.429  11.579  18.559  0.00  0.00    +0.000 C 
ATOM     18  O   UNL     1       0.274  12.773  18.290  0.00  0.00    +0.000 OA
ATOM     19  H   UNL     1       1.740  11.320  17.062  0.00  0.00    +0.000 HD
BRANCH  17  20
ATOM     20  C   UNL     1      -0.456  10.866  19.576  0.00  0.00    +0.000 C 
BRANCH  20  21
ATOM     21  O   UNL     1      -1.218   9.835  18.950  0.00  0.00    +0.000 OA
BRANCH  21  22
ATOM     22  C   UNL     1      -2.169  10.238  18.048  0.00  0.00    +0.000 A 
ATOM     23  C   UNL     1      -2.157   9.925  16.689  0.00  0.00    +0.000 A 
ATOM     24  C   UNL     1      -3.160  10.396  15.836  0.00  0.00    +0.000 A 
ATOM     25  C   UNL     1      -3.079  10.103  14.365  0.00  0.00    +0.000 C 
ATOM     26  C   UNL     1      -4.204  11.166  16.362  0.00  0.00    +0.000 A 
ATOM     27  C   UNL     1      -4.241  11.480  17.726  0.00  0.00    +0.000 A 
ATOM     28  C   UNL     1      -5.336  12.347  18.277  0.00  0.00    +0.000 C 
ATOM     29  C   UNL     1      -3.212  11.014  18.561  0.00  0.00    +0.000 A 
ENDBRANCH  21  22
ENDBRANCH  20  21
ENDBRANCH  17  20
ENDBRANCH   2  16
TORSDOF 9
ENDMDL
MODEL 9
REMARK VINA RESULT:      -7.4      5.932      9.811
REMARK  Name = 
REMARK  13 active torsions:
REMARK  status: ('A' for Active; 'I' for Inactive)
REMARK    1  A    between atoms: C_1  and  O_2
REMARK    2  A    between atoms: O_2  and  C_3
REMARK    3  A    between atoms: C_6  and  C_7
REMARK    4  A    between atoms: N_8  and  N_9
REMARK    5  A    between atoms: C_10  and  C_12
REMARK    6  A    between atoms: C_12  and  O_13
REMARK    7  A    between atoms: O_13  and  C_14
REMARK    8  A    between atoms: C_16  and  C_17
REMARK    9  A    between atoms: C_19  and  C_20
REMARK   10  A    between atoms: C_23  and  C_24
REMARK   11  A    between atoms: C_24  and  O_25
REMARK   12  A    between atoms: O_25  and  C_26
REMARK   13  A    between atoms: C_26  and  C_27
REMARK                            x       y       z     vdW  Elec       q    Type
REMARK                         _______ _______ _______ _____ _____    ______ ____
ROOT
ATOM      1  C   UNL     1       8.178   9.287  17.510  0.00  0.00    +0.000 C 
ATOM      2  N   UNL     1       8.209   8.035  17.846  0.00  0.00    +0.000 NA
ENDROOT
BRANCH   1   6
ATOM      3  C   UNL     1       9.917  12.339  19.933  0.00  0.00    +0.000 A 
ATOM      4  C   UNL     1       9.763  11.033  20.426  0.00  0.00    +0.000 A 
ATOM      5  C   UNL     1       9.173  10.036  19.653  0.00  0.00    +0.000 A 
ATOM      6  C   UNL     1       8.748  10.341  18.366  0.00  0.00    +0.000 A 
ATOM      7  C   UNL     1       8.898  11.631  17.854  0.00  0.00    +0.000 A 
ATOM      8  C   UNL     1       9.476  12.647  18.636  0.00  0.00    +0.000 A 
BRANCH   3  10
ATOM      9  C   UNL     1       9.653  14.009  21.579  0.00  0.00    +0.000 C 
ATOM     10  O   UNL     1      10.498  13.350  20.652  0.00  0.00    +0.000 OA
ENDBRANCH   3  10
BRANCH   8  11
ATOM     11  C   UNL     1       9.644  14.032  18.030  0.00  0.00    +0.000 C 
BRANCH  11  12
ATOM     12  O   UNL     1      10.890  14.249  17.347  0.00  0.00    +0.000 OA
BRANCH  12  13
ATOM     13  C   UNL     1      11.375  15.508  17.449  0.00  0.00    +0.000 C 
ATOM     14  C   UNL     1      12.310  15.666  18.609  0.00  0.00    +0.000 C 
ATOM     15  O   UNL     1      11.106  16.427  16.691  0.00  0.00    +0.000 OA
ENDBRANCH  12  13
ENDBRANCH  11  12
ENDBRANCH   8  11
ENDBRANCH   1   6
BRANCH   2  16
ATOM     16  N   UNL     1       7.539   7.188  16.996  0.00  0.00    +0.000 N 
ATOM     17  C   UNL     1       6.991   5.968  17.359  0.00  0.00    +0.000 C 
ATOM     18  O   UNL     1       6.678   5.157  16.484  0.00  0.00    +0.000 OA
ATOM     19  H   UNL     1       7.868   7.194  16.034  0.00  0.00    +0.000 HD
BRANCH  17  20
ATOM     20  C   UNL     1       6.826   5.650  18.841  0.00  0.00    +0.000 C 
BRANCH  20  21
ATOM     21  O   UNL     1       6.196   4.382  19.021  0.00  0.00    +0.000 OA
BRANCH  21  22
ATOM     22  C   UNL     1       4.826   4.380  19.066  0.00  0.00    +0.000 A 
ATOM     23  C   UNL     1       4.024   3.266  18.820  0.00  0.00    +0.000 A 
ATOM     24  C   UNL     1       2.630   3.361  18.868  0.00  0.00    +0.000 A 
ATOM     25  C   UNL     1       1.794   2.162  18.526  0.00  0.00    +0.000 C 
ATOM     26  C   UNL     1       2.035   4.584  19.199  0.00  0.00    +0.000 A 
ATOM     27  C   UNL     1       2.823   5.712  19.463  0.00  0.00    +0.000 A 
ATOM     28  C   UNL     1       2.179   7.033  19.770  0.00  0.00    +0.000 C 
ATOM     29  C   UNL     1       4.221   5.600  19.388  0.00  0.00    +0.000 A 
ENDBRANCH  21  22
ENDBRANCH  20  21
ENDBRANCH  17  20
ENDBRANCH   2  16
TORSDOF 9
ENDMDL
