MODEL 1
REMARK VINA RESULT:      -8.6      0.000      0.000
REMARK  Name = 
REMARK  9 active torsions:
REMARK  status: ('A' for Active; 'I' for Inactive)
REMARK    1  A    between atoms: C_1  and  C_2
REMARK    2  A    between atoms: N_4  and  C_5
REMARK    3  A    between atoms: C_8  and  N_9
REMARK    4  A    between atoms: C_10  and  C_12
REMARK    5  A    between atoms: C_12  and  C_13
REMARK    6  A    between atoms: C_12  and  S_14
REMARK    7  A    between atoms: S_14  and  C_15
REMARK    8  A    between atoms: C_18  and  C_19
REMARK    9  A    between atoms: C_22  and  C_23
REMARK                            x       y       z     vdW  Elec       q    Type
REMARK                         _______ _______ _______ _____ _____    ______ ____
ROOT
ATOM      1  C   UNL     1       5.199   4.788  17.700  0.00  0.00    +0.000 C 
ATOM      2  C   UNL     1       4.265   3.789  16.983  0.00  0.00    +0.000 C 
ENDROOT
BRANCH   1   4
ATOM      3  N   UNL     1       3.371   6.429  18.189  0.00  0.00    +0.000 N 
ATOM      4  C   UNL     1       4.411   5.625  18.710  0.00  0.00    +0.000 C 
ATOM      5  O   UNL     1       4.659   5.480  19.894  0.00  0.00    +0.000 OA
ATOM      6  H   UNL     1       3.269   6.454  17.178  0.00  0.00    +0.000 HD
BRANCH   3  10
ATOM      7  C   UNL     1       0.691   8.878  20.430  0.00  0.00    +0.000 A 
ATOM      8  C   UNL     1       1.122   7.650  20.917  0.00  0.00    +0.000 A 
ATOM      9  C   UNL     1       2.014   6.861  20.192  0.00  0.00    +0.000 A 
ATOM     10  C   UNL     1       2.514   7.260  18.954  0.00  0.00    +0.000 A 
ATOM     11  C   UNL     1       2.116   8.518  18.482  0.00  0.00    +0.000 A 
ATOM     12  C   UNL     1       1.197   9.309  19.202  0.00  0.00    +0.000 A 
BRANCH   7  16
ATOM     13  C   UNL     1      -1.157  10.989  22.967  0.00  0.00    +0.000 C 
ATOM     14  C   UNL     1      -0.052  10.129  22.434  0.00  0.00    +0.000 C 
ATOM     15  O   UNL     1       0.919   9.888  23.148  0.00  0.00    +0.000 OA
ATOM     16  N   UNL     1      -0.232   9.692  21.130  0.00  0.00    +0.000 N 
ATOM     17  H   UNL     1      -1.000  10.079  20.602  0.00  0.00    +0.000 HD
ENDBRANCH   7  16
ENDBRANCH   3  10
ENDBRANCH   1   4
BRANCH   1  18
ATOM     18  S   UNL     1       6.070   5.836  16.465  0.00  0.00    +0.000 S 
BRANCH  18  19
ATOM     19  C   UNL     1       7.096   6.828  17.482  0.00  0.00    +0.000 A 
ATOM     20  N   UNL     1       7.835   6.285  18.460  0.00  0.00    +0.000 NA
ATOM     21  N   UNL     1       8.524   7.356  18.901  0.00  0.00    +0.000 N 
ATOM     22  C   UNL     1       8.182   8.488  18.208  0.00  0.00    +0.000 A 
ATOM     23  N   UNL     1       7.253   8.170  17.321  0.00  0.00    +0.000 NA
ATOM     24  H   UNL     1       9.186   7.262  19.659  0.00  0.00    +0.000 HD
BRANCH  22  25
ATOM     25  C   UNL     1       8.722   9.809  18.498  0.00  0.00    +0.000 A 
ATOM     26  C   UNL     1       9.403  10.083  19.692  0.00  0.00    +0.000 A 
ATOM     27  C   UNL     1       9.853  11.376  19.971  0.00  0.00    +0.000 A 
ATOM     28  C   UNL     1       9.650  12.409  19.051  0.00  0.00    +0.000 A 
ATOM     29  C   UNL     1      10.175  13.791  19.311  0.00  0.00    +0.000 C 
ATOM     30  C   UNL     1       8.981  12.135  17.853  0.00  0.00    +0.000 A 
ATOM     31  C   UNL     1       8.530  10.843  17.577  0.00  0.00    +0.000 A 
ENDBRANCH  22  25
ENDBRANCH  18  19
ENDBRANCH   1  18
TORSDOF 6
ENDMDL
MODEL 2
REMARK VINA RESULT:      -8.6      4.602      5.603
REMARK  Name = 
REMARK  9 active torsions:
REMARK  status: ('A' for Active; 'I' for Inactive)
REMARK    1  A    between atoms: C_1  and  C_2
REMARK    2  A    between atoms: N_4  and  C_5
REMARK    3  A    between atoms: C_8  and  N_9
REMARK    4  A    between atoms: C_10  and  C_12
REMARK    5  A    between atoms: C_12  and  C_13
REMARK    6  A    between atoms: C_12  and  S_14
REMARK    7  A    between atoms: S_14  and  C_15
REMARK    8  A    between atoms: C_18  and  C_19
REMARK    9  A    between atoms: C_22  and  C_23
REMARK                            x       y       z     vdW  Elec       q    Type
REMARK                         _______ _______ _______ _____ _____    ______ ____
ROOT
ATOM      1  C   UNL     1       2.575   3.429  20.905  0.00  0.00    +0.000 C 
ATOM      2  C   UNL     1       1.800   2.683  22.013  0.00  0.00    +0.000 C 
ENDROOT
BRANCH   1   4
ATOM      3  N   UNL     1       2.687   5.796  20.093  0.00  0.00    +0.000 N 
ATOM      4  C   UNL     1       1.867   4.739  20.549  0.00  0.00    +0.000 C 
ATOM      5  O   UNL     1       0.650   4.762  20.586  0.00  0.00    +0.000 OA
ATOM      6  H   UNL     1       3.692   5.641  20.107  0.00  0.00    +0.000 HD
BRANCH   3  10
ATOM      7  C   UNL     1       1.198   9.599  18.860  0.00  0.00    +0.000 A 
ATOM      8  C   UNL     1       1.044   9.155  20.168  0.00  0.00    +0.000 A 
ATOM      9  C   UNL     1       1.550   7.921  20.573  0.00  0.00    +0.000 A 
ATOM     10  C   UNL     1       2.229   7.078  19.696  0.00  0.00    +0.000 A 
ATOM     11  C   UNL     1       2.423   7.543  18.388  0.00  0.00    +0.000 A 
ATOM     12  C   UNL     1       1.894   8.781  17.968  0.00  0.00    +0.000 A 
BRANCH   7  16
ATOM     13  C   UNL     1      -0.809  12.760  18.320  0.00  0.00    +0.000 C 
ATOM     14  C   UNL     1      -0.445  11.450  18.950  0.00  0.00    +0.000 C 
ATOM     15  O   UNL     1      -1.122  11.024  19.883  0.00  0.00    +0.000 OA
ATOM     16  N   UNL     1       0.675  10.836  18.410  0.00  0.00    +0.000 N 
ATOM     17  H   UNL     1       1.229  11.358  17.746  0.00  0.00    +0.000 HD
ENDBRANCH   7  16
ENDBRANCH   3  10
ENDBRANCH   1   4
BRANCH   1  18
ATOM     18  S   UNL     1       2.789   2.339  19.440  0.00  0.00    +0.000 S 
BRANCH  18  19
ATOM     19  C   UNL     1       4.116   3.113  18.596  0.00  0.00    +0.000 A 
ATOM     20  N   UNL     1       5.184   3.574  19.260  0.00  0.00    +0.000 NA
ATOM     21  N   UNL     1       5.975   3.979  18.247  0.00  0.00    +0.000 N 
ATOM     22  C   UNL     1       5.374   3.772  17.033  0.00  0.00    +0.000 A 
ATOM     23  N   UNL     1       4.178   3.247  17.243  0.00  0.00    +0.000 NA
ATOM     24  H   UNL     1       6.881   4.386  18.435  0.00  0.00    +0.000 HD
BRANCH  22  25
ATOM     25  C   UNL     1       5.965   4.161  15.759  0.00  0.00    +0.000 A 
ATOM     26  C   UNL     1       5.546   3.594  14.547  0.00  0.00    +0.000 A 
ATOM     27  C   UNL     1       6.175   3.940  13.349  0.00  0.00    +0.000 A 
ATOM     28  C   UNL     1       7.216   4.874  13.340  0.00  0.00    +0.000 A 
ATOM     29  C   UNL     1       7.864   5.297  12.054  0.00  0.00    +0.000 C 
ATOM     30  C   UNL     1       7.627   5.450  14.547  0.00  0.00    +0.000 A 
ATOM     31  C   UNL     1       6.998   5.102  15.744  0.00  0.00    +0.000 A 
ENDBRANCH  22  25
ENDBRANCH  18  19
ENDBRANCH   1  18
TORSDOF 6
ENDMDL
MODEL 3
REMARK VINA RESULT:      -8.6      4.627      5.643
REMARK  Name = 
REMARK  9 active torsions:
REMARK  status: ('A' for Active; 'I' for Inactive)
REMARK    1  A    between atoms: C_1  and  C_2
REMARK    2  A    between atoms: N_4  and  C_5
REMARK    3  A    between atoms: C_8  and  N_9
REMARK    4  A    between atoms: C_10  and  C_12
REMARK    5  A    between atoms: C_12  and  C_13
REMARK    6  A    between atoms: C_12  and  S_14
REMARK    7  A    between atoms: S_14  and  C_15
REMARK    8  A    between atoms: C_18  and  C_19
REMARK    9  A    between atoms: C_22  and  C_23
REMARK                            x       y       z     vdW  Elec       q    Type
REMARK                         _______ _______ _______ _____ _____    ______ ____
ROOT
ATOM      1  C   UNL     1       2.503   3.462  20.973  0.00  0.00    +0.000 C 
ATOM      2  C   UNL     1       1.760   2.678  22.075  0.00  0.00    +0.000 C 
ENDROOT
BRANCH   1   4
ATOM      3  N   UNL     1       2.550   5.899  20.393  0.00  0.00    +0.000 N 
ATOM      4  C   UNL     1       1.755   4.757  20.643  0.00  0.00    +0.000 C 
ATOM      5  O   UNL     1       0.544   4.706  20.524  0.00  0.00    +0.000 OA
ATOM      6  H   UNL     1       3.554   5.801  20.523  0.00  0.00    +0.000 HD
BRANCH   3  10
ATOM      7  C   UNL     1       0.964   9.711  19.317  0.00  0.00    +0.000 A 
ATOM      8  C   UNL     1       0.702   9.146  20.560  0.00  0.00    +0.000 A 
ATOM      9  C   UNL     1       1.238   7.910  20.917  0.00  0.00    +0.000 A 
ATOM     10  C   UNL     1       2.057   7.184  20.053  0.00  0.00    +0.000 A 
ATOM     11  C   UNL     1       2.359   7.772  18.817  0.00  0.00    +0.000 A 
ATOM     12  C   UNL     1       1.800   9.012  18.445  0.00  0.00    +0.000 A 
BRANCH   7  16
ATOM     13  C   UNL     1      -1.216  12.511  18.008  0.00  0.00    +0.000 C 
ATOM     14  C   UNL     1      -0.840  11.100  18.345  0.00  0.00    +0.000 C 
ATOM     15  O   UNL     1      -1.644  10.197  18.124  0.00  0.00    +0.000 OA
ATOM     16  N   UNL     1       0.415  10.952  18.915  0.00  0.00    +0.000 N 
ATOM     17  H   UNL     1       0.918  11.787  19.180  0.00  0.00    +0.000 HD
ENDBRANCH   7  16
ENDBRANCH   3  10
ENDBRANCH   1   4
BRANCH   1  18
ATOM     18  S   UNL     1       2.733   2.402  19.488  0.00  0.00    +0.000 S 
BRANCH  18  19
ATOM     19  C   UNL     1       4.043   3.215  18.655  0.00  0.00    +0.000 A 
ATOM     20  N   UNL     1       5.023   3.826  19.334  0.00  0.00    +0.000 NA
ATOM     21  N   UNL     1       5.842   4.211  18.335  0.00  0.00    +0.000 N 
ATOM     22  C   UNL     1       5.342   3.846  17.113  0.00  0.00    +0.000 A 
ATOM     23  N   UNL     1       4.182   3.236  17.301  0.00  0.00    +0.000 NA
ATOM     24  H   UNL     1       6.697   4.712  18.537  0.00  0.00    +0.000 HD
BRANCH  22  25
ATOM     25  C   UNL     1       5.980   4.174  15.845  0.00  0.00    +0.000 A 
ATOM     26  C   UNL     1       7.092   5.025  15.776  0.00  0.00    +0.000 A 
ATOM     27  C   UNL     1       7.643   5.372  14.541  0.00  0.00    +0.000 A 
ATOM     28  C   UNL     1       7.106   4.856  13.356  0.00  0.00    +0.000 A 
ATOM     29  C   UNL     1       7.721   5.176  12.025  0.00  0.00    +0.000 C 
ATOM     30  C   UNL     1       6.005   3.996  13.424  0.00  0.00    +0.000 A 
ATOM     31  C   UNL     1       5.454   3.651  14.660  0.00  0.00    +0.000 A 
ENDBRANCH  22  25
ENDBRANCH  18  19
ENDBRANCH   1  18
TORSDOF 6
ENDMDL
MODEL 4
REMARK VINA RESULT:      -8.4      4.520      5.586
REMARK  Name = 
REMARK  9 active torsions:
REMARK  status: ('A' for Active; 'I' for Inactive)
REMARK    1  A    between atoms: C_1  and  C_2
REMARK    2  A    between atoms: N_4  and  C_5
REMARK    3  A    between atoms: C_8  and  N_9
REMARK    4  A    between atoms: C_10  and  C_12
REMARK    5  A    between atoms: C_12  and  C_13
REMARK    6  A    between atoms: C_12  and  S_14
REMARK    7  A    between atoms: S_14  and  C_15
REMARK    8  A    between atoms: C_18  and  C_19
REMARK    9  A    between atoms: C_22  and  C_23
REMARK                            x       y       z     vdW  Elec       q    Type
REMARK                         _______ _______ _______ _____ _____    ______ ____
ROOT
ATOM      1  C   UNL     1       2.377   3.455  20.947  0.00  0.00    +0.000 C 
ATOM      2  C   UNL     1       1.630   2.706  22.070  0.00  0.00    +0.000 C 
ENDROOT
BRANCH   1   4
ATOM      3  N   UNL     1       2.346   5.940  20.632  0.00  0.00    +0.000 N 
ATOM      4  C   UNL     1       1.621   4.729  20.561  0.00  0.00    +0.000 C 
ATOM      5  O   UNL     1       0.487   4.615  20.131  0.00  0.00    +0.000 OA
ATOM      6  H   UNL     1       3.291   5.892  21.006  0.00  0.00    +0.000 HD
BRANCH   3  10
ATOM      7  C   UNL     1       0.925   9.850  19.686  0.00  0.00    +0.000 A 
ATOM      8  C   UNL     1       1.649   9.104  18.764  0.00  0.00    +0.000 A 
ATOM      9  C   UNL     1       2.095   7.819  19.067  0.00  0.00    +0.000 A 
ATOM     10  C   UNL     1       1.838   7.222  20.301  0.00  0.00    +0.000 A 
ATOM     11  C   UNL     1       1.071   7.955  21.216  0.00  0.00    +0.000 A 
ATOM     12  C   UNL     1       0.637   9.264  20.920  0.00  0.00    +0.000 A 
BRANCH   7  16
ATOM     13  C   UNL     1       0.306  13.582  19.645  0.00  0.00    +0.000 C 
ATOM     14  C   UNL     1       0.907  12.290  20.110  0.00  0.00    +0.000 C 
ATOM     15  O   UNL     1       1.724  12.304  21.027  0.00  0.00    +0.000 OA
ATOM     16  N   UNL     1       0.479  11.166  19.417  0.00  0.00    +0.000 N 
ATOM     17  H   UNL     1      -0.082  11.305  18.590  0.00  0.00    +0.000 HD
ENDBRANCH   7  16
ENDBRANCH   3  10
ENDBRANCH   1   4
BRANCH   1  18
ATOM     18  S   UNL     1       2.634   2.341  19.506  0.00  0.00    +0.000 S 
BRANCH  18  19
ATOM     19  C   UNL     1       4.013   3.077  18.714  0.00  0.00    +0.000 A 
ATOM     20  N   UNL     1       5.078   3.487  19.416  0.00  0.00    +0.000 NA
ATOM     21  N   UNL     1       5.913   3.877  18.432  0.00  0.00    +0.000 N 
ATOM     22  C   UNL     1       5.341   3.710  17.198  0.00  0.00    +0.000 A 
ATOM     23  N   UNL     1       4.120   3.228  17.366  0.00  0.00    +0.000 NA
ATOM     24  H   UNL     1       6.828   4.246  18.653  0.00  0.00    +0.000 HD
BRANCH  22  25
ATOM     25  C   UNL     1       5.983   4.095  15.949  0.00  0.00    +0.000 A 
ATOM     26  C   UNL     1       7.002   5.058  15.908  0.00  0.00    +0.000 A 
ATOM     27  C   UNL     1       7.554   5.453  14.687  0.00  0.00    +0.000 A 
ATOM     28  C   UNL     1       7.115   4.876  13.491  0.00  0.00    +0.000 A 
ATOM     29  C   UNL     1       7.736   5.250  12.178  0.00  0.00    +0.000 C 
ATOM     30  C   UNL     1       6.107   3.906  13.532  0.00  0.00    +0.000 A 
ATOM     31  C   UNL     1       5.554   3.513  14.752  0.00  0.00    +0.000 A 
ENDBRANCH  22  25
ENDBRANCH  18  19
ENDBRANCH   1  18
TORSDOF 6
ENDMDL
MODEL 5
REMARK VINA RESULT:      -8.3      1.207      1.493
REMARK  Name = 
REMARK  9 active torsions:
REMARK  status: ('A' for Active; 'I' for Inactive)
REMARK    1  A    between atoms: C_1  and  C_2
REMARK    2  A    between atoms: N_4  and  C_5
REMARK    3  A    between atoms: C_8  and  N_9
REMARK    4  A    between atoms: C_10  and  C_12
REMARK    5  A    between atoms: C_12  and  C_13
REMARK    6  A    between atoms: C_12  and  S_14
REMARK    7  A    between atoms: S_14  and  C_15
REMARK    8  A    between atoms: C_18  and  C_19
REMARK    9  A    between atoms: C_22  and  C_23
REMARK                            x       y       z     vdW  Elec       q    Type
REMARK                         _______ _______ _______ _____ _____    ______ ____
ROOT
ATOM      1  C   UNL     1       4.992   5.206  17.404  0.00  0.00    +0.000 C 
ATOM      2  C   UNL     1       4.226   4.048  16.729  0.00  0.00    +0.000 C 
ENDROOT
BRANCH   1   4
ATOM      3  N   UNL     1       3.273   6.420  18.762  0.00  0.00    +0.000 N 
ATOM      4  C   UNL     1       4.072   6.414  17.597  0.00  0.00    +0.000 C 
ATOM      5  O   UNL     1       4.151   7.329  16.796  0.00  0.00    +0.000 OA
ATOM      6  H   UNL     1       3.307   5.591  19.350  0.00  0.00    +0.000 HD
BRANCH   3  10
ATOM      7  C   UNL     1       0.662   9.589  19.921  0.00  0.00    +0.000 A 
ATOM      8  C   UNL     1       1.132   9.483  18.618  0.00  0.00    +0.000 A 
ATOM      9  C   UNL     1       1.968   8.435  18.236  0.00  0.00    +0.000 A 
ATOM     10  C   UNL     1       2.371   7.449  19.135  0.00  0.00    +0.000 A 
ATOM     11  C   UNL     1       1.863   7.529  20.439  0.00  0.00    +0.000 A 
ATOM     12  C   UNL     1       1.035   8.600  20.833  0.00  0.00    +0.000 A 
BRANCH   7  16
ATOM     13  C   UNL     1      -0.764  12.808  21.304  0.00  0.00    +0.000 C 
ATOM     14  C   UNL     1       0.298  11.813  20.947  0.00  0.00    +0.000 C 
ATOM     15  O   UNL     1       1.475  12.081  21.180  0.00  0.00    +0.000 OA
ATOM     16  N   UNL     1      -0.169  10.653  20.346  0.00  0.00    +0.000 N 
ATOM     17  H   UNL     1      -1.141  10.617  20.077  0.00  0.00    +0.000 HD
ENDBRANCH   7  16
ENDBRANCH   3  10
ENDBRANCH   1   4
BRANCH   1  18
ATOM     18  S   UNL     1       6.490   5.628  16.425  0.00  0.00    +0.000 S 
BRANCH  18  19
ATOM     19  C   UNL     1       7.334   6.727  17.498  0.00  0.00    +0.000 A 
ATOM     20  N   UNL     1       7.919   6.287  18.620  0.00  0.00    +0.000 NA
ATOM     21  N   UNL     1       8.518   7.409  19.067  0.00  0.00    +0.000 N 
ATOM     22  C   UNL     1       8.273   8.469  18.235  0.00  0.00    +0.000 A 
ATOM     23  N   UNL     1       7.497   8.055  17.247  0.00  0.00    +0.000 NA
ATOM     24  H   UNL     1       9.056   7.396  19.923  0.00  0.00    +0.000 HD
BRANCH  22  25
ATOM     25  C   UNL     1       8.744   9.824  18.489  0.00  0.00    +0.000 A 
ATOM     26  C   UNL     1       9.483  10.147  19.637  0.00  0.00    +0.000 A 
ATOM     27  C   UNL     1       9.866  11.466  19.885  0.00  0.00    +0.000 A 
ATOM     28  C   UNL     1       9.537  12.481  18.980  0.00  0.00    +0.000 A 
ATOM     29  C   UNL     1       9.989  13.894  19.205  0.00  0.00    +0.000 C 
ATOM     30  C   UNL     1       8.811  12.159  17.828  0.00  0.00    +0.000 A 
ATOM     31  C   UNL     1       8.427  10.839  17.582  0.00  0.00    +0.000 A 
ENDBRANCH  22  25
ENDBRANCH  18  19
ENDBRANCH   1  18
TORSDOF 6
ENDMDL
MODEL 6
REMARK VINA RESULT:      -8.3      4.586      5.656
REMARK  Name = 
REMARK  9 active torsions:
REMARK  status: ('A' for Active; 'I' for Inactive)
REMARK    1  A    between atoms: C_1  and  C_2
REMARK    2  A    between atoms: N_4  and  C_5
REMARK    3  A    between atoms: C_8  and  N_9
REMARK    4  A    between atoms: C_10  and  C_12
REMARK    5  A    between atoms: C_12  and  C_13
REMARK    6  A    between atoms: C_12  and  S_14
REMARK    7  A    between atoms: S_14  and  C_15
REMARK    8  A    between atoms: C_18  and  C_19
REMARK    9  A    between atoms: C_22  and  C_23
REMARK                            x       y       z     vdW  Elec       q    Type
REMARK                         _______ _______ _______ _____ _____    ______ ____
ROOT
ATOM      1  C   UNL     1       2.623   3.669  20.734  0.00  0.00    +0.000 C 
ATOM      2  C   UNL     1       1.715   3.061  21.824  0.00  0.00    +0.000 C 
ENDROOT
BRANCH   1   4
ATOM      3  N   UNL     1       2.328   6.156  20.674  0.00  0.00    +0.000 N 
ATOM      4  C   UNL     1       1.964   4.907  20.121  0.00  0.00    +0.000 C 
ATOM      5  O   UNL     1       1.249   4.754  19.146  0.00  0.00    +0.000 OA
ATOM      6  H   UNL     1       2.939   6.141  21.486  0.00  0.00    +0.000 HD
BRANCH   3  10
ATOM      7  C   UNL     1       0.779   9.895  19.322  0.00  0.00    +0.000 A 
ATOM      8  C   UNL     1       0.554   9.448  20.619  0.00  0.00    +0.000 A 
ATOM      9  C   UNL     1       1.078   8.236  21.064  0.00  0.00    +0.000 A 
ATOM     10  C   UNL     1       1.848   7.418  20.239  0.00  0.00    +0.000 A 
ATOM     11  C   UNL     1       2.114   7.887  18.946  0.00  0.00    +0.000 A 
ATOM     12  C   UNL     1       1.567   9.102  18.485  0.00  0.00    +0.000 A 
BRANCH   7  16
ATOM     13  C   UNL     1       0.117  13.487  18.337  0.00  0.00    +0.000 C 
ATOM     14  C   UNL     1       0.871  12.339  18.938  0.00  0.00    +0.000 C 
ATOM     15  O   UNL     1       1.969  12.545  19.451  0.00  0.00    +0.000 OA
ATOM     16  N   UNL     1       0.241  11.108  18.831  0.00  0.00    +0.000 N 
ATOM     17  H   UNL     1      -0.588  11.049  18.258  0.00  0.00    +0.000 HD
ENDBRANCH   7  16
ENDBRANCH   3  10
ENDBRANCH   1   4
BRANCH   1  18
ATOM     18  S   UNL     1       3.023   2.400  19.465  0.00  0.00    +0.000 S 
BRANCH  18  19
ATOM     19  C   UNL     1       4.301   3.181  18.554  0.00  0.00    +0.000 A 
ATOM     20  N   UNL     1       5.340   3.756  19.174  0.00  0.00    +0.000 NA
ATOM     21  N   UNL     1       6.105   4.125  18.127  0.00  0.00    +0.000 N 
ATOM     22  C   UNL     1       5.517   3.784  16.936  0.00  0.00    +0.000 A 
ATOM     23  N   UNL     1       4.354   3.208  17.195  0.00  0.00    +0.000 NA
ATOM     24  H   UNL     1       6.986   4.598  18.277  0.00  0.00    +0.000 HD
BRANCH  22  25
ATOM     25  C   UNL     1       6.083   4.103  15.633  0.00  0.00    +0.000 A 
ATOM     26  C   UNL     1       7.107   5.050  15.483  0.00  0.00    +0.000 A 
ATOM     27  C   UNL     1       7.585   5.381  14.213  0.00  0.00    +0.000 A 
ATOM     28  C   UNL     1       7.065   4.755  13.076  0.00  0.00    +0.000 A 
ATOM     29  C   UNL     1       7.607   5.060  11.710  0.00  0.00    +0.000 C 
ATOM     30  C   UNL     1       6.053   3.801  13.224  0.00  0.00    +0.000 A 
ATOM     31  C   UNL     1       5.574   3.472  14.494  0.00  0.00    +0.000 A 
ENDBRANCH  22  25
ENDBRANCH  18  19
ENDBRANCH   1  18
TORSDOF 6
ENDMDL
MODEL 7
REMARK VINA RESULT:      -8.3      1.389      1.412
REMARK  Name = 
REMARK  9 active torsions:
REMARK  status: ('A' for Active; 'I' for Inactive)
REMARK    1  A    between atoms: C_1  and  C_2
REMARK    2  A    between atoms: N_4  and  C_5
REMARK    3  A    between atoms: C_8  and  N_9
REMARK    4  A    between atoms: C_10  and  C_12
REMARK    5  A    between atoms: C_12  and  C_13
REMARK    6  A    between atoms: C_12  and  S_14
REMARK    7  A    between atoms: S_14  and  C_15
REMARK    8  A    between atoms: C_18  and  C_19
REMARK    9  A    between atoms: C_22  and  C_23
REMARK                            x       y       z     vdW  Elec       q    Type
REMARK                         _______ _______ _______ _____ _____    ______ ____
ROOT
ATOM      1  C   UNL     1       5.237   4.728  17.518  0.00  0.00    +0.000 C 
ATOM      2  C   UNL     1       4.255   3.833  16.732  0.00  0.00    +0.000 C 
ENDROOT
BRANCH   1   4
ATOM      3  N   UNL     1       3.533   6.551  17.738  0.00  0.00    +0.000 N 
ATOM      4  C   UNL     1       4.469   5.721  18.395  0.00  0.00    +0.000 C 
ATOM      5  O   UNL     1       4.638   5.671  19.600  0.00  0.00    +0.000 OA
ATOM      6  H   UNL     1       3.490   6.486  16.724  0.00  0.00    +0.000 HD
BRANCH   3  10
ATOM      7  C   UNL     1       0.954   9.403  19.587  0.00  0.00    +0.000 A 
ATOM      8  C   UNL     1       1.410   8.288  20.280  0.00  0.00    +0.000 A 
ATOM      9  C   UNL     1       2.269   7.369  19.680  0.00  0.00    +0.000 A 
ATOM     10  C   UNL     1       2.710   7.520  18.367  0.00  0.00    +0.000 A 
ATOM     11  C   UNL     1       2.288   8.666  17.680  0.00  0.00    +0.000 A 
ATOM     12  C   UNL     1       1.401   9.587  18.277  0.00  0.00    +0.000 A 
BRANCH   7  16
ATOM     13  C   UNL     1      -1.742  11.969  20.261  0.00  0.00    +0.000 C 
ATOM     14  C   UNL     1      -0.905  11.032  19.444  0.00  0.00    +0.000 C 
ATOM     15  O   UNL     1      -1.130  10.920  18.241  0.00  0.00    +0.000 OA
ATOM     16  N   UNL     1       0.063  10.342  20.158  0.00  0.00    +0.000 N 
ATOM     17  H   UNL     1       0.049  10.413  21.165  0.00  0.00    +0.000 HD
ENDBRANCH   7  16
ENDBRANCH   3  10
ENDBRANCH   1   4
BRANCH   1  18
ATOM     18  S   UNL     1       6.384   5.576  16.358  0.00  0.00    +0.000 S 
BRANCH  18  19
ATOM     19  C   UNL     1       7.253   6.660  17.426  0.00  0.00    +0.000 A 
ATOM     20  N   UNL     1       7.870   6.202  18.524  0.00  0.00    +0.000 NA
ATOM     21  N   UNL     1       8.477   7.318  18.975  0.00  0.00    +0.000 N 
ATOM     22  C   UNL     1       8.207   8.392  18.168  0.00  0.00    +0.000 A 
ATOM     23  N   UNL     1       7.405   7.992  17.194  0.00  0.00    +0.000 NA
ATOM     24  H   UNL     1       9.038   7.293  19.816  0.00  0.00    +0.000 HD
BRANCH  22  25
ATOM     25  C   UNL     1       8.680   9.744  18.433  0.00  0.00    +0.000 A 
ATOM     26  C   UNL     1       9.466  10.046  19.554  0.00  0.00    +0.000 A 
ATOM     27  C   UNL     1       9.852  11.362  19.816  0.00  0.00    +0.000 A 
ATOM     28  C   UNL     1       9.479  12.395  18.949  0.00  0.00    +0.000 A 
ATOM     29  C   UNL     1       9.931  13.806  19.187  0.00  0.00    +0.000 C 
ATOM     30  C   UNL     1       8.705  12.094  17.823  0.00  0.00    +0.000 A 
ATOM     31  C   UNL     1       8.319  10.778  17.563  0.00  0.00    +0.000 A 
ENDBRANCH  22  25
ENDBRANCH  18  19
ENDBRANCH   1  18
TORSDOF 6
ENDMDL
MODEL 8
REMARK VINA RESULT:      -8.0      2.702      3.792
REMARK  Name = 
REMARK  9 active torsions:
REMARK  status: ('A' for Active; 'I' for Inactive)
REMARK    1  A    between atoms: C_1  and  C_2
REMARK    2  A    between atoms: N_4  and  C_5
REMARK    3  A    between atoms: C_8  and  N_9
REMARK    4  A    between atoms: C_10  and  C_12
REMARK    5  A    between atoms: C_12  and  C_13
REMARK    6  A    between atoms: C_12  and  S_14
REMARK    7  A    between atoms: S_14  and  C_15
REMARK    8  A    between atoms: C_18  and  C_19
REMARK    9  A    between atoms: C_22  and  C_23
REMARK                            x       y       z     vdW  Elec       q    Type
REMARK                         _______ _______ _______ _____ _____    ______ ____
ROOT
ATOM      1  C   UNL     1       2.481   2.763  19.305  0.00  0.00    +0.000 C 
ATOM      2  C   UNL     1       1.304   1.811  19.610  0.00  0.00    +0.000 C 
ENDROOT
BRANCH   1   4
ATOM      3  N   UNL     1       2.583   5.233  19.706  0.00  0.00    +0.000 N 
ATOM      4  C   UNL     1       1.964   4.172  19.007  0.00  0.00    +0.000 C 
ATOM      5  O   UNL     1       1.128   4.304  18.130  0.00  0.00    +0.000 OA
ATOM      6  H   UNL     1       3.272   4.982  20.411  0.00  0.00    +0.000 HD
BRANCH   3  10
ATOM      7  C   UNL     1       1.514   9.335  19.228  0.00  0.00    +0.000 A 
ATOM      8  C   UNL     1       1.308   8.673  20.432  0.00  0.00    +0.000 A 
ATOM      9  C   UNL     1       1.677   7.339  20.593  0.00  0.00    +0.000 A 
ATOM     10  C   UNL     1       2.266   6.608  19.563  0.00  0.00    +0.000 A 
ATOM     11  C   UNL     1       2.516   7.286  18.362  0.00  0.00    +0.000 A 
ATOM     12  C   UNL     1       2.124   8.630  18.189  0.00  0.00    +0.000 A 
BRANCH   7  16
ATOM     13  C   UNL     1      -0.317  12.557  18.468  0.00  0.00    +0.000 C 
ATOM     14  C   UNL     1      -0.133  11.076  18.606  0.00  0.00    +0.000 C 
ATOM     15  O   UNL     1      -1.080  10.329  18.367  0.00  0.00    +0.000 OA
ATOM     16  N   UNL     1       1.128  10.682  19.025  0.00  0.00    +0.000 N 
ATOM     17  H   UNL     1       1.772  11.398  19.329  0.00  0.00    +0.000 HD
ENDBRANCH   7  16
ENDBRANCH   3  10
ENDBRANCH   1   4
BRANCH   1  18
ATOM     18  S   UNL     1       3.492   2.092  17.923  0.00  0.00    +0.000 S 
BRANCH  18  19
ATOM     19  C   UNL     1       4.346   3.518  17.367  0.00  0.00    +0.000 A 
ATOM     20  N   UNL     1       4.113   4.036  16.153  0.00  0.00    +0.000 NA
ATOM     21  N   UNL     1       4.880   5.144  16.183  0.00  0.00    +0.000 N 
ATOM     22  C   UNL     1       5.547   5.256  17.374  0.00  0.00    +0.000 A 
ATOM     23  N   UNL     1       5.237   4.212  18.126  0.00  0.00    +0.000 NA
ATOM     24  H   UNL     1       4.916   5.764  15.385  0.00  0.00    +0.000 HD
BRANCH  22  25
ATOM     25  C   UNL     1       6.492   6.322  17.677  0.00  0.00    +0.000 A 
ATOM     26  C   UNL     1       7.519   6.155  18.616  0.00  0.00    +0.000 A 
ATOM     27  C   UNL     1       8.370   7.216  18.932  0.00  0.00    +0.000 A 
ATOM     28  C   UNL     1       8.223   8.454  18.299  0.00  0.00    +0.000 A 
ATOM     29  C   UNL     1       9.163   9.588  18.588  0.00  0.00    +0.000 C 
ATOM     30  C   UNL     1       7.206   8.620  17.353  0.00  0.00    +0.000 A 
ATOM     31  C   UNL     1       6.355   7.559  17.039  0.00  0.00    +0.000 A 
ENDBRANCH  22  25
ENDBRANCH  18  19
ENDBRANCH   1  18
TORSDOF 6
ENDMDL
MODEL 9
REMARK VINA RESULT:      -8.0      2.858      7.068
REMARK  Name = 
REMARK  9 active torsions:
REMARK  status: ('A' for Active; 'I' for Inactive)
REMARK    1  A    between atoms: C_1  and  C_2
REMARK    2  A    between atoms: N_4  and  C_5
REMARK    3  A    between atoms: C_8  and  N_9
REMARK    4  A    between atoms: C_10  and  C_12
REMARK    5  A    between atoms: C_12  and  C_13
REMARK    6  A    between atoms: C_12  and  S_14
REMARK    7  A    between atoms: S_14  and  C_15
REMARK    8  A    between atoms: C_18  and  C_19
REMARK    9  A    between atoms: C_22  and  C_23
REMARK                            x       y       z     vdW  Elec       q    Type
REMARK                         _______ _______ _______ _____ _____    ______ ____
ROOT
ATOM      1  C   UNL     1       3.876   1.987  18.796  0.00  0.00    +0.000 C 
ATOM      2  C   UNL     1       4.725   1.525  19.999  0.00  0.00    +0.000 C 
ENDROOT
BRANCH   1   4
ATOM      3  N   UNL     1       5.379   3.979  19.007  0.00  0.00    +0.000 N 
ATOM      4  C   UNL     1       4.438   3.286  18.213  0.00  0.00    +0.000 C 
ATOM      5  O   UNL     1       4.118   3.591  17.078  0.00  0.00    +0.000 OA
ATOM      6  H   UNL     1       5.560   3.610  19.938  0.00  0.00    +0.000 HD
BRANCH   3  10
ATOM      7  C   UNL     1       7.393   7.547  17.818  0.00  0.00    +0.000 A 
ATOM      8  C   UNL     1       6.114   7.255  17.359  0.00  0.00    +0.000 A 
ATOM      9  C   UNL     1       5.450   6.098  17.765  0.00  0.00    +0.000 A 
ATOM     10  C   UNL     1       6.030   5.186  18.644  0.00  0.00    +0.000 A 
ATOM     11  C   UNL     1       7.301   5.500  19.143  0.00  0.00    +0.000 A 
ATOM     12  C   UNL     1       7.985   6.658  18.717  0.00  0.00    +0.000 A 
BRANCH   7  16
ATOM     13  C   UNL     1       9.451  10.714  17.610  0.00  0.00    +0.000 C 
ATOM     14  C   UNL     1       8.755   9.564  18.273  0.00  0.00    +0.000 C 
ATOM     15  O   UNL     1       8.818   9.448  19.495  0.00  0.00    +0.000 OA
ATOM     16  N   UNL     1       8.104   8.700  17.406  0.00  0.00    +0.000 N 
ATOM     17  H   UNL     1       8.250   8.823  16.415  0.00  0.00    +0.000 HD
ENDBRANCH   7  16
ENDBRANCH   3  10
ENDBRANCH   1   4
BRANCH   1  18
ATOM     18  S   UNL     1       2.114   2.159  19.295  0.00  0.00    +0.000 S 
BRANCH  18  19
ATOM     19  C   UNL     1       2.067   3.798  19.915  0.00  0.00    +0.000 A 
ATOM     20  N   UNL     1       2.328   4.059  21.203  0.00  0.00    +0.000 NA
ATOM     21  N   UNL     1       2.285   5.407  21.217  0.00  0.00    +0.000 N 
ATOM     22  C   UNL     1       1.992   5.908  19.976  0.00  0.00    +0.000 A 
ATOM     23  N   UNL     1       1.823   4.892  19.144  0.00  0.00    +0.000 NA
ATOM     24  H   UNL     1       2.448   5.916  22.075  0.00  0.00    +0.000 HD
BRANCH  22  25
ATOM     25  C   UNL     1       1.824   7.327  19.694  0.00  0.00    +0.000 A 
ATOM     26  C   UNL     1       1.219   8.197  20.613  0.00  0.00    +0.000 A 
ATOM     27  C   UNL     1       1.014   9.540  20.289  0.00  0.00    +0.000 A 
ATOM     28  C   UNL     1       1.431  10.040  19.051  0.00  0.00    +0.000 A 
ATOM     29  C   UNL     1       1.267  11.493  18.710  0.00  0.00    +0.000 C 
ATOM     30  C   UNL     1       2.045   9.177  18.138  0.00  0.00    +0.000 A 
ATOM     31  C   UNL     1       2.248   7.835  18.462  0.00  0.00    +0.000 A 
ENDBRANCH  22  25
ENDBRANCH  18  19
ENDBRANCH   1  18
TORSDOF 6
ENDMDL
