MODEL 1
REMARK VINA RESULT:      -8.4      0.000      0.000
REMARK  Name = 
REMARK  11 active torsions:
REMARK  status: ('A' for Active; 'I' for Inactive)
REMARK    1  A    between atoms: C_1  and  C_2
REMARK    2  A    between atoms: C_2  and  C_3
REMARK    3  A    between atoms: C_3  and  C_4
REMARK    4  A    between atoms: C_4  and  N_5
REMARK    5  A    between atoms: C_7  and  C_8
REMARK    6  A    between atoms: N_11  and  C_12
REMARK    7  A    between atoms: C_12  and  C_13
REMARK    8  A    between atoms: C_13  and  O_14
REMARK    9  A    between atoms: O_14  and  C_15
REMARK   10  A    between atoms: C_20  and  C_21
REMARK   11  A    between atoms: C_21  and  O_23
REMARK                            x       y       z     vdW  Elec       q    Type
REMARK                         _______ _______ _______ _____ _____    ______ ____
ROOT
ATOM      1  C   UNL     1       6.155   4.903  16.771  0.00  0.00    +0.000 C 
ATOM      2  C   UNL     1       7.189   4.498  17.825  0.00  0.00    +0.000 C 
ATOM      3  C   UNL     1       7.681   5.673  18.671  0.00  0.00    +0.000 C 
ATOM      4  N   UNL     1       8.122   6.850  17.903  0.00  0.00    +0.000 NA
ATOM      5  C   UNL     1       7.214   7.229  16.809  0.00  0.00    +0.000 C 
ATOM      6  C   UNL     1       6.736   6.057  15.948  0.00  0.00    +0.000 C 
ENDROOT
BRANCH   1   9
ATOM      7  N   UNL     1       3.018   6.279  18.212  0.00  0.00    +0.000 N 
ATOM      8  C   UNL     1       4.280   6.424  17.709  0.00  0.00    +0.000 A 
ATOM      9  C   UNL     1       4.783   5.187  17.350  0.00  0.00    +0.000 A 
ATOM     10  C   UNL     1       3.744   4.240  17.663  0.00  0.00    +0.000 A 
ATOM     11  C   UNL     1       3.631   2.835  17.556  0.00  0.00    +0.000 A 
ATOM     12  C   UNL     1       2.451   2.193  17.960  0.00  0.00    +0.000 A 
ATOM     13  C   UNL     1       1.394   2.936  18.460  0.00  0.00    +0.000 A 
ATOM     14  F   UNL     1       0.271   2.308  18.840  0.00  0.00    +0.000 F 
ATOM     15  C   UNL     1       1.464   4.319  18.583  0.00  0.00    +0.000 A 
ATOM     16  C   UNL     1       2.650   4.955  18.182  0.00  0.00    +0.000 A 
BRANCH   7  17
ATOM     17  C   UNL     1       2.248   7.390  18.751  0.00  0.00    +0.000 C 
BRANCH  17  18
ATOM     18  C   UNL     1       2.096   8.540  17.754  0.00  0.00    +0.000 C 
BRANCH  18  20
ATOM     19  C   UNL     1       1.635  10.895  18.487  0.00  0.00    +0.000 C 
ATOM     20  C   UNL     1       1.029   9.529  18.216  0.00  0.00    +0.000 C 
ENDBRANCH  18  20
ENDBRANCH  17  18
ENDBRANCH   7  17
ENDBRANCH   1   9
BRANCH   4  21
ATOM     21  C   UNL     1       8.338   8.016  18.795  0.00  0.00    +0.000 C 
BRANCH  21  22
ATOM     22  C   UNL     1       8.429   9.340  18.024  0.00  0.00    +0.000 C 
BRANCH  22  23
ATOM     23  O   UNL     1       8.487  10.460  18.926  0.00  0.00    +0.000 OA
BRANCH  23  24
ATOM     24  C   UNL     1       9.715  11.094  18.950  0.00  0.00    +0.000 A 
ATOM     25  C   UNL     1      10.487  11.268  17.787  0.00  0.00    +0.000 A 
ATOM     26  C   UNL     1      11.731  11.896  17.836  0.00  0.00    +0.000 A 
ATOM     27  C   UNL     1      12.217  12.380  19.042  0.00  0.00    +0.000 A 
ATOM     28  C   UNL     1      11.449  12.245  20.200  0.00  0.00    +0.000 A 
ATOM     29  C   UNL     1      10.192  11.609  20.171  0.00  0.00    +0.000 A 
BRANCH  29  30
ATOM     30  C   UNL     1       9.476  11.515  21.481  0.00  0.00    +0.000 C 
ATOM     31  O   UNL     1       9.321  12.479  22.219  0.00  0.00    +0.000 OA
BRANCH  30  32
ATOM     32  O   UNL     1       9.011  10.292  21.808  0.00  0.00    +0.000 OA
ATOM     33  H   UNL     1       9.260  10.025  22.716  0.00  0.00    +0.000 HD
ENDBRANCH  30  32
ENDBRANCH  29  30
ENDBRANCH  23  24
ENDBRANCH  22  23
ENDBRANCH  21  22
ENDBRANCH   4  21
TORSDOF 10
ENDMDL
MODEL 2
REMARK VINA RESULT:      -8.2      4.523      7.634
REMARK  Name = 
REMARK  11 active torsions:
REMARK  status: ('A' for Active; 'I' for Inactive)
REMARK    1  A    between atoms: C_1  and  C_2
REMARK    2  A    between atoms: C_2  and  C_3
REMARK    3  A    between atoms: C_3  and  C_4
REMARK    4  A    between atoms: C_4  and  N_5
REMARK    5  A    between atoms: C_7  and  C_8
REMARK    6  A    between atoms: N_11  and  C_12
REMARK    7  A    between atoms: C_12  and  C_13
REMARK    8  A    between atoms: C_13  and  O_14
REMARK    9  A    between atoms: O_14  and  C_15
REMARK   10  A    between atoms: C_20  and  C_21
REMARK   11  A    between atoms: C_21  and  O_23
REMARK                            x       y       z     vdW  Elec       q    Type
REMARK                         _______ _______ _______ _____ _____    ______ ____
ROOT
ATOM      1  C   UNL     1       4.001   2.523  18.413  0.00  0.00    +0.000 C 
ATOM      2  C   UNL     1       2.526   2.385  18.030  0.00  0.00    +0.000 C 
ATOM      3  C   UNL     1       1.643   3.489  18.615  0.00  0.00    +0.000 C 
ATOM      4  N   UNL     1       1.809   3.715  20.061  0.00  0.00    +0.000 NA
ATOM      5  C   UNL     1       3.211   3.759  20.507  0.00  0.00    +0.000 C 
ATOM      6  C   UNL     1       4.091   2.643  19.938  0.00  0.00    +0.000 C 
ENDROOT
BRANCH   1   9
ATOM      7  N   UNL     1       5.379   5.005  16.014  0.00  0.00    +0.000 N 
ATOM      8  C   UNL     1       4.542   3.974  16.338  0.00  0.00    +0.000 A 
ATOM      9  C   UNL     1       4.719   3.629  17.664  0.00  0.00    +0.000 A 
ATOM     10  C   UNL     1       5.733   4.520  18.166  0.00  0.00    +0.000 A 
ATOM     11  C   UNL     1       6.372   4.677  19.417  0.00  0.00    +0.000 A 
ATOM     12  C   UNL     1       7.349   5.667  19.586  0.00  0.00    +0.000 A 
ATOM     13  C   UNL     1       7.687   6.497  18.529  0.00  0.00    +0.000 A 
ATOM     14  F   UNL     1       8.623   7.441  18.708  0.00  0.00    +0.000 F 
ATOM     15  C   UNL     1       7.085   6.374  17.282  0.00  0.00    +0.000 A 
ATOM     16  C   UNL     1       6.111   5.377  17.117  0.00  0.00    +0.000 A 
BRANCH   7  17
ATOM     17  C   UNL     1       5.487   5.546  14.668  0.00  0.00    +0.000 C 
BRANCH  17  18
ATOM     18  C   UNL     1       6.616   4.900  13.863  0.00  0.00    +0.000 C 
BRANCH  18  20
ATOM     19  C   UNL     1       5.684   3.411  12.071  0.00  0.00    +0.000 C 
ATOM     20  C   UNL     1       6.263   3.467  13.474  0.00  0.00    +0.000 C 
ENDBRANCH  18  20
ENDBRANCH  17  18
ENDBRANCH   7  17
ENDBRANCH   1   9
BRANCH   4  21
ATOM     21  C   UNL     1       1.114   4.954  20.487  0.00  0.00    +0.000 C 
BRANCH  21  22
ATOM     22  C   UNL     1       1.900   6.224  20.131  0.00  0.00    +0.000 C 
BRANCH  22  23
ATOM     23  O   UNL     1       1.497   7.330  20.959  0.00  0.00    +0.000 OA
BRANCH  23  24
ATOM     24  C   UNL     1       1.282   8.502  20.258  0.00  0.00    +0.000 A 
ATOM     25  C   UNL     1       1.743   8.679  18.941  0.00  0.00    +0.000 A 
ATOM     26  C   UNL     1       1.530   9.876  18.258  0.00  0.00    +0.000 A 
ATOM     27  C   UNL     1       0.835  10.909  18.870  0.00  0.00    +0.000 A 
ATOM     28  C   UNL     1       0.342  10.738  20.164  0.00  0.00    +0.000 A 
ATOM     29  C   UNL     1       0.551   9.538  20.872  0.00  0.00    +0.000 A 
BRANCH  29  30
ATOM     30  C   UNL     1      -0.015   9.487  22.256  0.00  0.00    +0.000 C 
ATOM     31  O   UNL     1       0.254  10.321  23.109  0.00  0.00    +0.000 OA
BRANCH  30  32
ATOM     32  O   UNL     1      -0.843   8.454  22.512  0.00  0.00    +0.000 OA
ATOM     33  H   UNL     1      -1.124   8.420  23.449  0.00  0.00    +0.000 HD
ENDBRANCH  30  32
ENDBRANCH  29  30
ENDBRANCH  23  24
ENDBRANCH  22  23
ENDBRANCH  21  22
ENDBRANCH   4  21
TORSDOF 10
ENDMDL
MODEL 3
REMARK VINA RESULT:      -8.2      3.683      7.556
REMARK  Name = 
REMARK  11 active torsions:
REMARK  status: ('A' for Active; 'I' for Inactive)
REMARK    1  A    between atoms: C_1  and  C_2
REMARK    2  A    between atoms: C_2  and  C_3
REMARK    3  A    between atoms: C_3  and  C_4
REMARK    4  A    between atoms: C_4  and  N_5
REMARK    5  A    between atoms: C_7  and  C_8
REMARK    6  A    between atoms: N_11  and  C_12
REMARK    7  A    between atoms: C_12  and  C_13
REMARK    8  A    between atoms: C_13  and  O_14
REMARK    9  A    between atoms: O_14  and  C_15
REMARK   10  A    between atoms: C_20  and  C_21
REMARK   11  A    between atoms: C_21  and  O_23
REMARK                            x       y       z     vdW  Elec       q    Type
REMARK                         _______ _______ _______ _____ _____    ______ ____
ROOT
ATOM      1  C   UNL     1       3.771   2.709  17.731  0.00  0.00    +0.000 C 
ATOM      2  C   UNL     1       2.441   3.242  17.193  0.00  0.00    +0.000 C 
ATOM      3  C   UNL     1       1.893   4.422  17.997  0.00  0.00    +0.000 C 
ATOM      4  N   UNL     1       1.845   4.212  19.454  0.00  0.00    +0.000 NA
ATOM      5  C   UNL     1       3.063   3.609  20.016  0.00  0.00    +0.000 C 
ATOM      6  C   UNL     1       3.602   2.414  19.224  0.00  0.00    +0.000 C 
ENDROOT
BRANCH   1   9
ATOM      7  N   UNL     1       6.671   5.032  17.644  0.00  0.00    +0.000 N 
ATOM      8  C   UNL     1       5.704   4.332  18.309  0.00  0.00    +0.000 A 
ATOM      9  C   UNL     1       4.953   3.602  17.408  0.00  0.00    +0.000 A 
ATOM     10  C   UNL     1       5.515   3.887  16.113  0.00  0.00    +0.000 A 
ATOM     11  C   UNL     1       5.203   3.481  14.795  0.00  0.00    +0.000 A 
ATOM     12  C   UNL     1       5.965   3.954  13.717  0.00  0.00    +0.000 A 
ATOM     13  C   UNL     1       7.027   4.814  13.942  0.00  0.00    +0.000 A 
ATOM     14  F   UNL     1       7.747   5.255  12.900  0.00  0.00    +0.000 F 
ATOM     15  C   UNL     1       7.366   5.240  15.222  0.00  0.00    +0.000 A 
ATOM     16  C   UNL     1       6.596   4.768  16.297  0.00  0.00    +0.000 A 
BRANCH   7  17
ATOM     17  C   UNL     1       7.577   5.958  18.305  0.00  0.00    +0.000 C 
BRANCH  17  18
ATOM     18  C   UNL     1       7.094   7.407  18.233  0.00  0.00    +0.000 C 
BRANCH  18  20
ATOM     19  C   UNL     1       8.552   9.447  18.337  0.00  0.00    +0.000 C 
ATOM     20  C   UNL     1       8.092   8.281  17.479  0.00  0.00    +0.000 C 
ENDBRANCH  18  20
ENDBRANCH  17  18
ENDBRANCH   7  17
ENDBRANCH   1   9
BRANCH   4  21
ATOM     21  C   UNL     1       1.547   5.481  20.163  0.00  0.00    +0.000 C 
BRANCH  21  22
ATOM     22  C   UNL     1       2.660   6.525  19.997  0.00  0.00    +0.000 C 
BRANCH  22  23
ATOM     23  O   UNL     1       2.159   7.717  19.364  0.00  0.00    +0.000 OA
BRANCH  23  24
ATOM     24  C   UNL     1       1.414   8.523  20.203  0.00  0.00    +0.000 A 
ATOM     25  C   UNL     1       1.481   8.408  21.602  0.00  0.00    +0.000 A 
ATOM     26  C   UNL     1       0.708   9.220  22.430  0.00  0.00    +0.000 A 
ATOM     27  C   UNL     1      -0.131  10.177  21.876  0.00  0.00    +0.000 A 
ATOM     28  C   UNL     1      -0.185  10.327  20.490  0.00  0.00    +0.000 A 
ATOM     29  C   UNL     1       0.586   9.513  19.637  0.00  0.00    +0.000 A 
BRANCH  29  30
ATOM     30  C   UNL     1       0.426   9.764  18.171  0.00  0.00    +0.000 C 
ATOM     31  O   UNL     1      -0.669   9.860  17.634  0.00  0.00    +0.000 OA
BRANCH  30  32
ATOM     32  O   UNL     1       1.571   9.875  17.467  0.00  0.00    +0.000 OA
ATOM     33  H   UNL     1       1.802   9.051  16.991  0.00  0.00    +0.000 HD
ENDBRANCH  30  32
ENDBRANCH  29  30
ENDBRANCH  23  24
ENDBRANCH  22  23
ENDBRANCH  21  22
ENDBRANCH   4  21
TORSDOF 10
ENDMDL
MODEL 4
REMARK VINA RESULT:      -8.2      1.657      3.329
REMARK  Name = 
REMARK  11 active torsions:
REMARK  status: ('A' for Active; 'I' for Inactive)
REMARK    1  A    between atoms: C_1  and  C_2
REMARK    2  A    between atoms: C_2  and  C_3
REMARK    3  A    between atoms: C_3  and  C_4
REMARK    4  A    between atoms: C_4  and  N_5
REMARK    5  A    between atoms: C_7  and  C_8
REMARK    6  A    between atoms: N_11  and  C_12
REMARK    7  A    between atoms: C_12  and  C_13
REMARK    8  A    between atoms: C_13  and  O_14
REMARK    9  A    between atoms: O_14  and  C_15
REMARK   10  A    between atoms: C_20  and  C_21
REMARK   11  A    between atoms: C_21  and  O_23
REMARK                            x       y       z     vdW  Elec       q    Type
REMARK                         _______ _______ _______ _____ _____    ______ ____
ROOT
ATOM      1  C   UNL     1       5.293   5.267  17.093  0.00  0.00    +0.000 C 
ATOM      2  C   UNL     1       6.613   4.641  17.548  0.00  0.00    +0.000 C 
ATOM      3  C   UNL     1       7.511   5.612  18.314  0.00  0.00    +0.000 C 
ATOM      4  N   UNL     1       7.725   6.912  17.655  0.00  0.00    +0.000 NA
ATOM      5  C   UNL     1       6.501   7.519  17.109  0.00  0.00    +0.000 C 
ATOM      6  C   UNL     1       5.611   6.552  16.324  0.00  0.00    +0.000 C 
ENDROOT
BRANCH   1   9
ATOM      7  N   UNL     1       3.057   5.068  20.056  0.00  0.00    +0.000 N 
ATOM      8  C   UNL     1       4.033   4.563  19.244  0.00  0.00    +0.000 A 
ATOM      9  C   UNL     1       4.295   5.453  18.220  0.00  0.00    +0.000 A 
ATOM     10  C   UNL     1       3.410   6.568  18.439  0.00  0.00    +0.000 A 
ATOM     11  C   UNL     1       3.169   7.781  17.753  0.00  0.00    +0.000 A 
ATOM     12  C   UNL     1       2.210   8.682  18.238  0.00  0.00    +0.000 A 
ATOM     13  C   UNL     1       1.503   8.388  19.392  0.00  0.00    +0.000 A 
ATOM     14  F   UNL     1       0.591   9.262  19.844  0.00  0.00    +0.000 F 
ATOM     15  C   UNL     1       1.708   7.206  20.095  0.00  0.00    +0.000 A 
ATOM     16  C   UNL     1       2.664   6.305  19.602  0.00  0.00    +0.000 A 
BRANCH   7  17
ATOM     17  C   UNL     1       2.503   4.333  21.182  0.00  0.00    +0.000 C 
BRANCH  17  18
ATOM     18  C   UNL     1       1.120   3.752  20.884  0.00  0.00    +0.000 C 
BRANCH  18  20
ATOM     19  C   UNL     1       1.640   1.910  19.261  0.00  0.00    +0.000 C 
ATOM     20  C   UNL     1       1.021   3.286  19.435  0.00  0.00    +0.000 C 
ENDBRANCH  18  20
ENDBRANCH  17  18
ENDBRANCH   7  17
ENDBRANCH   1   9
BRANCH   4  21
ATOM     21  C   UNL     1       8.388   7.870  18.574  0.00  0.00    +0.000 C 
BRANCH  21  22
ATOM     22  C   UNL     1       8.433   9.296  18.007  0.00  0.00    +0.000 C 
BRANCH  22  23
ATOM     23  O   UNL     1       8.531  10.269  19.062  0.00  0.00    +0.000 OA
BRANCH  23  24
ATOM     24  C   UNL     1       9.702  11.003  19.037  0.00  0.00    +0.000 A 
ATOM     25  C   UNL     1      10.454  11.168  17.861  0.00  0.00    +0.000 A 
ATOM     26  C   UNL     1      11.641  11.899  17.862  0.00  0.00    +0.000 A 
ATOM     27  C   UNL     1      12.087  12.497  19.031  0.00  0.00    +0.000 A 
ATOM     28  C   UNL     1      11.335  12.372  20.200  0.00  0.00    +0.000 A 
ATOM     29  C   UNL     1      10.135  11.634  20.220  0.00  0.00    +0.000 A 
BRANCH  29  30
ATOM     30  C   UNL     1       9.432  11.564  21.539  0.00  0.00    +0.000 C 
ATOM     31  O   UNL     1       9.245  12.549  22.240  0.00  0.00    +0.000 OA
BRANCH  30  32
ATOM     32  O   UNL     1       9.015  10.338  21.916  0.00  0.00    +0.000 OA
ATOM     33  H   UNL     1       9.273   9.640  21.281  0.00  0.00    +0.000 HD
ENDBRANCH  30  32
ENDBRANCH  29  30
ENDBRANCH  23  24
ENDBRANCH  22  23
ENDBRANCH  21  22
ENDBRANCH   4  21
TORSDOF 10
ENDMDL
MODEL 5
REMARK VINA RESULT:      -8.1      4.562      7.943
REMARK  Name = 
REMARK  11 active torsions:
REMARK  status: ('A' for Active; 'I' for Inactive)
REMARK    1  A    between atoms: C_1  and  C_2
REMARK    2  A    between atoms: C_2  and  C_3
REMARK    3  A    between atoms: C_3  and  C_4
REMARK    4  A    between atoms: C_4  and  N_5
REMARK    5  A    between atoms: C_7  and  C_8
REMARK    6  A    between atoms: N_11  and  C_12
REMARK    7  A    between atoms: C_12  and  C_13
REMARK    8  A    between atoms: C_13  and  O_14
REMARK    9  A    between atoms: O_14  and  C_15
REMARK   10  A    between atoms: C_20  and  C_21
REMARK   11  A    between atoms: C_21  and  O_23
REMARK                            x       y       z     vdW  Elec       q    Type
REMARK                         _______ _______ _______ _____ _____    ______ ____
ROOT
ATOM      1  C   UNL     1       3.574   2.637  18.518  0.00  0.00    +0.000 C 
ATOM      2  C   UNL     1       2.093   2.653  18.131  0.00  0.00    +0.000 C 
ATOM      3  C   UNL     1       1.362   3.916  18.587  0.00  0.00    +0.000 C 
ATOM      4  N   UNL     1       1.557   4.269  20.004  0.00  0.00    +0.000 NA
ATOM      5  C   UNL     1       2.952   4.177  20.461  0.00  0.00    +0.000 C 
ATOM      6  C   UNL     1       3.679   2.903  20.023  0.00  0.00    +0.000 C 
ENDROOT
BRANCH   1   9
ATOM      7  N   UNL     1       5.316   4.597  15.884  0.00  0.00    +0.000 N 
ATOM      8  C   UNL     1       4.379   3.690  16.293  0.00  0.00    +0.000 A 
ATOM      9  C   UNL     1       4.429   3.556  17.668  0.00  0.00    +0.000 A 
ATOM     10  C   UNL     1       5.471   4.449  18.107  0.00  0.00    +0.000 A 
ATOM     11  C   UNL     1       6.025   4.766  19.368  0.00  0.00    +0.000 A 
ATOM     12  C   UNL     1       7.063   5.705  19.462  0.00  0.00    +0.000 A 
ATOM     13  C   UNL     1       7.542   6.326  18.320  0.00  0.00    +0.000 A 
ATOM     14  F   UNL     1       8.533   7.224  18.427  0.00  0.00    +0.000 F 
ATOM     15  C   UNL     1       7.025   6.041  17.061  0.00  0.00    +0.000 A 
ATOM     16  C   UNL     1       5.991   5.096  16.972  0.00  0.00    +0.000 A 
BRANCH   7  17
ATOM     17  C   UNL     1       5.565   4.902  14.484  0.00  0.00    +0.000 C 
BRANCH  17  18
ATOM     18  C   UNL     1       6.603   3.971  13.854  0.00  0.00    +0.000 C 
BRANCH  18  20
ATOM     19  C   UNL     1       4.896   3.290  12.145  0.00  0.00    +0.000 C 
ATOM     20  C   UNL     1       6.323   3.762  12.369  0.00  0.00    +0.000 C 
ENDBRANCH  18  20
ENDBRANCH  17  18
ENDBRANCH   7  17
ENDBRANCH   1   9
BRANCH   4  21
ATOM     21  C   UNL     1       1.029   5.626  20.290  0.00  0.00    +0.000 C 
BRANCH  21  22
ATOM     22  C   UNL     1       2.140   6.680  20.400  0.00  0.00    +0.000 C 
BRANCH  22  23
ATOM     23  O   UNL     1       1.766   7.896  19.727  0.00  0.00    +0.000 OA
BRANCH  23  24
ATOM     24  C   UNL     1       1.061   8.779  20.522  0.00  0.00    +0.000 A 
ATOM     25  C   UNL     1       1.096   8.711  21.926  0.00  0.00    +0.000 A 
ATOM     26  C   UNL     1       0.363   9.601  22.709  0.00  0.00    +0.000 A 
ATOM     27  C   UNL     1      -0.400  10.591  22.104  0.00  0.00    +0.000 A 
ATOM     28  C   UNL     1      -0.420  10.694  20.713  0.00  0.00    +0.000 A 
ATOM     29  C   UNL     1       0.311   9.800  19.905  0.00  0.00    +0.000 A 
BRANCH  29  30
ATOM     30  C   UNL     1       0.194  10.008  18.428  0.00  0.00    +0.000 C 
ATOM     31  O   UNL     1      -0.866  10.282  17.882  0.00  0.00    +0.000 OA
BRANCH  30  32
ATOM     32  O   UNL     1       1.337   9.869  17.725  0.00  0.00    +0.000 OA
ATOM     33  H   UNL     1       2.104   9.653  18.292  0.00  0.00    +0.000 HD
ENDBRANCH  30  32
ENDBRANCH  29  30
ENDBRANCH  23  24
ENDBRANCH  22  23
ENDBRANCH  21  22
ENDBRANCH   4  21
TORSDOF 10
ENDMDL
MODEL 6
REMARK VINA RESULT:      -8.1      4.196      7.572
REMARK  Name = 
REMARK  11 active torsions:
REMARK  status: ('A' for Active; 'I' for Inactive)
REMARK    1  A    between atoms: C_1  and  C_2
REMARK    2  A    between atoms: C_2  and  C_3
REMARK    3  A    between atoms: C_3  and  C_4
REMARK    4  A    between atoms: C_4  and  N_5
REMARK    5  A    between atoms: C_7  and  C_8
REMARK    6  A    between atoms: N_11  and  C_12
REMARK    7  A    between atoms: C_12  and  C_13
REMARK    8  A    between atoms: C_13  and  O_14
REMARK    9  A    between atoms: O_14  and  C_15
REMARK   10  A    between atoms: C_20  and  C_21
REMARK   11  A    between atoms: C_21  and  O_23
REMARK                            x       y       z     vdW  Elec       q    Type
REMARK                         _______ _______ _______ _____ _____    ______ ____
ROOT
ATOM      1  C   UNL     1       3.258   3.179  17.561  0.00  0.00    +0.000 C 
ATOM      2  C   UNL     1       2.159   4.210  17.290  0.00  0.00    +0.000 C 
ATOM      3  C   UNL     1       2.054   5.281  18.376  0.00  0.00    +0.000 C 
ATOM      4  N   UNL     1       1.984   4.763  19.754  0.00  0.00    +0.000 NA
ATOM      5  C   UNL     1       2.955   3.697  20.046  0.00  0.00    +0.000 C 
ATOM      6  C   UNL     1       3.048   2.613  18.968  0.00  0.00    +0.000 C 
ENDROOT
BRANCH   1   9
ATOM      7  N   UNL     1       6.738   4.481  17.663  0.00  0.00    +0.000 N 
ATOM      8  C   UNL     1       5.608   4.008  18.268  0.00  0.00    +0.000 A 
ATOM      9  C   UNL     1       4.657   3.709  17.311  0.00  0.00    +0.000 A 
ATOM     10  C   UNL     1       5.267   4.027  16.045  0.00  0.00    +0.000 A 
ATOM     11  C   UNL     1       4.830   3.969  14.702  0.00  0.00    +0.000 A 
ATOM     12  C   UNL     1       5.690   4.364  13.667  0.00  0.00    +0.000 A 
ATOM     13  C   UNL     1       6.970   4.806  13.959  0.00  0.00    +0.000 A 
ATOM     14  F   UNL     1       7.781   5.177  12.958  0.00  0.00    +0.000 F 
ATOM     15  C   UNL     1       7.438   4.880  15.267  0.00  0.00    +0.000 A 
ATOM     16  C   UNL     1       6.570   4.489  16.299  0.00  0.00    +0.000 A 
BRANCH   7  17
ATOM     17  C   UNL     1       7.895   4.957  18.406  0.00  0.00    +0.000 C 
BRANCH  17  18
ATOM     18  C   UNL     1       7.674   6.341  19.018  0.00  0.00    +0.000 C 
BRANCH  18  20
ATOM     19  C   UNL     1       6.761   8.038  17.411  0.00  0.00    +0.000 C 
ATOM     20  C   UNL     1       8.018   7.443  18.021  0.00  0.00    +0.000 C 
ENDBRANCH  18  20
ENDBRANCH  17  18
ENDBRANCH   7  17
ENDBRANCH   1   9
BRANCH   4  21
ATOM     21  C   UNL     1       2.140   5.860  20.741  0.00  0.00    +0.000 C 
BRANCH  21  22
ATOM     22  C   UNL     1       1.972   7.250  20.110  0.00  0.00    +0.000 C 
BRANCH  22  23
ATOM     23  O   UNL     1       1.399   8.177  21.049  0.00  0.00    +0.000 OA
BRANCH  23  24
ATOM     24  C   UNL     1       0.738   9.236  20.455  0.00  0.00    +0.000 A 
ATOM     25  C   UNL     1       0.763   9.445  19.064  0.00  0.00    +0.000 A 
ATOM     26  C   UNL     1       0.102  10.528  18.487  0.00  0.00    +0.000 A 
ATOM     27  C   UNL     1      -0.612  11.410  19.285  0.00  0.00    +0.000 A 
ATOM     28  C   UNL     1      -0.675  11.199  20.663  0.00  0.00    +0.000 A 
ATOM     29  C   UNL     1      -0.010  10.112  21.265  0.00  0.00    +0.000 A 
BRANCH  29  30
ATOM     30  C   UNL     1      -0.143  10.005  22.751  0.00  0.00    +0.000 C 
ATOM     31  O   UNL     1      -1.186  10.255  23.340  0.00  0.00    +0.000 OA
BRANCH  30  32
ATOM     32  O   UNL     1       0.967   9.619  23.413  0.00  0.00    +0.000 OA
ATOM     33  H   UNL     1       0.877   8.731  23.813  0.00  0.00    +0.000 HD
ENDBRANCH  30  32
ENDBRANCH  29  30
ENDBRANCH  23  24
ENDBRANCH  22  23
ENDBRANCH  21  22
ENDBRANCH   4  21
TORSDOF 10
ENDMDL
MODEL 7
REMARK VINA RESULT:      -8.0      3.765      7.399
REMARK  Name = 
REMARK  11 active torsions:
REMARK  status: ('A' for Active; 'I' for Inactive)
REMARK    1  A    between atoms: C_1  and  C_2
REMARK    2  A    between atoms: C_2  and  C_3
REMARK    3  A    between atoms: C_3  and  C_4
REMARK    4  A    between atoms: C_4  and  N_5
REMARK    5  A    between atoms: C_7  and  C_8
REMARK    6  A    between atoms: N_11  and  C_12
REMARK    7  A    between atoms: C_12  and  C_13
REMARK    8  A    between atoms: C_13  and  O_14
REMARK    9  A    between atoms: O_14  and  C_15
REMARK   10  A    between atoms: C_20  and  C_21
REMARK   11  A    between atoms: C_21  and  O_23
REMARK                            x       y       z     vdW  Elec       q    Type
REMARK                         _______ _______ _______ _____ _____    ______ ____
ROOT
ATOM      1  C   UNL     1       3.713   3.037  17.521  0.00  0.00    +0.000 C 
ATOM      2  C   UNL     1       2.235   3.389  17.330  0.00  0.00    +0.000 C 
ATOM      3  C   UNL     1       1.708   4.372  18.375  0.00  0.00    +0.000 C 
ATOM      4  N   UNL     1       2.004   4.011  19.773  0.00  0.00    +0.000 NA
ATOM      5  C   UNL     1       3.389   3.569  20.000  0.00  0.00    +0.000 C 
ATOM      6  C   UNL     1       3.912   2.568  18.966  0.00  0.00    +0.000 C 
ENDROOT
BRANCH   1   9
ATOM      7  N   UNL     1       5.823   6.065  17.090  0.00  0.00    +0.000 N 
ATOM      8  C   UNL     1       4.946   5.296  17.802  0.00  0.00    +0.000 A 
ATOM      9  C   UNL     1       4.656   4.145  17.095  0.00  0.00    +0.000 A 
ATOM     10  C   UNL     1       5.417   4.235  15.875  0.00  0.00    +0.000 A 
ATOM     11  C   UNL     1       5.551   3.407  14.737  0.00  0.00    +0.000 A 
ATOM     12  C   UNL     1       6.397   3.791  13.687  0.00  0.00    +0.000 A 
ATOM     13  C   UNL     1       7.105   4.979  13.765  0.00  0.00    +0.000 A 
ATOM     14  F   UNL     1       7.911   5.331  12.752  0.00  0.00    +0.000 F 
ATOM     15  C   UNL     1       7.000   5.823  14.865  0.00  0.00    +0.000 A 
ATOM     16  C   UNL     1       6.148   5.436  15.911  0.00  0.00    +0.000 A 
BRANCH   7  17
ATOM     17  C   UNL     1       6.263   7.380  17.530  0.00  0.00    +0.000 C 
BRANCH  17  18
ATOM     18  C   UNL     1       7.664   7.358  18.143  0.00  0.00    +0.000 C 
BRANCH  18  20
ATOM     19  C   UNL     1       8.712   9.470  19.002  0.00  0.00    +0.000 C 
ATOM     20  C   UNL     1       8.445   8.616  17.775  0.00  0.00    +0.000 C 
ENDBRANCH  18  20
ENDBRANCH  17  18
ENDBRANCH   7  17
ENDBRANCH   1   9
BRANCH   4  21
ATOM     21  C   UNL     1       1.685   5.134  20.689  0.00  0.00    +0.000 C 
BRANCH  21  22
ATOM     22  C   UNL     1       1.931   6.507  20.048  0.00  0.00    +0.000 C 
BRANCH  22  23
ATOM     23  O   UNL     1       1.681   7.567  20.988  0.00  0.00    +0.000 OA
BRANCH  23  24
ATOM     24  C   UNL     1       1.252   8.743  20.402  0.00  0.00    +0.000 A 
ATOM     25  C   UNL     1       1.571   9.074  19.073  0.00  0.00    +0.000 A 
ATOM     26  C   UNL     1       1.141  10.274  18.507  0.00  0.00    +0.000 A 
ATOM     27  C   UNL     1       0.366  11.153  19.249  0.00  0.00    +0.000 A 
ATOM     28  C   UNL     1       0.012  10.824  20.558  0.00  0.00    +0.000 A 
ATOM     29  C   UNL     1       0.441   9.619  21.150  0.00  0.00    +0.000 A 
BRANCH  29  30
ATOM     30  C   UNL     1       0.005   9.393  22.563  0.00  0.00    +0.000 C 
ATOM     31  O   UNL     1       0.450  10.039  23.502  0.00  0.00    +0.000 OA
BRANCH  30  32
ATOM     32  O   UNL     1      -0.911   8.420  22.745  0.00  0.00    +0.000 OA
ATOM     33  H   UNL     1      -1.717   8.558  22.207  0.00  0.00    +0.000 HD
ENDBRANCH  30  32
ENDBRANCH  29  30
ENDBRANCH  23  24
ENDBRANCH  22  23
ENDBRANCH  21  22
ENDBRANCH   4  21
TORSDOF 10
ENDMDL
MODEL 8
REMARK VINA RESULT:      -7.9      1.322      2.104
REMARK  Name = 
REMARK  11 active torsions:
REMARK  status: ('A' for Active; 'I' for Inactive)
REMARK    1  A    between atoms: C_1  and  C_2
REMARK    2  A    between atoms: C_2  and  C_3
REMARK    3  A    between atoms: C_3  and  C_4
REMARK    4  A    between atoms: C_4  and  N_5
REMARK    5  A    between atoms: C_7  and  C_8
REMARK    6  A    between atoms: N_11  and  C_12
REMARK    7  A    between atoms: C_12  and  C_13
REMARK    8  A    between atoms: C_13  and  O_14
REMARK    9  A    between atoms: O_14  and  C_15
REMARK   10  A    between atoms: C_20  and  C_21
REMARK   11  A    between atoms: C_21  and  O_23
REMARK                            x       y       z     vdW  Elec       q    Type
REMARK                         _______ _______ _______ _____ _____    ______ ____
ROOT
ATOM      1  C   UNL     1       6.446   4.453  17.953  0.00  0.00    +0.000 C 
ATOM      2  C   UNL     1       7.405   5.020  19.003  0.00  0.00    +0.000 C 
ATOM      3  C   UNL     1       7.585   6.535  18.902  0.00  0.00    +0.000 C 
ATOM      4  N   UNL     1       7.901   7.034  17.552  0.00  0.00    +0.000 NA
ATOM      5  C   UNL     1       7.075   6.449  16.485  0.00  0.00    +0.000 C 
ATOM      6  C   UNL     1       6.910   4.930  16.573  0.00  0.00    +0.000 C 
ENDROOT
BRANCH   1   9
ATOM      7  N   UNL     1       3.098   5.838  18.778  0.00  0.00    +0.000 N 
ATOM      8  C   UNL     1       4.439   5.975  18.554  0.00  0.00    +0.000 A 
ATOM      9  C   UNL     1       4.988   4.744  18.249  0.00  0.00    +0.000 A 
ATOM     10  C   UNL     1       3.893   3.809  18.293  0.00  0.00    +0.000 A 
ATOM     11  C   UNL     1       3.785   2.413  18.098  0.00  0.00    +0.000 A 
ATOM     12  C   UNL     1       2.539   1.782  18.218  0.00  0.00    +0.000 A 
ATOM     13  C   UNL     1       1.411   2.527  18.523  0.00  0.00    +0.000 A 
ATOM     14  F   UNL     1       0.225   1.909  18.631  0.00  0.00    +0.000 F 
ATOM     15  C   UNL     1       1.474   3.901  18.724  0.00  0.00    +0.000 A 
ATOM     16  C   UNL     1       2.726   4.526  18.609  0.00  0.00    +0.000 A 
BRANCH   7  17
ATOM     17  C   UNL     1       2.248   6.942  19.199  0.00  0.00    +0.000 C 
BRANCH  17  18
ATOM     18  C   UNL     1       1.838   7.846  18.036  0.00  0.00    +0.000 C 
BRANCH  18  20
ATOM     19  C   UNL     1       0.597  10.019  18.231  0.00  0.00    +0.000 C 
ATOM     20  C   UNL     1       1.930   9.319  18.427  0.00  0.00    +0.000 C 
ENDBRANCH  18  20
ENDBRANCH  17  18
ENDBRANCH   7  17
ENDBRANCH   1   9
BRANCH   4  21
ATOM     21  C   UNL     1       7.807   8.514  17.498  0.00  0.00    +0.000 C 
BRANCH  21  22
ATOM     22  C   UNL     1       8.692   9.200  18.549  0.00  0.00    +0.000 C 
BRANCH  22  23
ATOM     23  O   UNL     1       8.951  10.569  18.190  0.00  0.00    +0.000 OA
BRANCH  23  24
ATOM     24  C   UNL     1       9.434  11.337  19.233  0.00  0.00    +0.000 A 
ATOM     25  C   UNL     1       8.911  11.241  20.535  0.00  0.00    +0.000 A 
ATOM     26  C   UNL     1       9.402  12.037  21.569  0.00  0.00    +0.000 A 
ATOM     27  C   UNL     1      10.438  12.927  21.328  0.00  0.00    +0.000 A 
ATOM     28  C   UNL     1      10.991  13.012  20.049  0.00  0.00    +0.000 A 
ATOM     29  C   UNL     1      10.506  12.219  18.990  0.00  0.00    +0.000 A 
BRANCH  29  30
ATOM     30  C   UNL     1      11.174  12.415  17.666  0.00  0.00    +0.000 C 
ATOM     31  O   UNL     1      10.705  13.128  16.790  0.00  0.00    +0.000 OA
BRANCH  30  32
ATOM     32  O   UNL     1      12.333  11.748  17.491  0.00  0.00    +0.000 OA
ATOM     33  H   UNL     1      12.989  12.263  16.979  0.00  0.00    +0.000 HD
ENDBRANCH  30  32
ENDBRANCH  29  30
ENDBRANCH  23  24
ENDBRANCH  22  23
ENDBRANCH  21  22
ENDBRANCH   4  21
TORSDOF 10
ENDMDL
MODEL 9
REMARK VINA RESULT:      -7.8      2.099      3.961
REMARK  Name = 
REMARK  11 active torsions:
REMARK  status: ('A' for Active; 'I' for Inactive)
REMARK    1  A    between atoms: C_1  and  C_2
REMARK    2  A    between atoms: C_2  and  C_3
REMARK    3  A    between atoms: C_3  and  C_4
REMARK    4  A    between atoms: C_4  and  N_5
REMARK    5  A    between atoms: C_7  and  C_8
REMARK    6  A    between atoms: N_11  and  C_12
REMARK    7  A    between atoms: C_12  and  C_13
REMARK    8  A    between atoms: C_13  and  O_14
REMARK    9  A    between atoms: O_14  and  C_15
REMARK   10  A    between atoms: C_20  and  C_21
REMARK   11  A    between atoms: C_21  and  O_23
REMARK                            x       y       z     vdW  Elec       q    Type
REMARK                         _______ _______ _______ _____ _____    ______ ____
ROOT
ATOM      1  C   UNL     1       5.199   5.445  17.003  0.00  0.00    +0.000 C 
ATOM      2  C   UNL     1       6.507   4.797  17.466  0.00  0.00    +0.000 C 
ATOM      3  C   UNL     1       7.424   5.759  18.222  0.00  0.00    +0.000 C 
ATOM      4  N   UNL     1       7.665   7.046  17.547  0.00  0.00    +0.000 NA
ATOM      5  C   UNL     1       6.454   7.672  16.994  0.00  0.00    +0.000 C 
ATOM      6  C   UNL     1       5.544   6.715  16.219  0.00  0.00    +0.000 C 
ENDROOT
BRANCH   1   9
ATOM      7  N   UNL     1       2.955   5.326  19.963  0.00  0.00    +0.000 N 
ATOM      8  C   UNL     1       3.919   4.789  19.157  0.00  0.00    +0.000 A 
ATOM      9  C   UNL     1       4.205   5.665  18.127  0.00  0.00    +0.000 A 
ATOM     10  C   UNL     1       3.349   6.804  18.337  0.00  0.00    +0.000 A 
ATOM     11  C   UNL     1       3.140   8.018  17.642  0.00  0.00    +0.000 A 
ATOM     12  C   UNL     1       2.205   8.947  18.119  0.00  0.00    +0.000 A 
ATOM     13  C   UNL     1       1.488   8.680  19.273  0.00  0.00    +0.000 A 
ATOM     14  F   UNL     1       0.598   9.580  19.718  0.00  0.00    +0.000 F 
ATOM     15  C   UNL     1       1.661   7.498  19.986  0.00  0.00    +0.000 A 
ATOM     16  C   UNL     1       2.595   6.569  19.500  0.00  0.00    +0.000 A 
BRANCH   7  17
ATOM     17  C   UNL     1       2.381   4.613  21.094  0.00  0.00    +0.000 C 
BRANCH  17  18
ATOM     18  C   UNL     1       1.077   3.895  20.738  0.00  0.00    +0.000 C 
BRANCH  18  20
ATOM     19  C   UNL     1       1.260   2.235  18.866  0.00  0.00    +0.000 C 
ATOM     20  C   UNL     1       1.336   2.438  20.369  0.00  0.00    +0.000 C 
ENDBRANCH  18  20
ENDBRANCH  17  18
ENDBRANCH   7  17
ENDBRANCH   1   9
BRANCH   4  21
ATOM     21  C   UNL     1       8.347   8.001  18.456  0.00  0.00    +0.000 C 
BRANCH  21  22
ATOM     22  C   UNL     1       8.148   9.464  18.032  0.00  0.00    +0.000 C 
BRANCH  22  23
ATOM     23  O   UNL     1       9.401  10.171  18.012  0.00  0.00    +0.000 OA
BRANCH  23  24
ATOM     24  C   UNL     1       9.593  10.995  19.105  0.00  0.00    +0.000 A 
ATOM     25  C   UNL     1       9.161  10.637  20.394  0.00  0.00    +0.000 A 
ATOM     26  C   UNL     1       9.350  11.492  21.480  0.00  0.00    +0.000 A 
ATOM     27  C   UNL     1       9.994  12.708  21.301  0.00  0.00    +0.000 A 
ATOM     28  C   UNL     1      10.458  13.064  20.035  0.00  0.00    +0.000 A 
ATOM     29  C   UNL     1      10.272  12.216  18.925  0.00  0.00    +0.000 A 
BRANCH  29  30
ATOM     30  C   UNL     1      10.803  12.720  17.620  0.00  0.00    +0.000 C 
ATOM     31  O   UNL     1      11.988  12.657  17.321  0.00  0.00    +0.000 OA
BRANCH  30  32
ATOM     32  O   UNL     1       9.891  13.259  16.785  0.00  0.00    +0.000 OA
ATOM     33  H   UNL     1      10.085  14.193  16.568  0.00  0.00    +0.000 HD
ENDBRANCH  30  32
ENDBRANCH  29  30
ENDBRANCH  23  24
ENDBRANCH  22  23
ENDBRANCH  21  22
ENDBRANCH   4  21
TORSDOF 10
ENDMDL
