MODEL 1
REMARK VINA RESULT:      -6.6      0.000      0.000
REMARK  Name = 
REMARK  11 active torsions:
REMARK  status: ('A' for Active; 'I' for Inactive)
REMARK    1  A    between atoms: C_1  and  N_2
REMARK    2  A    between atoms: N_2  and  C_3
REMARK    3  A    between atoms: N_2  and  C_4
REMARK    4  A    between atoms: C_4  and  C_5
REMARK    5  A    between atoms: C_5  and  C_6
REMARK    6  A    between atoms: C_6  and  O_7
REMARK    7  A    between atoms: O_7  and  C_8
REMARK    8  A    between atoms: C_11  and  C_12
REMARK    9  A    between atoms: C_12  and  C_13
REMARK   10  A    between atoms: C_13  and  N_14
REMARK   11  A    between atoms: C_15  and  C_17
REMARK                            x       y       z     vdW  Elec       q    Type
REMARK                         _______ _______ _______ _____ _____    ______ ____
ROOT
ATOM      1  C   UNL     1       2.560   5.144  18.839  0.00  0.00    +0.000 A 
ATOM      2  C   UNL     1       2.750   6.455  18.342  0.00  0.00    +0.000 A 
ATOM      3  C   UNL     1       2.317   7.563  19.077  0.00  0.00    +0.000 A 
ATOM      4  C   UNL     1       1.656   7.407  20.302  0.00  0.00    +0.000 A 
ATOM      5  C   UNL     1       1.498   6.104  20.801  0.00  0.00    +0.000 A 
ATOM      6  C   UNL     1       1.965   4.989  20.090  0.00  0.00    +0.000 A 
ATOM      7 BR   UNL     1       1.832   3.352  21.075  0.00  0.00    +0.000 Br
ENDROOT
BRANCH   1   8
ATOM      8  O   UNL     1       3.030   4.150  18.024  0.00  0.00    +0.000 OA
BRANCH   8   9
ATOM      9  C   UNL     1       4.420   3.866  18.206  0.00  0.00    +0.000 C 
BRANCH   9  10
ATOM     10  C   UNL     1       5.115   3.893  16.876  0.00  0.00    +0.000 C 
BRANCH  10  11
ATOM     11  C   UNL     1       6.384   4.754  16.912  0.00  0.00    +0.000 C 
BRANCH  11  13
ATOM     12  C   UNL     1       6.801   4.837  14.540  0.00  0.00    +0.000 C 
ATOM     13  N   UNL     1       6.513   5.636  15.736  0.00  0.00    +0.000 NA
ATOM     14  C   UNL     1       5.294   6.420  15.519  0.00  0.00    +0.000 C 
ENDBRANCH  11  13
ENDBRANCH  10  11
ENDBRANCH   9  10
ENDBRANCH   8   9
ENDBRANCH   1   8
BRANCH   4  15
ATOM     15  C   UNL     1       1.181   8.601  21.109  0.00  0.00    +0.000 C 
BRANCH  15  16
ATOM     16  C   UNL     1       1.017   9.866  20.256  0.00  0.00    +0.000 C 
BRANCH  16  17
ATOM     17  N   UNL     1      -0.247  10.029  19.596  0.00  0.00    +0.000 N 
ATOM     18  C   UNL     1      -0.399  11.141  18.778  0.00  0.00    +0.000 C 
ATOM     19  O   UNL     1       0.464  11.986  18.638  0.00  0.00    +0.000 OA
ATOM     20  H   UNL     1      -0.797   9.209  19.367  0.00  0.00    +0.000 HD
BRANCH  18  21
ATOM     21  C   UNL     1      -1.671  11.196  18.085  0.00  0.00    +0.000 A 
ATOM     22  C   UNL     1      -2.901  11.569  18.555  0.00  0.00    +0.000 A 
ATOM     23  C   UNL     1      -3.831  11.420  17.522  0.00  0.00    +0.000 A 
ATOM     24 BR   UNL     1      -5.655  11.775  17.689  0.00  0.00    +0.000 Br
ATOM     25  C   UNL     1      -3.168  10.956  16.419  0.00  0.00    +0.000 A 
ATOM     26  N   UNL     1      -1.838  10.824  16.756  0.00  0.00    +0.000 N 
ATOM     27  H   UNL     1      -1.111  10.469  16.163  0.00  0.00    +0.000 HD
ENDBRANCH  18  21
ENDBRANCH  16  17
ENDBRANCH  15  16
ENDBRANCH   4  15
TORSDOF 9
ENDMDL
MODEL 2
REMARK VINA RESULT:      -6.6      1.095      1.330
REMARK  Name = 
REMARK  11 active torsions:
REMARK  status: ('A' for Active; 'I' for Inactive)
REMARK    1  A    between atoms: C_1  and  N_2
REMARK    2  A    between atoms: N_2  and  C_3
REMARK    3  A    between atoms: N_2  and  C_4
REMARK    4  A    between atoms: C_4  and  C_5
REMARK    5  A    between atoms: C_5  and  C_6
REMARK    6  A    between atoms: C_6  and  O_7
REMARK    7  A    between atoms: O_7  and  C_8
REMARK    8  A    between atoms: C_11  and  C_12
REMARK    9  A    between atoms: C_12  and  C_13
REMARK   10  A    between atoms: C_13  and  N_14
REMARK   11  A    between atoms: C_15  and  C_17
REMARK                            x       y       z     vdW  Elec       q    Type
REMARK                         _______ _______ _______ _____ _____    ______ ____
ROOT
ATOM      1  C   UNL     1       2.858   5.039  18.284  0.00  0.00    +0.000 A 
ATOM      2  C   UNL     1       3.027   6.433  18.106  0.00  0.00    +0.000 A 
ATOM      3  C   UNL     1       2.506   7.337  19.036  0.00  0.00    +0.000 A 
ATOM      4  C   UNL     1       1.775   6.895  20.145  0.00  0.00    +0.000 A 
ATOM      5  C   UNL     1       1.636   5.510  20.330  0.00  0.00    +0.000 A 
ATOM      6  C   UNL     1       2.191   4.594  19.424  0.00  0.00    +0.000 A 
ATOM      7 BR   UNL     1       2.060   2.775  20.009  0.00  0.00    +0.000 Br
ENDROOT
BRANCH   1   8
ATOM      8  O   UNL     1       3.416   4.265  17.304  0.00  0.00    +0.000 OA
BRANCH   8   9
ATOM      9  C   UNL     1       4.744   3.825  17.606  0.00  0.00    +0.000 C 
BRANCH   9  10
ATOM     10  C   UNL     1       5.630   4.056  16.417  0.00  0.00    +0.000 C 
BRANCH  10  11
ATOM     11  C   UNL     1       6.933   4.766  16.805  0.00  0.00    +0.000 C 
BRANCH  11  13
ATOM     12  C   UNL     1       7.704   5.642  18.914  0.00  0.00    +0.000 C 
ATOM     13  N   UNL     1       6.735   5.813  17.825  0.00  0.00    +0.000 NA
ATOM     14  C   UNL     1       6.876   7.153  17.251  0.00  0.00    +0.000 C 
ENDBRANCH  11  13
ENDBRANCH  10  11
ENDBRANCH   9  10
ENDBRANCH   8   9
ENDBRANCH   1   8
BRANCH   4  15
ATOM     15  C   UNL     1       1.204   7.866  21.161  0.00  0.00    +0.000 C 
BRANCH  15  16
ATOM     16  C   UNL     1       1.117   9.301  20.627  0.00  0.00    +0.000 C 
BRANCH  16  17
ATOM     17  N   UNL     1      -0.111   9.666  19.979  0.00  0.00    +0.000 N 
ATOM     18  C   UNL     1      -0.018  10.253  18.724  0.00  0.00    +0.000 C 
ATOM     19  O   UNL     1       1.043  10.503  18.185  0.00  0.00    +0.000 OA
ATOM     20  H   UNL     1      -0.955   9.142  20.182  0.00  0.00    +0.000 HD
BRANCH  18  21
ATOM     21  C   UNL     1      -1.299  10.519  18.099  0.00  0.00    +0.000 A 
ATOM     22  C   UNL     1      -2.400  11.149  18.612  0.00  0.00    +0.000 A 
ATOM     23  C   UNL     1      -3.408  11.132  17.643  0.00  0.00    +0.000 A 
ATOM     24 BR   UNL     1      -5.115  11.845  17.888  0.00  0.00    +0.000 Br
ATOM     25  C   UNL     1      -2.921  10.493  16.536  0.00  0.00    +0.000 A 
ATOM     26  N   UNL     1      -1.621  10.121  16.807  0.00  0.00    +0.000 N 
ATOM     27  H   UNL     1      -1.017   9.602  16.198  0.00  0.00    +0.000 HD
ENDBRANCH  18  21
ENDBRANCH  16  17
ENDBRANCH  15  16
ENDBRANCH   4  15
TORSDOF 9
ENDMDL
MODEL 3
REMARK VINA RESULT:      -6.6      7.953     10.739
REMARK  Name = 
REMARK  11 active torsions:
REMARK  status: ('A' for Active; 'I' for Inactive)
REMARK    1  A    between atoms: C_1  and  N_2
REMARK    2  A    between atoms: N_2  and  C_3
REMARK    3  A    between atoms: N_2  and  C_4
REMARK    4  A    between atoms: C_4  and  C_5
REMARK    5  A    between atoms: C_5  and  C_6
REMARK    6  A    between atoms: C_6  and  O_7
REMARK    7  A    between atoms: O_7  and  C_8
REMARK    8  A    between atoms: C_11  and  C_12
REMARK    9  A    between atoms: C_12  and  C_13
REMARK   10  A    between atoms: C_13  and  N_14
REMARK   11  A    between atoms: C_15  and  C_17
REMARK                            x       y       z     vdW  Elec       q    Type
REMARK                         _______ _______ _______ _____ _____    ______ ____
ROOT
ATOM      1  C   UNL     1      10.493  12.089  19.748  0.00  0.00    +0.000 A 
ATOM      2  C   UNL     1       9.785  11.099  20.468  0.00  0.00    +0.000 A 
ATOM      3  C   UNL     1       9.032  10.131  19.795  0.00  0.00    +0.000 A 
ATOM      4  C   UNL     1       8.929  10.135  18.399  0.00  0.00    +0.000 A 
ATOM      5  C   UNL     1       9.659  11.104  17.690  0.00  0.00    +0.000 A 
ATOM      6  C   UNL     1      10.449  12.053  18.354  0.00  0.00    +0.000 A 
ATOM      7 BR   UNL     1      11.515  13.116  17.171  0.00  0.00    +0.000 Br
ENDROOT
BRANCH   1   8
ATOM      8  O   UNL     1      11.190  12.973  20.524  0.00  0.00    +0.000 OA
BRANCH   8   9
ATOM      9  C   UNL     1      10.400  14.067  21.001  0.00  0.00    +0.000 C 
BRANCH   9  10
ATOM     10  C   UNL     1      10.848  15.335  20.336  0.00  0.00    +0.000 C 
BRANCH  10  11
ATOM     11  C   UNL     1       9.907  15.746  19.197  0.00  0.00    +0.000 C 
BRANCH  11  13
ATOM     12  C   UNL     1      11.135  17.783  19.587  0.00  0.00    +0.000 C 
ATOM     13  N   UNL     1      10.108  17.141  18.760  0.00  0.00    +0.000 NA
ATOM     14  C   UNL     1      10.502  17.209  17.350  0.00  0.00    +0.000 C 
ENDBRANCH  11  13
ENDBRANCH  10  11
ENDBRANCH   9  10
ENDBRANCH   8   9
ENDBRANCH   1   8
BRANCH   4  15
ATOM     15  C   UNL     1       8.116   9.092  17.656  0.00  0.00    +0.000 C 
BRANCH  15  16
ATOM     16  C   UNL     1       8.185   7.708  18.314  0.00  0.00    +0.000 C 
BRANCH  16  17
ATOM     17  N   UNL     1       7.005   6.896  18.213  0.00  0.00    +0.000 N 
ATOM     18  C   UNL     1       7.053   5.630  18.782  0.00  0.00    +0.000 C 
ATOM     19  O   UNL     1       8.049   5.178  19.312  0.00  0.00    +0.000 OA
ATOM     20  H   UNL     1       6.097   7.344  18.159  0.00  0.00    +0.000 HD
BRANCH  18  21
ATOM     21  C   UNL     1       5.801   4.902  18.711  0.00  0.00    +0.000 A 
ATOM     22  C   UNL     1       4.607   5.281  18.159  0.00  0.00    +0.000 A 
ATOM     23  C   UNL     1       3.680   4.256  18.370  0.00  0.00    +0.000 A 
ATOM     24 BR   UNL     1       1.896   4.321  17.825  0.00  0.00    +0.000 Br
ATOM     25  C   UNL     1       4.309   3.249  19.049  0.00  0.00    +0.000 A 
ATOM     26  N   UNL     1       5.616   3.637  19.255  0.00  0.00    +0.000 N 
ATOM     27  H   UNL     1       6.312   3.121  19.759  0.00  0.00    +0.000 HD
ENDBRANCH  18  21
ENDBRANCH  16  17
ENDBRANCH  15  16
ENDBRANCH   4  15
TORSDOF 9
ENDMDL
MODEL 4
REMARK VINA RESULT:      -6.6      3.418      9.114
REMARK  Name = 
REMARK  11 active torsions:
REMARK  status: ('A' for Active; 'I' for Inactive)
REMARK    1  A    between atoms: C_1  and  N_2
REMARK    2  A    between atoms: N_2  and  C_3
REMARK    3  A    between atoms: N_2  and  C_4
REMARK    4  A    between atoms: C_4  and  C_5
REMARK    5  A    between atoms: C_5  and  C_6
REMARK    6  A    between atoms: C_6  and  O_7
REMARK    7  A    between atoms: O_7  and  C_8
REMARK    8  A    between atoms: C_11  and  C_12
REMARK    9  A    between atoms: C_12  and  C_13
REMARK   10  A    between atoms: C_13  and  N_14
REMARK   11  A    between atoms: C_15  and  C_17
REMARK                            x       y       z     vdW  Elec       q    Type
REMARK                         _______ _______ _______ _____ _____    ______ ____
ROOT
ATOM      1  C   UNL     1       1.194   9.510  19.374  0.00  0.00    +0.000 A 
ATOM      2  C   UNL     1       1.794   8.944  18.225  0.00  0.00    +0.000 A 
ATOM      3  C   UNL     1       2.350   7.662  18.271  0.00  0.00    +0.000 A 
ATOM      4  C   UNL     1       2.362   6.920  19.458  0.00  0.00    +0.000 A 
ATOM      5  C   UNL     1       1.739   7.477  20.587  0.00  0.00    +0.000 A 
ATOM      6  C   UNL     1       1.142   8.745  20.539  0.00  0.00    +0.000 A 
ATOM      7 BR   UNL     1       0.171   9.188  22.129  0.00  0.00    +0.000 Br
ENDROOT
BRANCH   1   8
ATOM      8  O   UNL     1       0.687  10.768  19.195  0.00  0.00    +0.000 OA
BRANCH   8   9
ATOM      9  C   UNL     1       1.634  11.699  18.663  0.00  0.00    +0.000 C 
BRANCH   9  10
ATOM     10  C   UNL     1       1.705  12.906  19.552  0.00  0.00    +0.000 C 
BRANCH  10  11
ATOM     11  C   UNL     1       1.287  14.184  18.815  0.00  0.00    +0.000 C 
BRANCH  11  13
ATOM     12  C   UNL     1      -0.283  16.011  18.893  0.00  0.00    +0.000 C 
ATOM     13  N   UNL     1       0.601  15.154  19.690  0.00  0.00    +0.000 NA
ATOM     14  C   UNL     1      -0.180  14.478  20.730  0.00  0.00    +0.000 C 
ENDBRANCH  11  13
ENDBRANCH  10  11
ENDBRANCH   9  10
ENDBRANCH   8   9
ENDBRANCH   1   8
BRANCH   4  15
ATOM     15  C   UNL     1       2.963   5.528  19.523  0.00  0.00    +0.000 C 
BRANCH  15  16
ATOM     16  C   UNL     1       4.463   5.515  19.203  0.00  0.00    +0.000 C 
BRANCH  16  17
ATOM     17  N   UNL     1       4.817   5.406  17.816  0.00  0.00    +0.000 N 
ATOM     18  C   UNL     1       6.072   4.893  17.518  0.00  0.00    +0.000 C 
ATOM     19  O   UNL     1       6.882   4.580  18.370  0.00  0.00    +0.000 OA
ATOM     20  H   UNL     1       4.087   5.269  17.126  0.00  0.00    +0.000 HD
BRANCH  18  21
ATOM     21  C   UNL     1       6.327   4.740  16.099  0.00  0.00    +0.000 A 
ATOM     22  C   UNL     1       5.650   3.995  15.172  0.00  0.00    +0.000 A 
ATOM     23  C   UNL     1       6.294   4.135  13.939  0.00  0.00    +0.000 A 
ATOM     24 BR   UNL     1       5.758   3.281  12.368  0.00  0.00    +0.000 Br
ATOM     25  C   UNL     1       7.365   4.967  14.113  0.00  0.00    +0.000 A 
ATOM     26  N   UNL     1       7.386   5.349  15.437  0.00  0.00    +0.000 N 
ATOM     27  H   UNL     1       8.078   5.930  15.873  0.00  0.00    +0.000 HD
ENDBRANCH  18  21
ENDBRANCH  16  17
ENDBRANCH  15  16
ENDBRANCH   4  15
TORSDOF 9
ENDMDL
MODEL 5
REMARK VINA RESULT:      -6.5      0.934      1.102
REMARK  Name = 
REMARK  11 active torsions:
REMARK  status: ('A' for Active; 'I' for Inactive)
REMARK    1  A    between atoms: C_1  and  N_2
REMARK    2  A    between atoms: N_2  and  C_3
REMARK    3  A    between atoms: N_2  and  C_4
REMARK    4  A    between atoms: C_4  and  C_5
REMARK    5  A    between atoms: C_5  and  C_6
REMARK    6  A    between atoms: C_6  and  O_7
REMARK    7  A    between atoms: O_7  and  C_8
REMARK    8  A    between atoms: C_11  and  C_12
REMARK    9  A    between atoms: C_12  and  C_13
REMARK   10  A    between atoms: C_13  and  N_14
REMARK   11  A    between atoms: C_15  and  C_17
REMARK                            x       y       z     vdW  Elec       q    Type
REMARK                         _______ _______ _______ _____ _____    ______ ____
ROOT
ATOM      1  C   UNL     1       2.624   5.105  18.980  0.00  0.00    +0.000 A 
ATOM      2  C   UNL     1       2.806   6.463  18.626  0.00  0.00    +0.000 A 
ATOM      3  C   UNL     1       2.275   7.483  19.422  0.00  0.00    +0.000 A 
ATOM      4  C   UNL     1       1.522   7.191  20.566  0.00  0.00    +0.000 A 
ATOM      5  C   UNL     1       1.371   5.842  20.926  0.00  0.00    +0.000 A 
ATOM      6  C   UNL     1       1.935   4.814  20.156  0.00  0.00    +0.000 A 
ATOM      7 BR   UNL     1       1.782   3.087  20.968  0.00  0.00    +0.000 Br
ENDROOT
BRANCH   1   8
ATOM      8  O   UNL     1       3.194   4.208  18.119  0.00  0.00    +0.000 OA
BRANCH   8   9
ATOM      9  C   UNL     1       4.285   3.478  18.687  0.00  0.00    +0.000 C 
BRANCH   9  10
ATOM     10  C   UNL     1       5.382   4.430  19.064  0.00  0.00    +0.000 C 
BRANCH  10  11
ATOM     11  C   UNL     1       6.283   4.766  17.869  0.00  0.00    +0.000 C 
BRANCH  11  13
ATOM     12  C   UNL     1       7.323   6.866  17.303  0.00  0.00    +0.000 C 
ATOM     13  N   UNL     1       6.056   6.127  17.344  0.00  0.00    +0.000 NA
ATOM     14  C   UNL     1       5.468   6.092  16.002  0.00  0.00    +0.000 C 
ENDBRANCH  11  13
ENDBRANCH  10  11
ENDBRANCH   9  10
ENDBRANCH   8   9
ENDBRANCH   1   8
BRANCH   4  15
ATOM     15  C   UNL     1       0.940   8.287  21.438  0.00  0.00    +0.000 C 
BRANCH  15  16
ATOM     16  C   UNL     1       0.888   9.646  20.727  0.00  0.00    +0.000 C 
BRANCH  16  17
ATOM     17  N   UNL     1      -0.305   9.928  19.981  0.00  0.00    +0.000 N 
ATOM     18  C   UNL     1      -0.155  10.255  18.639  0.00  0.00    +0.000 C 
ATOM     19  O   UNL     1       0.929  10.351  18.097  0.00  0.00    +0.000 OA
ATOM     20  H   UNL     1      -1.178   9.490  20.253  0.00  0.00    +0.000 HD
BRANCH  18  21
ATOM     21  C   UNL     1      -1.406  10.448  17.934  0.00  0.00    +0.000 A 
ATOM     22  C   UNL     1      -2.527  11.129  18.325  0.00  0.00    +0.000 A 
ATOM     23  C   UNL     1      -3.492  11.003  17.321  0.00  0.00    +0.000 A 
ATOM     24 BR   UNL     1      -5.206  11.736  17.410  0.00  0.00    +0.000 Br
ATOM     25  C   UNL     1      -2.959  10.246  16.314  0.00  0.00    +0.000 A 
ATOM     26  N   UNL     1      -1.674   9.908  16.681  0.00  0.00    +0.000 N 
ATOM     27  H   UNL     1      -1.046   9.325  16.161  0.00  0.00    +0.000 HD
ENDBRANCH  18  21
ENDBRANCH  16  17
ENDBRANCH  15  16
ENDBRANCH   4  15
TORSDOF 9
ENDMDL
MODEL 6
REMARK VINA RESULT:      -6.5      4.689      6.789
REMARK  Name = 
REMARK  11 active torsions:
REMARK  status: ('A' for Active; 'I' for Inactive)
REMARK    1  A    between atoms: C_1  and  N_2
REMARK    2  A    between atoms: N_2  and  C_3
REMARK    3  A    between atoms: N_2  and  C_4
REMARK    4  A    between atoms: C_4  and  C_5
REMARK    5  A    between atoms: C_5  and  C_6
REMARK    6  A    between atoms: C_6  and  O_7
REMARK    7  A    between atoms: O_7  and  C_8
REMARK    8  A    between atoms: C_11  and  C_12
REMARK    9  A    between atoms: C_12  and  C_13
REMARK   10  A    between atoms: C_13  and  N_14
REMARK   11  A    between atoms: C_15  and  C_17
REMARK                            x       y       z     vdW  Elec       q    Type
REMARK                         _______ _______ _______ _____ _____    ______ ____
ROOT
ATOM      1  C   UNL     1       7.749   7.159  18.228  0.00  0.00    +0.000 A 
ATOM      2  C   UNL     1       6.913   7.549  17.155  0.00  0.00    +0.000 A 
ATOM      3  C   UNL     1       5.975   6.659  16.623  0.00  0.00    +0.000 A 
ATOM      4  C   UNL     1       5.861   5.351  17.110  0.00  0.00    +0.000 A 
ATOM      5  C   UNL     1       6.673   4.981  18.194  0.00  0.00    +0.000 A 
ATOM      6  C   UNL     1       7.588   5.880  18.760  0.00  0.00    +0.000 A 
ATOM      7 BR   UNL     1       8.413   5.219  20.357  0.00  0.00    +0.000 Br
ENDROOT
BRANCH   1   8
ATOM      8  O   UNL     1       8.620   8.123  18.655  0.00  0.00    +0.000 OA
BRANCH   8   9
ATOM      9  C   UNL     1       8.372   9.414  18.090  0.00  0.00    +0.000 C 
BRANCH   9  10
ATOM     10  C   UNL     1       9.197  10.442  18.807  0.00  0.00    +0.000 C 
BRANCH  10  11
ATOM     11  C   UNL     1       9.335  11.733  17.992  0.00  0.00    +0.000 C 
BRANCH  11  13
ATOM     12  C   UNL     1      10.876  13.448  17.288  0.00  0.00    +0.000 C 
ATOM     13  N   UNL     1      10.730  12.024  17.607  0.00  0.00    +0.000 NA
ATOM     14  C   UNL     1      11.666  11.663  18.675  0.00  0.00    +0.000 C 
ENDBRANCH  11  13
ENDBRANCH  10  11
ENDBRANCH   9  10
ENDBRANCH   8   9
ENDBRANCH   1   8
BRANCH   4  15
ATOM     15  C   UNL     1       4.848   4.375  16.542  0.00  0.00    +0.000 C 
BRANCH  15  16
ATOM     16  C   UNL     1       3.642   4.165  17.467  0.00  0.00    +0.000 C 
BRANCH  16  17
ATOM     17  N   UNL     1       2.932   5.347  17.864  0.00  0.00    +0.000 N 
ATOM     18  C   UNL     1       3.017   5.722  19.199  0.00  0.00    +0.000 C 
ATOM     19  O   UNL     1       3.621   5.076  20.033  0.00  0.00    +0.000 OA
ATOM     20  H   UNL     1       2.777   6.085  17.187  0.00  0.00    +0.000 HD
BRANCH  18  21
ATOM     21  C   UNL     1       2.341   6.967  19.507  0.00  0.00    +0.000 A 
ATOM     22  C   UNL     1       2.100   8.047  18.702  0.00  0.00    +0.000 A 
ATOM     23  C   UNL     1       1.448   9.025  19.459  0.00  0.00    +0.000 A 
ATOM     24 BR   UNL     1       0.938  10.696  18.804  0.00  0.00    +0.000 Br
ATOM     25  C   UNL     1       1.289   8.541  20.729  0.00  0.00    +0.000 A 
ATOM     26  N   UNL     1       1.829   7.273  20.763  0.00  0.00    +0.000 N 
ATOM     27  H   UNL     1       1.894   6.681  21.569  0.00  0.00    +0.000 HD
ENDBRANCH  18  21
ENDBRANCH  16  17
ENDBRANCH  15  16
ENDBRANCH   4  15
TORSDOF 9
ENDMDL
MODEL 7
REMARK VINA RESULT:      -6.5      2.877      8.544
REMARK  Name = 
REMARK  11 active torsions:
REMARK  status: ('A' for Active; 'I' for Inactive)
REMARK    1  A    between atoms: C_1  and  N_2
REMARK    2  A    between atoms: N_2  and  C_3
REMARK    3  A    between atoms: N_2  and  C_4
REMARK    4  A    between atoms: C_4  and  C_5
REMARK    5  A    between atoms: C_5  and  C_6
REMARK    6  A    between atoms: C_6  and  O_7
REMARK    7  A    between atoms: O_7  and  C_8
REMARK    8  A    between atoms: C_11  and  C_12
REMARK    9  A    between atoms: C_12  and  C_13
REMARK   10  A    between atoms: C_13  and  N_14
REMARK   11  A    between atoms: C_15  and  C_17
REMARK                            x       y       z     vdW  Elec       q    Type
REMARK                         _______ _______ _______ _____ _____    ______ ____
ROOT
ATOM      1  C   UNL     1       1.823   6.821  20.237  0.00  0.00    +0.000 A 
ATOM      2  C   UNL     1       1.467   5.690  21.008  0.00  0.00    +0.000 A 
ATOM      3  C   UNL     1       1.363   4.428  20.414  0.00  0.00    +0.000 A 
ATOM      4  C   UNL     1       1.572   4.254  19.041  0.00  0.00    +0.000 A 
ATOM      5  C   UNL     1       1.952   5.377  18.287  0.00  0.00    +0.000 A 
ATOM      6  C   UNL     1       2.099   6.639  18.882  0.00  0.00    +0.000 A 
ATOM      7 BR   UNL     1       2.837   7.953  17.701  0.00  0.00    +0.000 Br
ENDROOT
BRANCH   1   8
ATOM      8  O   UNL     1       1.891   7.994  20.938  0.00  0.00    +0.000 OA
BRANCH   8   9
ATOM      9  C   UNL     1       0.611   8.547  21.260  0.00  0.00    +0.000 C 
BRANCH   9  10
ATOM     10  C   UNL     1       0.544   9.967  20.781  0.00  0.00    +0.000 C 
BRANCH  10  11
ATOM     11  C   UNL     1      -0.244  10.091  19.470  0.00  0.00    +0.000 C 
BRANCH  11  13
ATOM     12  C   UNL     1      -1.104  11.969  20.713  0.00  0.00    +0.000 C 
ATOM     13  N   UNL     1      -1.294  11.127  19.527  0.00  0.00    +0.000 NA
ATOM     14  C   UNL     1      -1.284  11.965  18.325  0.00  0.00    +0.000 C 
ENDBRANCH  11  13
ENDBRANCH  10  11
ENDBRANCH   9  10
ENDBRANCH   8   9
ENDBRANCH   1   8
BRANCH   4  15
ATOM     15  C   UNL     1       1.461   2.892  18.384  0.00  0.00    +0.000 C 
BRANCH  15  16
ATOM     16  C   UNL     1       2.824   2.320  17.970  0.00  0.00    +0.000 C 
BRANCH  16  17
ATOM     17  N   UNL     1       3.818   3.274  17.570  0.00  0.00    +0.000 N 
ATOM     18  C   UNL     1       4.823   3.568  18.483  0.00  0.00    +0.000 C 
ATOM     19  O   UNL     1       4.865   3.090  19.600  0.00  0.00    +0.000 OA
ATOM     20  H   UNL     1       4.046   3.373  16.587  0.00  0.00    +0.000 HD
BRANCH  18  21
ATOM     21  C   UNL     1       5.833   4.478  17.979  0.00  0.00    +0.000 A 
ATOM     22  C   UNL     1       6.090   5.773  18.336  0.00  0.00    +0.000 A 
ATOM     23  C   UNL     1       7.139   6.249  17.543  0.00  0.00    +0.000 A 
ATOM     24 BR   UNL     1       7.830   7.980  17.639  0.00  0.00    +0.000 Br
ATOM     25  C   UNL     1       7.524   5.241  16.702  0.00  0.00    +0.000 A 
ATOM     26  N   UNL     1       6.730   4.147  16.970  0.00  0.00    +0.000 N 
ATOM     27  H   UNL     1       6.753   3.269  16.487  0.00  0.00    +0.000 HD
ENDBRANCH  18  21
ENDBRANCH  16  17
ENDBRANCH  15  16
ENDBRANCH   4  15
TORSDOF 9
ENDMDL
MODEL 8
REMARK VINA RESULT:      -6.4      5.894      8.569
REMARK  Name = 
REMARK  11 active torsions:
REMARK  status: ('A' for Active; 'I' for Inactive)
REMARK    1  A    between atoms: C_1  and  N_2
REMARK    2  A    between atoms: N_2  and  C_3
REMARK    3  A    between atoms: N_2  and  C_4
REMARK    4  A    between atoms: C_4  and  C_5
REMARK    5  A    between atoms: C_5  and  C_6
REMARK    6  A    between atoms: C_6  and  O_7
REMARK    7  A    between atoms: O_7  and  C_8
REMARK    8  A    between atoms: C_11  and  C_12
REMARK    9  A    between atoms: C_12  and  C_13
REMARK   10  A    between atoms: C_13  and  N_14
REMARK   11  A    between atoms: C_15  and  C_17
REMARK                            x       y       z     vdW  Elec       q    Type
REMARK                         _______ _______ _______ _____ _____    ______ ____
ROOT
ATOM      1  C   UNL     1       3.697   5.714  18.174  0.00  0.00    +0.000 A 
ATOM      2  C   UNL     1       4.876   4.941  18.298  0.00  0.00    +0.000 A 
ATOM      3  C   UNL     1       6.123   5.491  17.982  0.00  0.00    +0.000 A 
ATOM      4  C   UNL     1       6.237   6.802  17.505  0.00  0.00    +0.000 A 
ATOM      5  C   UNL     1       5.066   7.571  17.412  0.00  0.00    +0.000 A 
ATOM      6  C   UNL     1       3.816   7.042  17.765  0.00  0.00    +0.000 A 
ATOM      7 BR   UNL     1       2.413   8.345  17.766  0.00  0.00    +0.000 Br
ENDROOT
BRANCH   1   8
ATOM      8  O   UNL     1       2.546   5.060  18.515  0.00  0.00    +0.000 OA
BRANCH   8   9
ATOM      9  C   UNL     1       2.106   5.326  19.850  0.00  0.00    +0.000 C 
BRANCH   9  10
ATOM     10  C   UNL     1       1.465   4.095  20.421  0.00  0.00    +0.000 C 
BRANCH  10  11
ATOM     11  C   UNL     1       2.417   2.893  20.401  0.00  0.00    +0.000 C 
BRANCH  11  13
ATOM     12  C   UNL     1       0.782   2.260  18.748  0.00  0.00    +0.000 C 
ATOM     13  N   UNL     1       2.035   1.874  19.405  0.00  0.00    +0.000 NA
ATOM     14  C   UNL     1       3.081   1.692  18.396  0.00  0.00    +0.000 C 
ENDBRANCH  11  13
ENDBRANCH  10  11
ENDBRANCH   9  10
ENDBRANCH   8   9
ENDBRANCH   1   8
BRANCH   4  15
ATOM     15  C   UNL     1       7.583   7.409  17.158  0.00  0.00    +0.000 C 
BRANCH  15  16
ATOM     16  C   UNL     1       8.119   8.332  18.260  0.00  0.00    +0.000 C 
BRANCH  16  17
ATOM     17  N   UNL     1       8.612   9.611  17.835  0.00  0.00    +0.000 N 
ATOM     18  C   UNL     1       9.240  10.401  18.789  0.00  0.00    +0.000 C 
ATOM     19  O   UNL     1       9.348  10.074  19.955  0.00  0.00    +0.000 OA
ATOM     20  H   UNL     1       8.898   9.739  16.871  0.00  0.00    +0.000 HD
BRANCH  18  21
ATOM     21  C   UNL     1       9.781  11.641  18.268  0.00  0.00    +0.000 A 
ATOM     22  C   UNL     1       9.352  12.925  18.465  0.00  0.00    +0.000 A 
ATOM     23  C   UNL     1      10.171  13.782  17.724  0.00  0.00    +0.000 A 
ATOM     24 BR   UNL     1       9.960  15.635  17.646  0.00  0.00    +0.000 Br
ATOM     25  C   UNL     1      11.104  13.020  17.076  0.00  0.00    +0.000 A 
ATOM     26  N   UNL     1      10.875  11.703  17.413  0.00  0.00    +0.000 N 
ATOM     27  H   UNL     1      11.376  10.909  17.063  0.00  0.00    +0.000 HD
ENDBRANCH  18  21
ENDBRANCH  16  17
ENDBRANCH  15  16
ENDBRANCH   4  15
TORSDOF 9
ENDMDL
MODEL 9
REMARK VINA RESULT:      -6.4      3.101      8.531
REMARK  Name = 
REMARK  11 active torsions:
REMARK  status: ('A' for Active; 'I' for Inactive)
REMARK    1  A    between atoms: C_1  and  N_2
REMARK    2  A    between atoms: N_2  and  C_3
REMARK    3  A    between atoms: N_2  and  C_4
REMARK    4  A    between atoms: C_4  and  C_5
REMARK    5  A    between atoms: C_5  and  C_6
REMARK    6  A    between atoms: C_6  and  O_7
REMARK    7  A    between atoms: O_7  and  C_8
REMARK    8  A    between atoms: C_11  and  C_12
REMARK    9  A    between atoms: C_12  and  C_13
REMARK   10  A    between atoms: C_13  and  N_14
REMARK   11  A    between atoms: C_15  and  C_17
REMARK                            x       y       z     vdW  Elec       q    Type
REMARK                         _______ _______ _______ _____ _____    ______ ____
ROOT
ATOM      1  C   UNL     1       1.811   6.862  20.214  0.00  0.00    +0.000 A 
ATOM      2  C   UNL     1       1.667   5.584  20.804  0.00  0.00    +0.000 A 
ATOM      3  C   UNL     1       1.752   4.426  20.024  0.00  0.00    +0.000 A 
ATOM      4  C   UNL     1       1.946   4.499  18.640  0.00  0.00    +0.000 A 
ATOM      5  C   UNL     1       2.117   5.769  18.066  0.00  0.00    +0.000 A 
ATOM      6  C   UNL     1       2.074   6.933  18.847  0.00  0.00    +0.000 A 
ATOM      7 BR   UNL     1       2.555   8.514  17.879  0.00  0.00    +0.000 Br
ENDROOT
BRANCH   1   8
ATOM      8  O   UNL     1       1.709   7.910  21.087  0.00  0.00    +0.000 OA
BRANCH   8   9
ATOM      9  C   UNL     1       0.468   8.616  20.994  0.00  0.00    +0.000 C 
BRANCH   9  10
ATOM     10  C   UNL     1       0.436   9.710  22.021  0.00  0.00    +0.000 C 
BRANCH  10  11
ATOM     11  C   UNL     1       0.295  11.095  21.377  0.00  0.00    +0.000 C 
BRANCH  11  13
ATOM     12  C   UNL     1      -1.437  11.577  19.772  0.00  0.00    +0.000 C 
ATOM     13  N   UNL     1      -0.088  11.030  19.954  0.00  0.00    +0.000 NA
ATOM     14  C   UNL     1       0.856  11.768  19.112  0.00  0.00    +0.000 C 
ENDBRANCH  11  13
ENDBRANCH  10  11
ENDBRANCH   9  10
ENDBRANCH   8   9
ENDBRANCH   1   8
BRANCH   4  15
ATOM     15  C   UNL     1       2.039   3.251  17.781  0.00  0.00    +0.000 C 
BRANCH  15  16
ATOM     16  C   UNL     1       3.484   2.889  17.415  0.00  0.00    +0.000 C 
BRANCH  16  17
ATOM     17  N   UNL     1       4.449   3.948  17.512  0.00  0.00    +0.000 N 
ATOM     18  C   UNL     1       5.221   4.003  18.664  0.00  0.00    +0.000 C 
ATOM     19  O   UNL     1       5.085   3.229  19.592  0.00  0.00    +0.000 OA
ATOM     20  H   UNL     1       4.856   4.328  16.665  0.00  0.00    +0.000 HD
BRANCH  18  21
ATOM     21  C   UNL     1       6.225   5.048  18.654  0.00  0.00    +0.000 A 
ATOM     22  C   UNL     1       6.241   6.230  17.964  0.00  0.00    +0.000 A 
ATOM     23  C   UNL     1       7.440   6.890  18.249  0.00  0.00    +0.000 A 
ATOM     24 BR   UNL     1       7.937   8.533  17.516  0.00  0.00    +0.000 Br
ATOM     25  C   UNL     1       8.157   6.112  19.116  0.00  0.00    +0.000 A 
ATOM     26  N   UNL     1       7.412   4.981  19.376  0.00  0.00    +0.000 N 
ATOM     27  H   UNL     1       7.693   4.208  19.948  0.00  0.00    +0.000 HD
ENDBRANCH  18  21
ENDBRANCH  16  17
ENDBRANCH  15  16
ENDBRANCH   4  15
TORSDOF 9
ENDMDL
