MODEL 1
REMARK VINA RESULT:      -7.8      0.000      0.000
REMARK  Name = 
REMARK  8 active torsions:
REMARK  status: ('A' for Active; 'I' for Inactive)
REMARK    1  A    between atoms: C_1  and  C_2
REMARK    2  A    between atoms: C_2  and  O_3
REMARK    3  A    between atoms: O_3  and  C_4
REMARK    4  A    between atoms: C_7  and  N_8
REMARK    5  A    between atoms: C_9  and  C_11
REMARK    6  A    between atoms: C_11  and  C_12
REMARK    7  A    between atoms: C_12  and  S_13
REMARK    8  A    between atoms: S_13  and  C_16
REMARK                            x       y       z     vdW  Elec       q    Type
REMARK                         _______ _______ _______ _____ _____    ______ ____
ROOT
ATOM      1  C   UNL     1       2.827   6.152  18.435  0.00  0.00    +0.000 C 
ENDROOT
BRANCH   1   3
ATOM      2  N   UNL     1       1.897   8.122  19.508  0.00  0.00    +0.000 N 
ATOM      3  C   UNL     1       2.061   6.749  19.593  0.00  0.00    +0.000 C 
ATOM      4  O   UNL     1       1.627   6.040  20.498  0.00  0.00    +0.000 OA
ATOM      5  H   UNL     1       1.954   8.531  18.583  0.00  0.00    +0.000 HD
BRANCH   2   9
ATOM      6  C   UNL     1      -0.256  10.256  22.439  0.00  0.00    +0.000 A 
ATOM      7  C   UNL     1      -0.523  10.472  21.086  0.00  0.00    +0.000 A 
ATOM      8  C   UNL     1       0.187   9.779  20.101  0.00  0.00    +0.000 A 
ATOM      9  C   UNL     1       1.158   8.845  20.467  0.00  0.00    +0.000 A 
ATOM     10  C   UNL     1       1.414   8.612  21.820  0.00  0.00    +0.000 A 
ATOM     11  C   UNL     1       0.740   9.347  22.802  0.00  0.00    +0.000 A 
BRANCH   6  12
ATOM     12  O   UNL     1      -1.017  10.991  23.305  0.00  0.00    +0.000 OA
BRANCH  12  14
ATOM     13  C   UNL     1      -3.064  12.173  23.611  0.00  0.00    +0.000 C 
ATOM     14  C   UNL     1      -1.838  12.007  22.730  0.00  0.00    +0.000 C 
ENDBRANCH  12  14
ENDBRANCH   6  12
ENDBRANCH   2   9
ENDBRANCH   1   3
BRANCH   1  15
ATOM     15  C   UNL     1       2.373   4.716  18.199  0.00  0.00    +0.000 C 
BRANCH  15  16
ATOM     16  S   UNL     1       3.640   3.560  18.652  0.00  0.00    +0.000 S 
ATOM     17  O   UNL     1       3.571   3.312  20.079  0.00  0.00    +0.000 OA
ATOM     18  O   UNL     1       3.556   2.448  17.720  0.00  0.00    +0.000 OA
BRANCH  16  19
ATOM     19  C   UNL     1       5.168   4.378  18.331  0.00  0.00    +0.000 A 
ATOM     20  C   UNL     1       5.903   4.974  19.380  0.00  0.00    +0.000 A 
ATOM     21  C   UNL     1       7.109   5.684  19.167  0.00  0.00    +0.000 A 
ATOM     22  C   UNL     1       7.675   5.872  17.896  0.00  0.00    +0.000 A 
ATOM     23  C   UNL     1       6.973   5.299  16.808  0.00  0.00    +0.000 A 
ATOM     24  N   UNL     1       7.338   5.364  15.519  0.00  0.00    +0.000 NA
ATOM     25  S   UNL     1       6.182   4.546  14.656  0.00  0.00    +0.000 S 
ATOM     26  N   UNL     1       5.184   4.040  15.881  0.00  0.00    +0.000 NA
ATOM     27  C   UNL     1       5.686   4.533  17.026  0.00  0.00    +0.000 A 
ENDBRANCH  16  19
ENDBRANCH  15  16
ENDBRANCH   1  15
TORSDOF 7
ENDMDL
MODEL 2
REMARK VINA RESULT:      -7.7      5.596      7.740
REMARK  Name = 
REMARK  8 active torsions:
REMARK  status: ('A' for Active; 'I' for Inactive)
REMARK    1  A    between atoms: C_1  and  C_2
REMARK    2  A    between atoms: C_2  and  O_3
REMARK    3  A    between atoms: O_3  and  C_4
REMARK    4  A    between atoms: C_7  and  N_8
REMARK    5  A    between atoms: C_9  and  C_11
REMARK    6  A    between atoms: C_11  and  C_12
REMARK    7  A    between atoms: C_12  and  S_13
REMARK    8  A    between atoms: S_13  and  C_16
REMARK                            x       y       z     vdW  Elec       q    Type
REMARK                         _______ _______ _______ _____ _____    ______ ____
ROOT
ATOM      1  C   UNL     1       8.051   7.122  18.267  0.00  0.00    +0.000 C 
ENDROOT
BRANCH   1   3
ATOM      2  N   UNL     1       9.157   9.099  19.142  0.00  0.00    +0.000 N 
ATOM      3  C   UNL     1       8.198   8.626  18.262  0.00  0.00    +0.000 C 
ATOM      4  O   UNL     1       7.518   9.326  17.514  0.00  0.00    +0.000 OA
ATOM      5  H   UNL     1       9.886   8.451  19.412  0.00  0.00    +0.000 HD
BRANCH   2   9
ATOM      6  C   UNL     1      10.098  13.194  19.501  0.00  0.00    +0.000 A 
ATOM      7  C   UNL     1      10.270  12.546  18.277  0.00  0.00    +0.000 A 
ATOM      8  C   UNL     1       9.971  11.187  18.143  0.00  0.00    +0.000 A 
ATOM      9  C   UNL     1       9.474  10.471  19.232  0.00  0.00    +0.000 A 
ATOM     10  C   UNL     1       9.281  11.120  20.453  0.00  0.00    +0.000 A 
ATOM     11  C   UNL     1       9.633  12.467  20.598  0.00  0.00    +0.000 A 
BRANCH   6  12
ATOM     12  O   UNL     1      10.422  14.522  19.505  0.00  0.00    +0.000 OA
BRANCH  12  14
ATOM     13  C   UNL     1      10.291  16.392  20.977  0.00  0.00    +0.000 C 
ATOM     14  C   UNL     1      10.950  15.048  20.722  0.00  0.00    +0.000 C 
ENDBRANCH  12  14
ENDBRANCH   6  12
ENDBRANCH   2   9
ENDBRANCH   1   3
BRANCH   1  15
ATOM     15  C   UNL     1       7.337   6.666  17.000  0.00  0.00    +0.000 C 
BRANCH  15  16
ATOM     16  S   UNL     1       6.594   5.071  17.221  0.00  0.00    +0.000 S 
ATOM     17  O   UNL     1       6.692   4.324  15.982  0.00  0.00    +0.000 OA
ATOM     18  O   UNL     1       7.140   4.513  18.447  0.00  0.00    +0.000 OA
BRANCH  16  19
ATOM     19  C   UNL     1       4.884   5.379  17.520  0.00  0.00    +0.000 A 
ATOM     20  C   UNL     1       4.403   6.700  17.663  0.00  0.00    +0.000 A 
ATOM     21  C   UNL     1       3.049   6.996  17.953  0.00  0.00    +0.000 A 
ATOM     22  C   UNL     1       2.068   6.008  18.136  0.00  0.00    +0.000 A 
ATOM     23  C   UNL     1       2.502   4.666  18.008  0.00  0.00    +0.000 A 
ATOM     24  N   UNL     1       1.731   3.578  18.148  0.00  0.00    +0.000 NA
ATOM     25  S   UNL     1       2.715   2.264  17.909  0.00  0.00    +0.000 S 
ATOM     26  N   UNL     1       4.157   3.016  17.582  0.00  0.00    +0.000 NA
ATOM     27  C   UNL     1       3.946   4.339  17.694  0.00  0.00    +0.000 A 
ENDBRANCH  16  19
ENDBRANCH  15  16
ENDBRANCH   1  15
TORSDOF 7
ENDMDL
MODEL 3
REMARK VINA RESULT:      -7.7      2.093      2.568
REMARK  Name = 
REMARK  8 active torsions:
REMARK  status: ('A' for Active; 'I' for Inactive)
REMARK    1  A    between atoms: C_1  and  C_2
REMARK    2  A    between atoms: C_2  and  O_3
REMARK    3  A    between atoms: O_3  and  C_4
REMARK    4  A    between atoms: C_7  and  N_8
REMARK    5  A    between atoms: C_9  and  C_11
REMARK    6  A    between atoms: C_11  and  C_12
REMARK    7  A    between atoms: C_12  and  S_13
REMARK    8  A    between atoms: S_13  and  C_16
REMARK                            x       y       z     vdW  Elec       q    Type
REMARK                         _______ _______ _______ _____ _____    ______ ____
ROOT
ATOM      1  C   UNL     1       2.330   3.342  20.564  0.00  0.00    +0.000 C 
ENDROOT
BRANCH   1   3
ATOM      2  N   UNL     1       2.486   5.749  20.276  0.00  0.00    +0.000 N 
ATOM      3  C   UNL     1       1.626   4.671  20.415  0.00  0.00    +0.000 C 
ATOM      4  O   UNL     1       0.400   4.740  20.407  0.00  0.00    +0.000 OA
ATOM      5  H   UNL     1       3.415   5.547  19.929  0.00  0.00    +0.000 HD
BRANCH   2   9
ATOM      6  C   UNL     1       1.078   9.659  19.565  0.00  0.00    +0.000 A 
ATOM      7  C   UNL     1       0.870   9.061  20.809  0.00  0.00    +0.000 A 
ATOM      8  C   UNL     1       1.323   7.762  21.059  0.00  0.00    +0.000 A 
ATOM      9  C   UNL     1       2.010   7.059  20.068  0.00  0.00    +0.000 A 
ATOM     10  C   UNL     1       2.237   7.662  18.829  0.00  0.00    +0.000 A 
ATOM     11  C   UNL     1       1.735   8.941  18.564  0.00  0.00    +0.000 A 
BRANCH   6  12
ATOM     12  O   UNL     1       0.591  10.930  19.444  0.00  0.00    +0.000 OA
BRANCH  12  14
ATOM     13  C   UNL     1      -0.780  12.597  18.433  0.00  0.00    +0.000 C 
ATOM     14  C   UNL     1      -0.532  11.107  18.581  0.00  0.00    +0.000 C 
ENDBRANCH  12  14
ENDBRANCH   6  12
ENDBRANCH   2   9
ENDBRANCH   1   3
BRANCH   1  15
ATOM     15  C   UNL     1       3.779   3.469  20.105  0.00  0.00    +0.000 C 
BRANCH  15  16
ATOM     16  S   UNL     1       3.900   3.402  18.337  0.00  0.00    +0.000 S 
ATOM     17  O   UNL     1       4.194   2.042  17.930  0.00  0.00    +0.000 OA
ATOM     18  O   UNL     1       2.728   4.078  17.804  0.00  0.00    +0.000 OA
BRANCH  16  19
ATOM     19  C   UNL     1       5.294   4.395  17.917  0.00  0.00    +0.000 A 
ATOM     20  C   UNL     1       5.910   5.221  18.883  0.00  0.00    +0.000 A 
ATOM     21  C   UNL     1       7.000   6.073  18.583  0.00  0.00    +0.000 A 
ATOM     22  C   UNL     1       7.558   6.183  17.299  0.00  0.00    +0.000 A 
ATOM     23  C   UNL     1       6.972   5.379  16.292  0.00  0.00    +0.000 A 
ATOM     24  N   UNL     1       7.349   5.337  15.005  0.00  0.00    +0.000 NA
ATOM     25  S   UNL     1       6.347   4.251  14.251  0.00  0.00    +0.000 S 
ATOM     26  N   UNL     1       5.411   3.758  15.530  0.00  0.00    +0.000 NA
ATOM     27  C   UNL     1       5.809   4.461  16.604  0.00  0.00    +0.000 A 
ENDBRANCH  16  19
ENDBRANCH  15  16
ENDBRANCH   1  15
TORSDOF 7
ENDMDL
MODEL 4
REMARK VINA RESULT:      -7.6      6.199      8.118
REMARK  Name = 
REMARK  8 active torsions:
REMARK  status: ('A' for Active; 'I' for Inactive)
REMARK    1  A    between atoms: C_1  and  C_2
REMARK    2  A    between atoms: C_2  and  O_3
REMARK    3  A    between atoms: O_3  and  C_4
REMARK    4  A    between atoms: C_7  and  N_8
REMARK    5  A    between atoms: C_9  and  C_11
REMARK    6  A    between atoms: C_11  and  C_12
REMARK    7  A    between atoms: C_12  and  S_13
REMARK    8  A    between atoms: S_13  and  C_16
REMARK                            x       y       z     vdW  Elec       q    Type
REMARK                         _______ _______ _______ _____ _____    ______ ____
ROOT
ATOM      1  C   UNL     1       8.517   8.066  18.683  0.00  0.00    +0.000 C 
ENDROOT
BRANCH   1   3
ATOM      2  N   UNL     1       9.608  10.166  19.228  0.00  0.00    +0.000 N 
ATOM      3  C   UNL     1       8.623   9.558  18.467  0.00  0.00    +0.000 C 
ATOM      4  O   UNL     1       7.892  10.135  17.666  0.00  0.00    +0.000 OA
ATOM      5  H   UNL     1      10.366   9.576  19.547  0.00  0.00    +0.000 HD
BRANCH   2   9
ATOM      6  C   UNL     1      10.436  14.294  18.981  0.00  0.00    +0.000 A 
ATOM      7  C   UNL     1      10.815  13.445  17.940  0.00  0.00    +0.000 A 
ATOM      8  C   UNL     1      10.556  12.073  18.009  0.00  0.00    +0.000 A 
ATOM      9  C   UNL     1       9.892  11.543  19.117  0.00  0.00    +0.000 A 
ATOM     10  C   UNL     1       9.493  12.392  20.151  0.00  0.00    +0.000 A 
ATOM     11  C   UNL     1       9.803  13.756  20.103  0.00  0.00    +0.000 A 
BRANCH   6  12
ATOM     12  O   UNL     1      10.742  15.613  18.795  0.00  0.00    +0.000 OA
BRANCH  12  14
ATOM     13  C   UNL     1       8.755  16.595  17.919  0.00  0.00    +0.000 C 
ATOM     14  C   UNL     1       9.714  16.556  19.096  0.00  0.00    +0.000 C 
ENDBRANCH  12  14
ENDBRANCH   6  12
ENDBRANCH   2   9
ENDBRANCH   1   3
BRANCH   1  15
ATOM     15  C   UNL     1       7.671   7.442  17.579  0.00  0.00    +0.000 C 
BRANCH  15  16
ATOM     16  S   UNL     1       7.224   5.773  17.981  0.00  0.00    +0.000 S 
ATOM     17  O   UNL     1       7.616   4.899  16.892  0.00  0.00    +0.000 OA
ATOM     18  O   UNL     1       7.709   5.514  19.326  0.00  0.00    +0.000 OA
BRANCH  16  19
ATOM     19  C   UNL     1       5.463   5.758  18.064  0.00  0.00    +0.000 A 
ATOM     20  C   UNL     1       4.707   6.841  17.563  0.00  0.00    +0.000 A 
ATOM     21  C   UNL     1       3.295   6.898  17.652  0.00  0.00    +0.000 A 
ATOM     22  C   UNL     1       2.522   5.893  18.254  0.00  0.00    +0.000 A 
ATOM     23  C   UNL     1       3.233   4.786  18.778  0.00  0.00    +0.000 A 
ATOM     24  N   UNL     1       2.690   3.727  19.394  0.00  0.00    +0.000 NA
ATOM     25  S   UNL     1       3.944   2.728  19.818  0.00  0.00    +0.000 S 
ATOM     26  N   UNL     1       5.233   3.577  19.209  0.00  0.00    +0.000 NA
ATOM     27  C   UNL     1       4.743   4.714  18.684  0.00  0.00    +0.000 A 
ENDBRANCH  16  19
ENDBRANCH  15  16
ENDBRANCH   1  15
TORSDOF 7
ENDMDL
MODEL 5
REMARK VINA RESULT:      -7.6      5.303      7.724
REMARK  Name = 
REMARK  8 active torsions:
REMARK  status: ('A' for Active; 'I' for Inactive)
REMARK    1  A    between atoms: C_1  and  C_2
REMARK    2  A    between atoms: C_2  and  O_3
REMARK    3  A    between atoms: O_3  and  C_4
REMARK    4  A    between atoms: C_7  and  N_8
REMARK    5  A    between atoms: C_9  and  C_11
REMARK    6  A    between atoms: C_11  and  C_12
REMARK    7  A    between atoms: C_12  and  S_13
REMARK    8  A    between atoms: S_13  and  C_16
REMARK                            x       y       z     vdW  Elec       q    Type
REMARK                         _______ _______ _______ _____ _____    ______ ____
ROOT
ATOM      1  C   UNL     1       7.981   6.710  18.303  0.00  0.00    +0.000 C 
ENDROOT
BRANCH   1   3
ATOM      2  N   UNL     1       8.953   8.782  19.117  0.00  0.00    +0.000 N 
ATOM      3  C   UNL     1       8.080   8.215  18.203  0.00  0.00    +0.000 C 
ATOM      4  O   UNL     1       7.439   8.836  17.359  0.00  0.00    +0.000 OA
ATOM      5  H   UNL     1       9.679   8.180  19.486  0.00  0.00    +0.000 HD
BRANCH   2   9
ATOM      6  C   UNL     1       9.738  12.924  19.078  0.00  0.00    +0.000 A 
ATOM      7  C   UNL     1       9.511  12.271  20.291  0.00  0.00    +0.000 A 
ATOM      8  C   UNL     1       9.242  10.899  20.321  0.00  0.00    +0.000 A 
ATOM      9  C   UNL     1       9.219  10.166  19.134  0.00  0.00    +0.000 A 
ATOM     10  C   UNL     1       9.465  10.813  17.921  0.00  0.00    +0.000 A 
ATOM     11  C   UNL     1       9.680  12.195  17.890  0.00  0.00    +0.000 A 
BRANCH   6  12
ATOM     12  O   UNL     1       9.993  14.263  19.180  0.00  0.00    +0.000 OA
BRANCH  12  14
ATOM     13  C   UNL     1       9.800  16.261  17.895  0.00  0.00    +0.000 C 
ATOM     14  C   UNL     1       9.039  15.143  18.586  0.00  0.00    +0.000 C 
ENDBRANCH  12  14
ENDBRANCH   6  12
ENDBRANCH   2   9
ENDBRANCH   1   3
BRANCH   1  15
ATOM     15  C   UNL     1       7.148   6.167  17.147  0.00  0.00    +0.000 C 
BRANCH  15  16
ATOM     16  S   UNL     1       5.980   4.957  17.712  0.00  0.00    +0.000 S 
ATOM     17  O   UNL     1       5.651   4.066  16.617  0.00  0.00    +0.000 OA
ATOM     18  O   UNL     1       6.499   4.412  18.956  0.00  0.00    +0.000 OA
BRANCH  16  19
ATOM     19  C   UNL     1       4.521   5.856  18.121  0.00  0.00    +0.000 A 
ATOM     20  C   UNL     1       4.234   7.090  17.495  0.00  0.00    +0.000 A 
ATOM     21  C   UNL     1       3.102   7.873  17.825  0.00  0.00    +0.000 A 
ATOM     22  C   UNL     1       2.171   7.502  18.808  0.00  0.00    +0.000 A 
ATOM     23  C   UNL     1       2.416   6.275  19.470  0.00  0.00    +0.000 A 
ATOM     24  N   UNL     1       1.657   5.742  20.439  0.00  0.00    +0.000 NA
ATOM     25  S   UNL     1       2.379   4.314  20.877  0.00  0.00    +0.000 S 
ATOM     26  N   UNL     1       3.668   4.288  19.833  0.00  0.00    +0.000 NA
ATOM     27  C   UNL     1       3.622   5.428  19.122  0.00  0.00    +0.000 A 
ENDBRANCH  16  19
ENDBRANCH  15  16
ENDBRANCH   1  15
TORSDOF 7
ENDMDL
MODEL 6
REMARK VINA RESULT:      -7.6      2.458      3.147
REMARK  Name = 
REMARK  8 active torsions:
REMARK  status: ('A' for Active; 'I' for Inactive)
REMARK    1  A    between atoms: C_1  and  C_2
REMARK    2  A    between atoms: C_2  and  O_3
REMARK    3  A    between atoms: O_3  and  C_4
REMARK    4  A    between atoms: C_7  and  N_8
REMARK    5  A    between atoms: C_9  and  C_11
REMARK    6  A    between atoms: C_11  and  C_12
REMARK    7  A    between atoms: C_12  and  S_13
REMARK    8  A    between atoms: S_13  and  C_16
REMARK                            x       y       z     vdW  Elec       q    Type
REMARK                         _______ _______ _______ _____ _____    ______ ____
ROOT
ATOM      1  C   UNL     1       2.237   3.778  21.081  0.00  0.00    +0.000 C 
ENDROOT
BRANCH   1   3
ATOM      2  N   UNL     1       2.401   6.140  20.541  0.00  0.00    +0.000 N 
ATOM      3  C   UNL     1       1.562   5.039  20.591  0.00  0.00    +0.000 C 
ATOM      4  O   UNL     1       0.379   5.036  20.261  0.00  0.00    +0.000 OA
ATOM      5  H   UNL     1       3.394   5.953  20.471  0.00  0.00    +0.000 HD
BRANCH   2   9
ATOM      6  C   UNL     1       1.108   9.847  19.002  0.00  0.00    +0.000 A 
ATOM      7  C   UNL     1       0.862   9.524  20.338  0.00  0.00    +0.000 A 
ATOM      8  C   UNL     1       1.277   8.297  20.862  0.00  0.00    +0.000 A 
ATOM      9  C   UNL     1       1.963   7.389  20.054  0.00  0.00    +0.000 A 
ATOM     10  C   UNL     1       2.229   7.716  18.723  0.00  0.00    +0.000 A 
ATOM     11  C   UNL     1       1.765   8.923  18.188  0.00  0.00    +0.000 A 
BRANCH   6  12
ATOM     12  O   UNL     1       0.657  11.075  18.609  0.00  0.00    +0.000 OA
BRANCH  12  14
ATOM     13  C   UNL     1      -1.464  11.997  18.033  0.00  0.00    +0.000 C 
ATOM     14  C   UNL     1      -0.582  11.511  19.170  0.00  0.00    +0.000 C 
ENDBRANCH  12  14
ENDBRANCH   6  12
ENDBRANCH   2   9
ENDBRANCH   1   3
BRANCH   1  15
ATOM     15  C   UNL     1       3.725   3.825  20.753  0.00  0.00    +0.000 C 
BRANCH  15  16
ATOM     16  S   UNL     1       4.126   2.707  19.435  0.00  0.00    +0.000 S 
ATOM     17  O   UNL     1       5.180   1.813  19.874  0.00  0.00    +0.000 OA
ATOM     18  O   UNL     1       2.872   2.159  18.945  0.00  0.00    +0.000 OA
BRANCH  16  19
ATOM     19  C   UNL     1       4.783   3.709  18.143  0.00  0.00    +0.000 A 
ATOM     20  C   UNL     1       4.241   3.653  16.840  0.00  0.00    +0.000 A 
ATOM     21  C   UNL     1       4.766   4.400  15.757  0.00  0.00    +0.000 A 
ATOM     22  C   UNL     1       5.876   5.251  15.878  0.00  0.00    +0.000 A 
ATOM     23  C   UNL     1       6.460   5.338  17.165  0.00  0.00    +0.000 A 
ATOM     24  N   UNL     1       7.525   6.085  17.492  0.00  0.00    +0.000 NA
ATOM     25  S   UNL     1       7.808   5.827  19.106  0.00  0.00    +0.000 S 
ATOM     26  N   UNL     1       6.572   4.782  19.472  0.00  0.00    +0.000 NA
ATOM     27  C   UNL     1       5.904   4.546  18.329  0.00  0.00    +0.000 A 
ENDBRANCH  16  19
ENDBRANCH  15  16
ENDBRANCH   1  15
TORSDOF 7
ENDMDL
MODEL 7
REMARK VINA RESULT:      -7.5      1.666      2.225
REMARK  Name = 
REMARK  8 active torsions:
REMARK  status: ('A' for Active; 'I' for Inactive)
REMARK    1  A    between atoms: C_1  and  C_2
REMARK    2  A    between atoms: C_2  and  O_3
REMARK    3  A    between atoms: O_3  and  C_4
REMARK    4  A    between atoms: C_7  and  N_8
REMARK    5  A    between atoms: C_9  and  C_11
REMARK    6  A    between atoms: C_11  and  C_12
REMARK    7  A    between atoms: C_12  and  S_13
REMARK    8  A    between atoms: S_13  and  C_16
REMARK                            x       y       z     vdW  Elec       q    Type
REMARK                         _______ _______ _______ _____ _____    ______ ____
ROOT
ATOM      1  C   UNL     1       3.071   4.998  20.161  0.00  0.00    +0.000 C 
ENDROOT
BRANCH   1   3
ATOM      2  N   UNL     1       2.375   7.293  20.541  0.00  0.00    +0.000 N 
ATOM      3  C   UNL     1       1.966   5.970  20.501  0.00  0.00    +0.000 C 
ATOM      4  O   UNL     1       0.818   5.579  20.698  0.00  0.00    +0.000 OA
ATOM      5  H   UNL     1       3.207   7.529  20.014  0.00  0.00    +0.000 HD
BRANCH   2   9
ATOM      6  C   UNL     1      -0.356  10.441  21.182  0.00  0.00    +0.000 A 
ATOM      7  C   UNL     1       0.217   9.785  22.273  0.00  0.00    +0.000 A 
ATOM      8  C   UNL     1       1.118   8.734  22.078  0.00  0.00    +0.000 A 
ATOM      9  C   UNL     1       1.469   8.346  20.785  0.00  0.00    +0.000 A 
ATOM     10  C   UNL     1       0.914   9.014  19.691  0.00  0.00    +0.000 A 
ATOM     11  C   UNL     1      -0.029  10.029  19.890  0.00  0.00    +0.000 A 
BRANCH   6  12
ATOM     12  O   UNL     1      -1.219  11.452  21.502  0.00  0.00    +0.000 OA
BRANCH  12  14
ATOM     13  C   UNL     1      -1.798  13.048  23.175  0.00  0.00    +0.000 C 
ATOM     14  C   UNL     1      -1.579  11.575  22.878  0.00  0.00    +0.000 C 
ENDBRANCH  12  14
ENDBRANCH   6  12
ENDBRANCH   2   9
ENDBRANCH   1   3
BRANCH   1  15
ATOM     15  C   UNL     1       2.584   4.003  19.114  0.00  0.00    +0.000 C 
BRANCH  15  16
ATOM     16  S   UNL     1       3.890   2.917  18.604  0.00  0.00    +0.000 S 
ATOM     17  O   UNL     1       4.721   2.601  19.749  0.00  0.00    +0.000 OA
ATOM     18  O   UNL     1       3.278   1.845  17.837  0.00  0.00    +0.000 OA
BRANCH  16  19
ATOM     19  C   UNL     1       4.874   3.850  17.477  0.00  0.00    +0.000 A 
ATOM     20  C   UNL     1       4.640   3.780  16.086  0.00  0.00    +0.000 A 
ATOM     21  C   UNL     1       5.434   4.471  15.138  0.00  0.00    +0.000 A 
ATOM     22  C   UNL     1       6.528   5.275  15.493  0.00  0.00    +0.000 A 
ATOM     23  C   UNL     1       6.808   5.374  16.878  0.00  0.00    +0.000 A 
ATOM     24  N   UNL     1       7.806   6.082  17.426  0.00  0.00    +0.000 NA
ATOM     25  S   UNL     1       7.701   5.860  19.067  0.00  0.00    +0.000 S 
ATOM     26  N   UNL     1       6.364   4.883  19.159  0.00  0.00    +0.000 NA
ATOM     27  C   UNL     1       5.963   4.643  17.899  0.00  0.00    +0.000 A 
ENDBRANCH  16  19
ENDBRANCH  15  16
ENDBRANCH   1  15
TORSDOF 7
ENDMDL
MODEL 8
REMARK VINA RESULT:      -7.4      1.999      2.203
REMARK  Name = 
REMARK  8 active torsions:
REMARK  status: ('A' for Active; 'I' for Inactive)
REMARK    1  A    between atoms: C_1  and  C_2
REMARK    2  A    between atoms: C_2  and  O_3
REMARK    3  A    between atoms: O_3  and  C_4
REMARK    4  A    between atoms: C_7  and  N_8
REMARK    5  A    between atoms: C_9  and  C_11
REMARK    6  A    between atoms: C_11  and  C_12
REMARK    7  A    between atoms: C_12  and  S_13
REMARK    8  A    between atoms: S_13  and  C_16
REMARK                            x       y       z     vdW  Elec       q    Type
REMARK                         _______ _______ _______ _____ _____    ______ ____
ROOT
ATOM      1  C   UNL     1       3.084   6.996  18.072  0.00  0.00    +0.000 C 
ENDROOT
BRANCH   1   3
ATOM      2  N   UNL     1       1.694   8.975  17.852  0.00  0.00    +0.000 N 
ATOM      3  C   UNL     1       2.169   8.008  18.723  0.00  0.00    +0.000 C 
ATOM      4  O   UNL     1       1.886   7.930  19.916  0.00  0.00    +0.000 OA
ATOM      5  H   UNL     1       1.681   8.735  16.869  0.00  0.00    +0.000 HD
BRANCH   2   9
ATOM      6  C   UNL     1      -1.101  11.888  19.072  0.00  0.00    +0.000 A 
ATOM      7  C   UNL     1       0.252  12.053  19.374  0.00  0.00    +0.000 A 
ATOM      8  C   UNL     1       1.191  11.093  18.984  0.00  0.00    +0.000 A 
ATOM      9  C   UNL     1       0.782   9.968  18.267  0.00  0.00    +0.000 A 
ATOM     10  C   UNL     1      -0.567   9.809  17.945  0.00  0.00    +0.000 A 
ATOM     11  C   UNL     1      -1.511  10.745  18.384  0.00  0.00    +0.000 A 
BRANCH   6  12
ATOM     12  O   UNL     1      -1.918  12.894  19.504  0.00  0.00    +0.000 OA
BRANCH  12  14
ATOM     13  C   UNL     1      -3.858  12.850  20.887  0.00  0.00    +0.000 C 
ATOM     14  C   UNL     1      -2.340  12.836  20.866  0.00  0.00    +0.000 C 
ENDBRANCH  12  14
ENDBRANCH   6  12
ENDBRANCH   2   9
ENDBRANCH   1   3
BRANCH   1  15
ATOM     15  C   UNL     1       2.368   5.657  17.943  0.00  0.00    +0.000 C 
BRANCH  15  16
ATOM     16  S   UNL     1       3.272   4.365  18.754  0.00  0.00    +0.000 S 
ATOM     17  O   UNL     1       3.065   4.465  20.186  0.00  0.00    +0.000 OA
ATOM     18  O   UNL     1       2.958   3.126  18.064  0.00  0.00    +0.000 OA
BRANCH  16  19
ATOM     19  C   UNL     1       4.973   4.704  18.440  0.00  0.00    +0.000 A 
ATOM     20  C   UNL     1       5.806   5.223  19.457  0.00  0.00    +0.000 A 
ATOM     21  C   UNL     1       7.164   5.558  19.241  0.00  0.00    +0.000 A 
ATOM     22  C   UNL     1       7.802   5.417  17.999  0.00  0.00    +0.000 A 
ATOM     23  C   UNL     1       7.008   4.906  16.943  0.00  0.00    +0.000 A 
ATOM     24  N   UNL     1       7.420   4.699  15.684  0.00  0.00    +0.000 NA
ATOM     25  S   UNL     1       6.116   4.102  14.850  0.00  0.00    +0.000 S 
ATOM     26  N   UNL     1       4.979   4.045  16.057  0.00  0.00    +0.000 NA
ATOM     27  C   UNL     1       5.556   4.541  17.165  0.00  0.00    +0.000 A 
ENDBRANCH  16  19
ENDBRANCH  15  16
ENDBRANCH   1  15
TORSDOF 7
ENDMDL
MODEL 9
REMARK VINA RESULT:      -7.4      2.242      2.700
REMARK  Name = 
REMARK  8 active torsions:
REMARK  status: ('A' for Active; 'I' for Inactive)
REMARK    1  A    between atoms: C_1  and  C_2
REMARK    2  A    between atoms: C_2  and  O_3
REMARK    3  A    between atoms: O_3  and  C_4
REMARK    4  A    between atoms: C_7  and  N_8
REMARK    5  A    between atoms: C_9  and  C_11
REMARK    6  A    between atoms: C_11  and  C_12
REMARK    7  A    between atoms: C_12  and  S_13
REMARK    8  A    between atoms: S_13  and  C_16
REMARK                            x       y       z     vdW  Elec       q    Type
REMARK                         _______ _______ _______ _____ _____    ______ ____
ROOT
ATOM      1  C   UNL     1       2.902   7.398  18.100  0.00  0.00    +0.000 C 
ENDROOT
BRANCH   1   3
ATOM      2  N   UNL     1       1.326   8.707  19.404  0.00  0.00    +0.000 N 
ATOM      3  C   UNL     1       2.073   8.654  18.238  0.00  0.00    +0.000 C 
ATOM      4  O   UNL     1       2.103   9.530  17.377  0.00  0.00    +0.000 OA
ATOM      5  H   UNL     1       1.652   8.144  20.180  0.00  0.00    +0.000 HD
BRANCH   2   9
ATOM      6  C   UNL     1      -0.967  12.092  20.436  0.00  0.00    +0.000 A 
ATOM      7  C   UNL     1      -1.401  11.243  19.415  0.00  0.00    +0.000 A 
ATOM      8  C   UNL     1      -0.649  10.121  19.056  0.00  0.00    +0.000 A 
ATOM      9  C   UNL     1       0.536   9.828  19.732  0.00  0.00    +0.000 A 
ATOM     10  C   UNL     1       0.963  10.664  20.766  0.00  0.00    +0.000 A 
ATOM     11  C   UNL     1       0.235  11.816  21.088  0.00  0.00    +0.000 A 
BRANCH   6  12
ATOM     12  O   UNL     1      -1.790  13.152  20.696  0.00  0.00    +0.000 OA
BRANCH  12  14
ATOM     13  C   UNL     1      -3.869  12.778  21.800  0.00  0.00    +0.000 C 
ATOM     14  C   UNL     1      -3.183  12.954  20.457  0.00  0.00    +0.000 C 
ENDBRANCH  12  14
ENDBRANCH   6  12
ENDBRANCH   2   9
ENDBRANCH   1   3
BRANCH   1  15
ATOM     15  C   UNL     1       2.757   6.540  19.352  0.00  0.00    +0.000 C 
BRANCH  15  16
ATOM     16  S   UNL     1       2.882   4.814  18.965  0.00  0.00    +0.000 S 
ATOM     17  O   UNL     1       3.186   4.075  20.175  0.00  0.00    +0.000 OA
ATOM     18  O   UNL     1       1.708   4.467  18.182  0.00  0.00    +0.000 OA
BRANCH  16  19
ATOM     19  C   UNL     1       4.271   4.665  17.890  0.00  0.00    +0.000 A 
ATOM     20  C   UNL     1       4.113   4.198  16.567  0.00  0.00    +0.000 A 
ATOM     21  C   UNL     1       5.203   4.014  15.682  0.00  0.00    +0.000 A 
ATOM     22  C   UNL     1       6.536   4.267  16.043  0.00  0.00    +0.000 A 
ATOM     23  C   UNL     1       6.749   4.732  17.363  0.00  0.00    +0.000 A 
ATOM     24  N   UNL     1       7.939   5.028  17.907  0.00  0.00    +0.000 NA
ATOM     25  S   UNL     1       7.642   5.517  19.464  0.00  0.00    +0.000 S 
ATOM     26  N   UNL     1       5.987   5.410  19.509  0.00  0.00    +0.000 NA
ATOM     27  C   UNL     1       5.590   4.936  18.315  0.00  0.00    +0.000 A 
ENDBRANCH  16  19
ENDBRANCH  15  16
ENDBRANCH   1  15
TORSDOF 7
ENDMDL
