MODEL 1
REMARK VINA RESULT:      -8.4      0.000      0.000
REMARK  Name = 
REMARK  7 active torsions:
REMARK  status: ('A' for Active; 'I' for Inactive)
REMARK    1  A    between atoms: C_1  and  C_2
REMARK    2  A    between atoms: C_4  and  C_5
REMARK    3  A    between atoms: N_8  and  C_9
REMARK    4  A    between atoms: C_14  and  C_15
REMARK    5  A    between atoms: N_19  and  C_20
REMARK    6  A    between atoms: C_20  and  C_21
REMARK    7  A    between atoms: C_20  and  C_22
REMARK                            x       y       z     vdW  Elec       q    Type
REMARK                         _______ _______ _______ _____ _____    ______ ____
ROOT
ATOM      1  C   UNL     1       5.589   4.689  16.663  0.00  0.00    +0.000 A 
ATOM      2  N   UNL     1       6.926   4.483  16.814  0.00  0.00    +0.000 NA
ATOM      3  C   UNL     1       7.501   4.874  17.965  0.00  0.00    +0.000 A 
ATOM      4  C   UNL     1       6.774   5.432  18.986  0.00  0.00    +0.000 A 
ATOM      5  N   UNL     1       5.443   5.611  18.895  0.00  0.00    +0.000 NA
ATOM      6  C   UNL     1       4.831   5.221  17.733  0.00  0.00    +0.000 A 
ENDROOT
BRANCH   1  14
ATOM      7  C   UNL     1       8.685   5.961  12.844  0.00  0.00    +0.000 C 
ATOM      8  C   UNL     1       7.517   5.032  12.940  0.00  0.00    +0.000 A 
ATOM      9  C   UNL     1       7.321   4.019  12.029  0.00  0.00    +0.000 A 
ATOM     10  C   UNL     1       6.253   3.178  12.271  0.00  0.00    +0.000 A 
ATOM     11  C   UNL     1       5.954   2.055  11.320  0.00  0.00    +0.000 C 
ATOM     12  N   UNL     1       5.475   3.285  13.375  0.00  0.00    +0.000 NA
ATOM     13  C   UNL     1       5.765   4.278  14.236  0.00  0.00    +0.000 A 
ATOM     14  N   UNL     1       5.018   4.339  15.423  0.00  0.00    +0.000 N 
ATOM     15  N   UNL     1       6.722   5.190  14.010  0.00  0.00    +0.000 NA
ATOM     16  H   UNL     1       4.540   3.450  15.486  0.00  0.00    +0.000 HD
ENDBRANCH   1  14
BRANCH   6  17
ATOM     17  C   UNL     1       3.332   5.519  17.648  0.00  0.00    +0.000 C 
ATOM     18  C   UNL     1       2.888   6.743  18.485  0.00  0.00    +0.000 C 
ATOM     19  C   UNL     1       2.826   6.432  19.982  0.00  0.00    +0.000 C 
ATOM     20  C   UNL     1       2.094   5.122  20.297  0.00  0.00    +0.000 C 
ATOM     21  N   UNL     1       2.572   3.987  19.477  0.00  0.00    +0.000 NA
ATOM     22  C   UNL     1       2.417   4.344  18.054  0.00  0.00    +0.000 C 
BRANCH  21  23
ATOM     23  C   UNL     1       1.905   2.710  19.837  0.00  0.00    +0.000 C 
ATOM     24  C   UNL     1       1.372   2.712  21.283  0.00  0.00    +0.000 C 
ATOM     25  C   UNL     1       0.696   2.426  18.927  0.00  0.00    +0.000 C 
ENDBRANCH  21  23
ENDBRANCH   6  17
TORSDOF 3
ENDMDL
MODEL 2
REMARK VINA RESULT:      -7.3      1.194      1.838
REMARK  Name = 
REMARK  7 active torsions:
REMARK  status: ('A' for Active; 'I' for Inactive)
REMARK    1  A    between atoms: C_1  and  C_2
REMARK    2  A    between atoms: C_4  and  C_5
REMARK    3  A    between atoms: N_8  and  C_9
REMARK    4  A    between atoms: C_14  and  C_15
REMARK    5  A    between atoms: N_19  and  C_20
REMARK    6  A    between atoms: C_20  and  C_21
REMARK    7  A    between atoms: C_20  and  C_22
REMARK                            x       y       z     vdW  Elec       q    Type
REMARK                         _______ _______ _______ _____ _____    ______ ____
ROOT
ATOM      1  C   UNL     1       5.944   5.172  16.852  0.00  0.00    +0.000 A 
ATOM      2  N   UNL     1       6.821   6.211  16.804  0.00  0.00    +0.000 NA
ATOM      3  C   UNL     1       7.455   6.559  17.938  0.00  0.00    +0.000 A 
ATOM      4  C   UNL     1       7.268   5.876  19.112  0.00  0.00    +0.000 A 
ATOM      5  N   UNL     1       6.444   4.813  19.192  0.00  0.00    +0.000 NA
ATOM      6  C   UNL     1       5.786   4.437  18.052  0.00  0.00    +0.000 A 
ENDROOT
BRANCH   1  14
ATOM      7  C   UNL     1       8.881   5.881  12.772  0.00  0.00    +0.000 C 
ATOM      8  C   UNL     1       7.607   5.129  12.989  0.00  0.00    +0.000 A 
ATOM      9  C   UNL     1       7.203   4.126  12.136  0.00  0.00    +0.000 A 
ATOM     10  C   UNL     1       6.051   3.452  12.489  0.00  0.00    +0.000 A 
ATOM     11  C   UNL     1       5.527   2.355  11.608  0.00  0.00    +0.000 C 
ATOM     12  N   UNL     1       5.383   3.700  13.641  0.00  0.00    +0.000 NA
ATOM     13  C   UNL     1       5.873   4.668  14.438  0.00  0.00    +0.000 A 
ATOM     14  N   UNL     1       5.236   4.869  15.672  0.00  0.00    +0.000 N 
ATOM     15  N   UNL     1       6.926   5.429  14.107  0.00  0.00    +0.000 NA
ATOM     16  H   UNL     1       4.646   4.059  15.806  0.00  0.00    +0.000 HD
ENDBRANCH   1  14
BRANCH   6  17
ATOM     17  C   UNL     1       4.802   3.275  18.214  0.00  0.00    +0.000 C 
ATOM     18  C   UNL     1       3.779   3.154  17.059  0.00  0.00    +0.000 C 
ATOM     19  C   UNL     1       2.675   4.210  17.147  0.00  0.00    +0.000 C 
ATOM     20  C   UNL     1       2.069   4.335  18.550  0.00  0.00    +0.000 C 
ATOM     21  N   UNL     1       3.094   4.463  19.609  0.00  0.00    +0.000 NA
ATOM     22  C   UNL     1       3.993   3.295  19.528  0.00  0.00    +0.000 C 
BRANCH  21  23
ATOM     23  C   UNL     1       2.497   4.650  20.955  0.00  0.00    +0.000 C 
ATOM     24  C   UNL     1       1.481   5.809  20.991  0.00  0.00    +0.000 C 
ATOM     25  C   UNL     1       1.740   3.393  21.420  0.00  0.00    +0.000 C 
ENDBRANCH  21  23
ENDBRANCH   6  17
TORSDOF 3
ENDMDL
MODEL 3
REMARK VINA RESULT:      -7.3      2.280      7.431
REMARK  Name = 
REMARK  7 active torsions:
REMARK  status: ('A' for Active; 'I' for Inactive)
REMARK    1  A    between atoms: C_1  and  C_2
REMARK    2  A    between atoms: C_4  and  C_5
REMARK    3  A    between atoms: N_8  and  C_9
REMARK    4  A    between atoms: C_14  and  C_15
REMARK    5  A    between atoms: N_19  and  C_20
REMARK    6  A    between atoms: C_20  and  C_21
REMARK    7  A    between atoms: C_20  and  C_22
REMARK                            x       y       z     vdW  Elec       q    Type
REMARK                         _______ _______ _______ _____ _____    ______ ____
ROOT
ATOM      1  C   UNL     1       2.610   4.767  19.409  0.00  0.00    +0.000 A 
ATOM      2  N   UNL     1       1.427   4.094  19.396  0.00  0.00    +0.000 NA
ATOM      3  C   UNL     1       1.217   3.200  18.413  0.00  0.00    +0.000 A 
ATOM      4  C   UNL     1       2.168   2.930  17.463  0.00  0.00    +0.000 A 
ATOM      5  N   UNL     1       3.368   3.539  17.467  0.00  0.00    +0.000 NA
ATOM      6  C   UNL     1       3.610   4.454  18.458  0.00  0.00    +0.000 A 
ENDROOT
BRANCH   1  14
ATOM      7  C   UNL     1       1.208   9.328  17.674  0.00  0.00    +0.000 C 
ATOM      8  C   UNL     1       1.425   8.787  19.051  0.00  0.00    +0.000 A 
ATOM      9  C   UNL     1       0.872   9.386  20.161  0.00  0.00    +0.000 A 
ATOM     10  C   UNL     1       1.077   8.746  21.366  0.00  0.00    +0.000 A 
ATOM     11  C   UNL     1       0.524   9.337  22.631  0.00  0.00    +0.000 C 
ATOM     12  N   UNL     1       1.721   7.557  21.462  0.00  0.00    +0.000 NA
ATOM     13  C   UNL     1       2.192   7.021  20.321  0.00  0.00    +0.000 A 
ATOM     14  N   UNL     1       2.783   5.750  20.403  0.00  0.00    +0.000 N 
ATOM     15  N   UNL     1       2.117   7.639  19.133  0.00  0.00    +0.000 NA
ATOM     16  H   UNL     1       2.524   5.392  21.312  0.00  0.00    +0.000 HD
ENDBRANCH   1  14
BRANCH   6  17
ATOM     17  C   UNL     1       4.957   5.176  18.371  0.00  0.00    +0.000 C 
ATOM     18  C   UNL     1       4.838   6.696  18.105  0.00  0.00    +0.000 C 
ATOM     19  C   UNL     1       4.484   7.006  16.649  0.00  0.00    +0.000 C 
ATOM     20  C   UNL     1       5.339   6.230  15.642  0.00  0.00    +0.000 C 
ATOM     21  N   UNL     1       5.403   4.782  15.938  0.00  0.00    +0.000 NA
ATOM     22  C   UNL     1       5.924   4.611  17.308  0.00  0.00    +0.000 C 
BRANCH  21  23
ATOM     23  C   UNL     1       6.177   4.030  14.919  0.00  0.00    +0.000 C 
ATOM     24  C   UNL     1       5.364   3.770  13.636  0.00  0.00    +0.000 C 
ATOM     25  C   UNL     1       7.440   4.796  14.487  0.00  0.00    +0.000 C 
ENDBRANCH  21  23
ENDBRANCH   6  17
TORSDOF 3
ENDMDL
MODEL 4
REMARK VINA RESULT:      -7.2      1.262      1.699
REMARK  Name = 
REMARK  7 active torsions:
REMARK  status: ('A' for Active; 'I' for Inactive)
REMARK    1  A    between atoms: C_1  and  C_2
REMARK    2  A    between atoms: C_4  and  C_5
REMARK    3  A    between atoms: N_8  and  C_9
REMARK    4  A    between atoms: C_14  and  C_15
REMARK    5  A    between atoms: N_19  and  C_20
REMARK    6  A    between atoms: C_20  and  C_21
REMARK    7  A    between atoms: C_20  and  C_22
REMARK                            x       y       z     vdW  Elec       q    Type
REMARK                         _______ _______ _______ _____ _____    ______ ____
ROOT
ATOM      1  C   UNL     1       5.435   4.920  16.713  0.00  0.00    +0.000 A 
ATOM      2  N   UNL     1       6.338   5.929  16.850  0.00  0.00    +0.000 NA
ATOM      3  C   UNL     1       6.833   6.173  18.077  0.00  0.00    +0.000 A 
ATOM      4  C   UNL     1       6.482   5.415  19.165  0.00  0.00    +0.000 A 
ATOM      5  N   UNL     1       5.628   4.380  19.063  0.00  0.00    +0.000 NA
ATOM      6  C   UNL     1       5.109   4.108  17.825  0.00  0.00    +0.000 A 
ENDROOT
BRANCH   1  14
ATOM      7  C   UNL     1       8.915   5.680  13.094  0.00  0.00    +0.000 C 
ATOM      8  C   UNL     1       7.587   4.994  13.099  0.00  0.00    +0.000 A 
ATOM      9  C   UNL     1       7.247   4.067  12.140  0.00  0.00    +0.000 A 
ATOM     10  C   UNL     1       6.025   3.444  12.298  0.00  0.00    +0.000 A 
ATOM     11  C   UNL     1       5.565   2.431  11.290  0.00  0.00    +0.000 C 
ATOM     12  N   UNL     1       5.225   3.666  13.370  0.00  0.00    +0.000 NA
ATOM     13  C   UNL     1       5.656   4.557  14.282  0.00  0.00    +0.000 A 
ATOM     14  N   UNL     1       4.873   4.726  15.435  0.00  0.00    +0.000 N 
ATOM     15  N   UNL     1       6.782   5.272  14.137  0.00  0.00    +0.000 NA
ATOM     16  H   UNL     1       4.230   3.947  15.440  0.00  0.00    +0.000 HD
ENDBRANCH   1  14
BRANCH   6  17
ATOM     17  C   UNL     1       4.082   2.973  17.777  0.00  0.00    +0.000 C 
ATOM     18  C   UNL     1       2.802   3.318  16.979  0.00  0.00    +0.000 C 
ATOM     19  C   UNL     1       1.865   4.245  17.756  0.00  0.00    +0.000 C 
ATOM     20  C   UNL     1       1.634   3.795  19.204  0.00  0.00    +0.000 C 
ATOM     21  N   UNL     1       2.893   3.494  19.919  0.00  0.00    +0.000 NA
ATOM     22  C   UNL     1       3.623   2.461  19.159  0.00  0.00    +0.000 C 
BRANCH  21  23
ATOM     23  C   UNL     1       2.663   3.124  21.338  0.00  0.00    +0.000 C 
ATOM     24  C   UNL     1       1.175   2.859  21.642  0.00  0.00    +0.000 C 
ATOM     25  C   UNL     1       3.421   1.841  21.720  0.00  0.00    +0.000 C 
ENDBRANCH  21  23
ENDBRANCH   6  17
TORSDOF 3
ENDMDL
MODEL 5
REMARK VINA RESULT:      -7.0      8.937     12.749
REMARK  Name = 
REMARK  7 active torsions:
REMARK  status: ('A' for Active; 'I' for Inactive)
REMARK    1  A    between atoms: C_1  and  C_2
REMARK    2  A    between atoms: C_4  and  C_5
REMARK    3  A    between atoms: N_8  and  C_9
REMARK    4  A    between atoms: C_14  and  C_15
REMARK    5  A    between atoms: N_19  and  C_20
REMARK    6  A    between atoms: C_20  and  C_21
REMARK    7  A    between atoms: C_20  and  C_22
REMARK                            x       y       z     vdW  Elec       q    Type
REMARK                         _______ _______ _______ _____ _____    ______ ____
ROOT
ATOM      1  C   UNL     1      -3.751  11.532  17.959  0.00  0.00    +0.000 A 
ATOM      2  N   UNL     1      -4.017  10.659  16.949  0.00  0.00    +0.000 NA
ATOM      3  C   UNL     1      -3.019   9.868  16.516  0.00  0.00    +0.000 A 
ATOM      4  C   UNL     1      -1.772   9.897  17.085  0.00  0.00    +0.000 A 
ATOM      5  N   UNL     1      -1.480  10.712  18.116  0.00  0.00    +0.000 NA
ATOM      6  C   UNL     1      -2.479  11.528  18.578  0.00  0.00    +0.000 A 
ENDROOT
BRANCH   1  14
ATOM      7  C   UNL     1      -7.517   8.942  20.171  0.00  0.00    +0.000 C 
ATOM      8  C   UNL     1      -7.148  10.391  20.163  0.00  0.00    +0.000 A 
ATOM      9  C   UNL     1      -7.593  11.258  21.136  0.00  0.00    +0.000 A 
ATOM     10  C   UNL     1      -7.117  12.552  21.065  0.00  0.00    +0.000 A 
ATOM     11  C   UNL     1      -7.563  13.570  22.075  0.00  0.00    +0.000 C 
ATOM     12  N   UNL     1      -6.208  12.946  20.140  0.00  0.00    +0.000 NA
ATOM     13  C   UNL     1      -5.794  12.022  19.254  0.00  0.00    +0.000 A 
ATOM     14  N   UNL     1      -4.789  12.402  18.351  0.00  0.00    +0.000 N 
ATOM     15  N   UNL     1      -6.291  10.778  19.204  0.00  0.00    +0.000 NA
ATOM     16  H   UNL     1      -4.413  13.267  18.714  0.00  0.00    +0.000 HD
ENDBRANCH   1  14
BRANCH   6  17
ATOM     17  C   UNL     1      -2.074  12.492  19.697  0.00  0.00    +0.000 C 
ATOM     18  C   UNL     1      -0.964  13.492  19.292  0.00  0.00    +0.000 C 
ATOM     19  C   UNL     1       0.418  12.836  19.243  0.00  0.00    +0.000 C 
ATOM     20  C   UNL     1       0.724  11.980  20.477  0.00  0.00    +0.000 C 
ATOM     21  N   UNL     1      -0.365  11.036  20.806  0.00  0.00    +0.000 NA
ATOM     22  C   UNL     1      -1.607  11.809  20.999  0.00  0.00    +0.000 C 
BRANCH  21  23
ATOM     23  C   UNL     1      -0.031  10.166  21.961  0.00  0.00    +0.000 C 
ATOM     24  C   UNL     1      -0.953  10.414  23.170  0.00  0.00    +0.000 C 
ATOM     25  C   UNL     1      -0.168   8.674  21.607  0.00  0.00    +0.000 C 
ENDBRANCH  21  23
ENDBRANCH   6  17
TORSDOF 3
ENDMDL
MODEL 6
REMARK VINA RESULT:      -7.0     11.020     15.141
REMARK  Name = 
REMARK  7 active torsions:
REMARK  status: ('A' for Active; 'I' for Inactive)
REMARK    1  A    between atoms: C_1  and  C_2
REMARK    2  A    between atoms: C_4  and  C_5
REMARK    3  A    between atoms: N_8  and  C_9
REMARK    4  A    between atoms: C_14  and  C_15
REMARK    5  A    between atoms: N_19  and  C_20
REMARK    6  A    between atoms: C_20  and  C_21
REMARK    7  A    between atoms: C_20  and  C_22
REMARK                            x       y       z     vdW  Elec       q    Type
REMARK                         _______ _______ _______ _____ _____    ______ ____
ROOT
ATOM      1  C   UNL     1      -7.515  11.147  20.859  0.00  0.00    +0.000 A 
ATOM      2  N   UNL     1      -7.916  10.006  21.482  0.00  0.00    +0.000 NA
ATOM      3  C   UNL     1      -7.636   8.830  20.893  0.00  0.00    +0.000 A 
ATOM      4  C   UNL     1      -6.933   8.757  19.718  0.00  0.00    +0.000 A 
ATOM      5  N   UNL     1      -6.478   9.859  19.093  0.00  0.00    +0.000 NA
ATOM      6  C   UNL     1      -6.749  11.071  19.671  0.00  0.00    +0.000 A 
ENDROOT
BRANCH   1  14
ATOM      7  C   UNL     1      -4.366  12.292  24.674  0.00  0.00    +0.000 C 
ATOM      8  C   UNL     1      -5.333  13.107  23.875  0.00  0.00    +0.000 A 
ATOM      9  C   UNL     1      -5.235  14.478  23.797  0.00  0.00    +0.000 A 
ATOM     10  C   UNL     1      -6.136  15.108  22.962  0.00  0.00    +0.000 A 
ATOM     11  C   UNL     1      -6.113  16.604  22.829  0.00  0.00    +0.000 C 
ATOM     12  N   UNL     1      -7.025  14.427  22.199  0.00  0.00    +0.000 NA
ATOM     13  C   UNL     1      -7.023  13.085  22.305  0.00  0.00    +0.000 A 
ATOM     14  N   UNL     1      -7.881  12.371  21.454  0.00  0.00    +0.000 N 
ATOM     15  N   UNL     1      -6.246  12.418  23.171  0.00  0.00    +0.000 NA
ATOM     16  H   UNL     1      -8.179  13.036  20.753  0.00  0.00    +0.000 HD
ENDBRANCH   1  14
BRANCH   6  17
ATOM     17  C   UNL     1      -6.280  12.296  18.881  0.00  0.00    +0.000 C 
ATOM     18  C   UNL     1      -6.154  12.048  17.358  0.00  0.00    +0.000 C 
ATOM     19  C   UNL     1      -4.906  11.237  17.002  0.00  0.00    +0.000 C 
ATOM     20  C   UNL     1      -3.636  11.750  17.691  0.00  0.00    +0.000 C 
ATOM     21  N   UNL     1      -3.814  11.952  19.145  0.00  0.00    +0.000 NA
ATOM     22  C   UNL     1      -4.935  12.889  19.350  0.00  0.00    +0.000 C 
BRANCH  21  23
ATOM     23  C   UNL     1      -2.560  12.384  19.813  0.00  0.00    +0.000 C 
ATOM     24  C   UNL     1      -2.739  12.575  21.332  0.00  0.00    +0.000 C 
ATOM     25  C   UNL     1      -1.436  11.349  19.633  0.00  0.00    +0.000 C 
ENDBRANCH  21  23
ENDBRANCH   6  17
TORSDOF 3
ENDMDL
MODEL 7
REMARK VINA RESULT:      -6.9      1.844      3.856
REMARK  Name = 
REMARK  7 active torsions:
REMARK  status: ('A' for Active; 'I' for Inactive)
REMARK    1  A    between atoms: C_1  and  C_2
REMARK    2  A    between atoms: C_4  and  C_5
REMARK    3  A    between atoms: N_8  and  C_9
REMARK    4  A    between atoms: C_14  and  C_15
REMARK    5  A    between atoms: N_19  and  C_20
REMARK    6  A    between atoms: C_20  and  C_21
REMARK    7  A    between atoms: C_20  and  C_22
REMARK                            x       y       z     vdW  Elec       q    Type
REMARK                         _______ _______ _______ _____ _____    ______ ____
ROOT
ATOM      1  C   UNL     1       3.162   7.475  17.778  0.00  0.00    +0.000 A 
ATOM      2  N   UNL     1       2.664   8.695  18.115  0.00  0.00    +0.000 NA
ATOM      3  C   UNL     1       1.902   8.786  19.219  0.00  0.00    +0.000 A 
ATOM      4  C   UNL     1       1.652   7.700  20.019  0.00  0.00    +0.000 A 
ATOM      5  N   UNL     1       2.163   6.485  19.746  0.00  0.00    +0.000 NA
ATOM      6  C   UNL     1       2.944   6.364  18.627  0.00  0.00    +0.000 A 
ENDROOT
BRANCH   1  14
ATOM      7  C   UNL     1       7.901   5.902  18.702  0.00  0.00    +0.000 C 
ATOM      8  C   UNL     1       7.071   5.953  17.459  0.00  0.00    +0.000 A 
ATOM      9  C   UNL     1       7.360   5.173  16.362  0.00  0.00    +0.000 A 
ATOM     10  C   UNL     1       6.473   5.249  15.307  0.00  0.00    +0.000 A 
ATOM     11  C   UNL     1       6.718   4.446  14.062  0.00  0.00    +0.000 C 
ATOM     12  N   UNL     1       5.339   5.990  15.359  0.00  0.00    +0.000 NA
ATOM     13  C   UNL     1       5.113   6.688  16.487  0.00  0.00    +0.000 A 
ATOM     14  N   UNL     1       3.899   7.386  16.579  0.00  0.00    +0.000 N 
ATOM     15  N   UNL     1       5.983   6.738  17.507  0.00  0.00    +0.000 NA
ATOM     16  H   UNL     1       3.323   7.025  15.830  0.00  0.00    +0.000 HD
ENDBRANCH   1  14
BRANCH   6  17
ATOM     17  C   UNL     1       3.435   4.947  18.318  0.00  0.00    +0.000 C 
ATOM     18  C   UNL     1       2.543   4.180  17.312  0.00  0.00    +0.000 C 
ATOM     19  C   UNL     1       1.245   3.681  17.949  0.00  0.00    +0.000 C 
ATOM     20  C   UNL     1       1.462   2.984  19.297  0.00  0.00    +0.000 C 
ATOM     21  N   UNL     1       2.308   3.770  20.220  0.00  0.00    +0.000 NA
ATOM     22  C   UNL     1       3.598   4.038  19.555  0.00  0.00    +0.000 C 
BRANCH  21  23
ATOM     23  C   UNL     1       2.458   3.118  21.545  0.00  0.00    +0.000 C 
ATOM     24  C   UNL     1       1.142   2.487  22.041  0.00  0.00    +0.000 C 
ATOM     25  C   UNL     1       3.497   1.983  21.505  0.00  0.00    +0.000 C 
ENDBRANCH  21  23
ENDBRANCH   6  17
TORSDOF 3
ENDMDL
MODEL 8
REMARK VINA RESULT:      -6.8      5.729      8.567
REMARK  Name = 
REMARK  7 active torsions:
REMARK  status: ('A' for Active; 'I' for Inactive)
REMARK    1  A    between atoms: C_1  and  C_2
REMARK    2  A    between atoms: C_4  and  C_5
REMARK    3  A    between atoms: N_8  and  C_9
REMARK    4  A    between atoms: C_14  and  C_15
REMARK    5  A    between atoms: N_19  and  C_20
REMARK    6  A    between atoms: C_20  and  C_21
REMARK    7  A    between atoms: C_20  and  C_22
REMARK                            x       y       z     vdW  Elec       q    Type
REMARK                         _______ _______ _______ _____ _____    ______ ____
ROOT
ATOM      1  C   UNL     1       0.288  10.069  18.226  0.00  0.00    +0.000 A 
ATOM      2  N   UNL     1      -0.522   9.668  17.209  0.00  0.00    +0.000 NA
ATOM      3  C   UNL     1      -1.851   9.810  17.364  0.00  0.00    +0.000 A 
ATOM      4  C   UNL     1      -2.393  10.375  18.490  0.00  0.00    +0.000 A 
ATOM      5  N   UNL     1      -1.625  10.827  19.499  0.00  0.00    +0.000 NA
ATOM      6  C   UNL     1      -0.267  10.696  19.367  0.00  0.00    +0.000 A 
ENDROOT
BRANCH   1  14
ATOM      7  C   UNL     1       1.667   5.759  20.527  0.00  0.00    +0.000 C 
ATOM      8  C   UNL     1       2.323   6.611  19.489  0.00  0.00    +0.000 A 
ATOM      9  C   UNL     1       3.308   6.118  18.663  0.00  0.00    +0.000 A 
ATOM     10  C   UNL     1       3.777   6.978  17.690  0.00  0.00    +0.000 A 
ATOM     11  C   UNL     1       4.864   6.530  16.756  0.00  0.00    +0.000 C 
ATOM     12  N   UNL     1       3.260   8.216  17.499  0.00  0.00    +0.000 NA
ATOM     13  C   UNL     1       2.269   8.601  18.325  0.00  0.00    +0.000 A 
ATOM     14  N   UNL     1       1.672   9.847  18.075  0.00  0.00    +0.000 N 
ATOM     15  N   UNL     1       1.837   7.855  19.352  0.00  0.00    +0.000 NA
ATOM     16  H   UNL     1       1.979  10.112  17.150  0.00  0.00    +0.000 HD
ENDBRANCH   1  14
BRANCH   6  17
ATOM     17  C   UNL     1       0.557  11.151  20.574  0.00  0.00    +0.000 C 
ATOM     18  C   UNL     1       0.924  10.008  21.550  0.00  0.00    +0.000 C 
ATOM     19  C   UNL     1      -0.262   9.580  22.417  0.00  0.00    +0.000 C 
ATOM     20  C   UNL     1      -1.010  10.762  23.043  0.00  0.00    +0.000 C 
ATOM     21  N   UNL     1      -1.346  11.815  22.061  0.00  0.00    +0.000 NA
ATOM     22  C   UNL     1      -0.097  12.266  21.417  0.00  0.00    +0.000 C 
BRANCH  21  23
ATOM     23  C   UNL     1      -2.128  12.923  22.664  0.00  0.00    +0.000 C 
ATOM     24  C   UNL     1      -3.234  12.415  23.610  0.00  0.00    +0.000 C 
ATOM     25  C   UNL     1      -1.235  13.858  23.500  0.00  0.00    +0.000 C 
ENDBRANCH  21  23
ENDBRANCH   6  17
TORSDOF 3
ENDMDL
MODEL 9
REMARK VINA RESULT:      -6.8      8.152     12.228
REMARK  Name = 
REMARK  7 active torsions:
REMARK  status: ('A' for Active; 'I' for Inactive)
REMARK    1  A    between atoms: C_1  and  C_2
REMARK    2  A    between atoms: C_4  and  C_5
REMARK    3  A    between atoms: N_8  and  C_9
REMARK    4  A    between atoms: C_14  and  C_15
REMARK    5  A    between atoms: N_19  and  C_20
REMARK    6  A    between atoms: C_20  and  C_21
REMARK    7  A    between atoms: C_20  and  C_22
REMARK                            x       y       z     vdW  Elec       q    Type
REMARK                         _______ _______ _______ _____ _____    ______ ____
ROOT
ATOM      1  C   UNL     1      -2.403  11.879  18.490  0.00  0.00    +0.000 A 
ATOM      2  N   UNL     1      -3.495  11.550  17.748  0.00  0.00    +0.000 NA
ATOM      3  C   UNL     1      -3.380  10.545  16.862  0.00  0.00    +0.000 A 
ATOM      4  C   UNL     1      -2.217   9.833  16.720  0.00  0.00    +0.000 A 
ATOM      5  N   UNL     1      -1.128  10.096  17.466  0.00  0.00    +0.000 NA
ATOM      6  C   UNL     1      -1.217  11.115  18.378  0.00  0.00    +0.000 A 
ENDROOT
BRANCH   1  14
ATOM      7  C   UNL     1      -6.864  11.771  20.913  0.00  0.00    +0.000 C 
ATOM      8  C   UNL     1      -5.583  12.496  21.175  0.00  0.00    +0.000 A 
ATOM      9  C   UNL     1      -5.273  12.994  22.420  0.00  0.00    +0.000 A 
ATOM     10  C   UNL     1      -4.026  13.570  22.555  0.00  0.00    +0.000 A 
ATOM     11  C   UNL     1      -3.610  14.155  23.874  0.00  0.00    +0.000 C 
ATOM     12  N   UNL     1      -3.117  13.589  21.549  0.00  0.00    +0.000 NA
ATOM     13  C   UNL     1      -3.488  13.041  20.377  0.00  0.00    +0.000 A 
ATOM     14  N   UNL     1      -2.522  12.981  19.361  0.00  0.00    +0.000 N 
ATOM     15  N   UNL     1      -4.718  12.557  20.149  0.00  0.00    +0.000 NA
ATOM     16  H   UNL     1      -1.640  13.175  19.816  0.00  0.00    +0.000 HD
ENDBRANCH   1  14
BRANCH   6  17
ATOM     17  C   UNL     1       0.071  11.426  19.144  0.00  0.00    +0.000 C 
ATOM     18  C   UNL     1       1.295  10.603  18.673  0.00  0.00    +0.000 C 
ATOM     19  C   UNL     1       1.249   9.157  19.171  0.00  0.00    +0.000 C 
ATOM     20  C   UNL     1       0.916   9.042  20.663  0.00  0.00    +0.000 C 
ATOM     21  N   UNL     1      -0.269   9.836  21.050  0.00  0.00    +0.000 NA
ATOM     22  C   UNL     1      -0.029  11.243  20.674  0.00  0.00    +0.000 C 
BRANCH  21  23
ATOM     23  C   UNL     1      -0.622   9.665  22.481  0.00  0.00    +0.000 C 
ATOM     24  C   UNL     1       0.599   9.301  23.348  0.00  0.00    +0.000 C 
ATOM     25  C   UNL     1      -1.211  10.956  23.079  0.00  0.00    +0.000 C 
ENDBRANCH  21  23
ENDBRANCH   6  17
TORSDOF 3
ENDMDL
