MODEL 1
REMARK VINA RESULT:      -5.2      0.000      0.000
REMARK  Name = 
REMARK  3 active torsions:
REMARK  status: ('A' for Active; 'I' for Inactive)
REMARK    1  A    between atoms: C_1  and  S_2
REMARK    2  A    between atoms: S_2  and  N_5
REMARK    3  A    between atoms: C_8  and  N_9
REMARK                            x       y       z     vdW  Elec       q    Type
REMARK                         _______ _______ _______ _____ _____    ______ ____
ROOT
ATOM      1  N   UNL     1       7.317   5.777  16.881  0.00  0.00    +0.000 NA
ATOM      2  C   UNL     1       7.469   7.186  17.263  0.00  0.00    +0.000 C 
ATOM      3  C   UNL     1       8.092   7.094  18.647  0.00  0.00    +0.000 C 
ATOM      4  C   UNL     1       7.414   5.875  19.274  0.00  0.00    +0.000 C 
ATOM      5  C   UNL     1       7.040   4.969  18.079  0.00  0.00    +0.000 C 
ENDROOT
BRANCH   1   7
ATOM      6  C   UNL     1       6.046   3.704  15.688  0.00  0.00    +0.000 C 
ATOM      7  S   UNL     1       6.638   5.361  15.411  0.00  0.00    +0.000 S 
ATOM      8  O   UNL     1       7.708   5.293  14.440  0.00  0.00    +0.000 OA
ATOM      9  O   UNL     1       5.482   6.206  15.205  0.00  0.00    +0.000 OA
ENDBRANCH   1   7
BRANCH   4  10
ATOM     10  N   UNL     1       8.282   5.252  20.272  0.00  0.00    +0.000 NA
ATOM     11  H   UNL     1       9.248   5.268  19.936  0.00  0.00    +0.000 HD
ATOM     12  H   UNL     1       8.049   4.264  20.372  0.00  0.00    +0.000 HD
ENDBRANCH   4  10
TORSDOF 2
ENDMDL
MODEL 2
REMARK VINA RESULT:      -4.8      3.256      4.396
REMARK  Name = 
REMARK  3 active torsions:
REMARK  status: ('A' for Active; 'I' for Inactive)
REMARK    1  A    between atoms: C_1  and  S_2
REMARK    2  A    between atoms: S_2  and  N_5
REMARK    3  A    between atoms: C_8  and  N_9
REMARK                            x       y       z     vdW  Elec       q    Type
REMARK                         _______ _______ _______ _____ _____    ______ ____
ROOT
ATOM      1  N   UNL     1       5.918   4.484  17.475  0.00  0.00    +0.000 NA
ATOM      2  C   UNL     1       4.980   3.882  16.519  0.00  0.00    +0.000 C 
ATOM      3  C   UNL     1       5.718   4.013  15.196  0.00  0.00    +0.000 C 
ATOM      4  C   UNL     1       6.428   5.363  15.304  0.00  0.00    +0.000 C 
ATOM      5  C   UNL     1       6.661   5.570  16.818  0.00  0.00    +0.000 C 
ENDROOT
BRANCH   1   7
ATOM      6  C   UNL     1       4.090   5.643  19.102  0.00  0.00    +0.000 C 
ATOM      7  S   UNL     1       5.528   4.592  19.096  0.00  0.00    +0.000 S 
ATOM      8  O   UNL     1       6.600   5.306  19.755  0.00  0.00    +0.000 OA
ATOM      9  O   UNL     1       5.109   3.280  19.538  0.00  0.00    +0.000 OA
ENDBRANCH   1   7
BRANCH   4  10
ATOM     10  N   UNL     1       7.639   5.382  14.485  0.00  0.00    +0.000 NA
ATOM     11  H   UNL     1       7.709   4.504  13.966  0.00  0.00    +0.000 HD
ATOM     12  H   UNL     1       8.466   5.407  15.082  0.00  0.00    +0.000 HD
ENDBRANCH   4  10
TORSDOF 2
ENDMDL
MODEL 3
REMARK VINA RESULT:      -4.8      2.993      3.411
REMARK  Name = 
REMARK  3 active torsions:
REMARK  status: ('A' for Active; 'I' for Inactive)
REMARK    1  A    between atoms: C_1  and  S_2
REMARK    2  A    between atoms: S_2  and  N_5
REMARK    3  A    between atoms: C_8  and  N_9
REMARK                            x       y       z     vdW  Elec       q    Type
REMARK                         _______ _______ _______ _____ _____    ______ ____
ROOT
ATOM      1  N   UNL     1       5.543   5.301  17.650  0.00  0.00    +0.000 NA
ATOM      2  C   UNL     1       4.412   4.649  16.979  0.00  0.00    +0.000 C 
ATOM      3  C   UNL     1       3.240   4.991  17.885  0.00  0.00    +0.000 C 
ATOM      4  C   UNL     1       3.836   4.934  19.292  0.00  0.00    +0.000 C 
ATOM      5  C   UNL     1       5.331   5.278  19.106  0.00  0.00    +0.000 C 
ENDROOT
BRANCH   1   7
ATOM      6  C   UNL     1       6.854   4.244  15.529  0.00  0.00    +0.000 C 
ATOM      7  S   UNL     1       7.088   5.184  17.024  0.00  0.00    +0.000 S 
ATOM      8  O   UNL     1       7.868   4.377  17.936  0.00  0.00    +0.000 OA
ATOM      9  O   UNL     1       7.510   6.513  16.640  0.00  0.00    +0.000 OA
ENDBRANCH   1   7
BRANCH   4  10
ATOM     10  N   UNL     1       3.108   5.817  20.202  0.00  0.00    +0.000 NA
ATOM     11  H   UNL     1       3.458   6.772  20.096  0.00  0.00    +0.000 HD
ATOM     12  H   UNL     1       3.306   5.564  21.171  0.00  0.00    +0.000 HD
ENDBRANCH   4  10
TORSDOF 2
ENDMDL
MODEL 4
REMARK VINA RESULT:      -4.7      2.791      3.895
REMARK  Name = 
REMARK  3 active torsions:
REMARK  status: ('A' for Active; 'I' for Inactive)
REMARK    1  A    between atoms: C_1  and  S_2
REMARK    2  A    between atoms: S_2  and  N_5
REMARK    3  A    between atoms: C_8  and  N_9
REMARK                            x       y       z     vdW  Elec       q    Type
REMARK                         _______ _______ _______ _____ _____    ______ ____
ROOT
ATOM      1  N   UNL     1       5.768   4.841  17.594  0.00  0.00    +0.000 NA
ATOM      2  C   UNL     1       5.142   4.010  16.558  0.00  0.00    +0.000 C 
ATOM      3  C   UNL     1       3.738   3.794  17.103  0.00  0.00    +0.000 C 
ATOM      4  C   UNL     1       3.948   3.659  18.612  0.00  0.00    +0.000 C 
ATOM      5  C   UNL     1       5.224   4.478  18.912  0.00  0.00    +0.000 C 
ENDROOT
BRANCH   1   7
ATOM      6  C   UNL     1       7.747   5.954  19.069  0.00  0.00    +0.000 C 
ATOM      7  S   UNL     1       7.360   5.329  17.447  0.00  0.00    +0.000 S 
ATOM      8  O   UNL     1       7.390   6.443  16.524  0.00  0.00    +0.000 OA
ATOM      9  O   UNL     1       8.165   4.147  17.233  0.00  0.00    +0.000 OA
ENDBRANCH   1   7
BRANCH   4  10
ATOM     10  N   UNL     1       2.756   4.084  19.344  0.00  0.00    +0.000 NA
ATOM     11  H   UNL     1       2.052   3.344  19.300  0.00  0.00    +0.000 HD
ATOM     12  H   UNL     1       2.329   4.888  18.882  0.00  0.00    +0.000 HD
ENDBRANCH   4  10
TORSDOF 2
ENDMDL
MODEL 5
REMARK VINA RESULT:      -4.7      5.251      5.749
REMARK  Name = 
REMARK  3 active torsions:
REMARK  status: ('A' for Active; 'I' for Inactive)
REMARK    1  A    between atoms: C_1  and  S_2
REMARK    2  A    between atoms: S_2  and  N_5
REMARK    3  A    between atoms: C_8  and  N_9
REMARK                            x       y       z     vdW  Elec       q    Type
REMARK                         _______ _______ _______ _____ _____    ______ ____
ROOT
ATOM      1  N   UNL     1       3.196   3.942  19.386  0.00  0.00    +0.000 NA
ATOM      2  C   UNL     1       1.823   4.215  18.945  0.00  0.00    +0.000 C 
ATOM      3  C   UNL     1       0.997   3.846  20.168  0.00  0.00    +0.000 C 
ATOM      4  C   UNL     1       1.721   2.630  20.746  0.00  0.00    +0.000 C 
ATOM      5  C   UNL     1       3.196   2.805  20.320  0.00  0.00    +0.000 C 
ENDROOT
BRANCH   1   7
ATOM      6  C   UNL     1       4.364   5.908  17.936  0.00  0.00    +0.000 C 
ATOM      7  S   UNL     1       4.486   4.181  18.351  0.00  0.00    +0.000 S 
ATOM      8  O   UNL     1       4.228   3.417  17.150  0.00  0.00    +0.000 OA
ATOM      9  O   UNL     1       5.702   4.002  19.114  0.00  0.00    +0.000 OA
ENDBRANCH   1   7
BRANCH   4  10
ATOM     10  N   UNL     1       1.503   2.532  22.189  0.00  0.00    +0.000 NA
ATOM     11  H   UNL     1       0.560   2.860  22.410  0.00  0.00    +0.000 HD
ATOM     12  H   UNL     1       2.131   3.166  22.683  0.00  0.00    +0.000 HD
ENDBRANCH   4  10
TORSDOF 2
ENDMDL
MODEL 6
REMARK VINA RESULT:      -4.7      2.815      3.363
REMARK  Name = 
REMARK  3 active torsions:
REMARK  status: ('A' for Active; 'I' for Inactive)
REMARK    1  A    between atoms: C_1  and  S_2
REMARK    2  A    between atoms: S_2  and  N_5
REMARK    3  A    between atoms: C_8  and  N_9
REMARK                            x       y       z     vdW  Elec       q    Type
REMARK                         _______ _______ _______ _____ _____    ______ ____
ROOT
ATOM      1  N   UNL     1       5.793   4.981  17.558  0.00  0.00    +0.000 NA
ATOM      2  C   UNL     1       5.817   5.360  18.976  0.00  0.00    +0.000 C 
ATOM      3  C   UNL     1       4.367   5.179  19.397  0.00  0.00    +0.000 C 
ATOM      4  C   UNL     1       3.571   5.635  18.174  0.00  0.00    +0.000 C 
ATOM      5  C   UNL     1       4.498   5.360  16.969  0.00  0.00    +0.000 C 
ENDROOT
BRANCH   1   7
ATOM      6  C   UNL     1       6.685   4.315  15.090  0.00  0.00    +0.000 C 
ATOM      7  S   UNL     1       7.186   5.043  16.636  0.00  0.00    +0.000 S 
ATOM      8  O   UNL     1       8.153   4.159  17.249  0.00  0.00    +0.000 OA
ATOM      9  O   UNL     1       7.486   6.435  16.384  0.00  0.00    +0.000 OA
ENDBRANCH   1   7
BRANCH   4  10
ATOM     10  N   UNL     1       2.272   4.964  18.119  0.00  0.00    +0.000 NA
ATOM     11  H   UNL     1       1.619   5.441  18.745  0.00  0.00    +0.000 HD
ATOM     12  H   UNL     1       2.351   4.015  18.485  0.00  0.00    +0.000 HD
ENDBRANCH   4  10
TORSDOF 2
ENDMDL
MODEL 7
REMARK VINA RESULT:      -4.7      1.147      1.342
REMARK  Name = 
REMARK  3 active torsions:
REMARK  status: ('A' for Active; 'I' for Inactive)
REMARK    1  A    between atoms: C_1  and  S_2
REMARK    2  A    between atoms: S_2  and  N_5
REMARK    3  A    between atoms: C_8  and  N_9
REMARK                            x       y       z     vdW  Elec       q    Type
REMARK                         _______ _______ _______ _____ _____    ______ ____
ROOT
ATOM      1  N   UNL     1       6.820   5.737  17.061  0.00  0.00    +0.000 NA
ATOM      2  C   UNL     1       7.217   7.128  17.308  0.00  0.00    +0.000 C 
ATOM      3  C   UNL     1       8.062   7.017  18.568  0.00  0.00    +0.000 C 
ATOM      4  C   UNL     1       7.357   5.937  19.388  0.00  0.00    +0.000 C 
ATOM      5  C   UNL     1       6.662   5.034  18.344  0.00  0.00    +0.000 C 
ENDROOT
BRANCH   1   7
ATOM      6  C   UNL     1       6.994   4.755  14.543  0.00  0.00    +0.000 C 
ATOM      7  S   UNL     1       5.840   5.348  15.763  0.00  0.00    +0.000 S 
ATOM      8  O   UNL     1       5.266   6.579  15.267  0.00  0.00    +0.000 OA
ATOM      9  O   UNL     1       5.011   4.231  16.156  0.00  0.00    +0.000 OA
ENDBRANCH   1   7
BRANCH   4  10
ATOM     10  N   UNL     1       8.303   5.249  20.265  0.00  0.00    +0.000 NA
ATOM     11  H   UNL     1       8.315   4.253  20.034  0.00  0.00    +0.000 HD
ATOM     12  H   UNL     1       7.983   5.296  21.233  0.00  0.00    +0.000 HD
ENDBRANCH   4  10
TORSDOF 2
ENDMDL
MODEL 8
REMARK VINA RESULT:      -4.7      3.116      4.169
REMARK  Name = 
REMARK  3 active torsions:
REMARK  status: ('A' for Active; 'I' for Inactive)
REMARK    1  A    between atoms: C_1  and  S_2
REMARK    2  A    between atoms: S_2  and  N_5
REMARK    3  A    between atoms: C_8  and  N_9
REMARK                            x       y       z     vdW  Elec       q    Type
REMARK                         _______ _______ _______ _____ _____    ______ ____
ROOT
ATOM      1  N   UNL     1       5.743   4.316  17.838  0.00  0.00    +0.000 NA
ATOM      2  C   UNL     1       5.146   4.394  19.176  0.00  0.00    +0.000 C 
ATOM      3  C   UNL     1       3.771   3.779  18.968  0.00  0.00    +0.000 C 
ATOM      4  C   UNL     1       3.361   4.260  17.576  0.00  0.00    +0.000 C 
ATOM      5  C   UNL     1       4.692   4.472  16.819  0.00  0.00    +0.000 C 
ENDROOT
BRANCH   1   7
ATOM      6  C   UNL     1       7.023   6.660  17.391  0.00  0.00    +0.000 C 
ATOM      7  S   UNL     1       7.281   4.905  17.555  0.00  0.00    +0.000 S 
ATOM      8  O   UNL     1       7.713   4.399  16.271  0.00  0.00    +0.000 OA
ATOM      9  O   UNL     1       8.062   4.691  18.753  0.00  0.00    +0.000 OA
ENDBRANCH   1   7
BRANCH   4  10
ATOM     10  N   UNL     1       2.440   3.314  16.948  0.00  0.00    +0.000 NA
ATOM     11  H   UNL     1       1.520   3.397  17.388  0.00  0.00    +0.000 HD
ATOM     12  H   UNL     1       2.740   2.356  17.133  0.00  0.00    +0.000 HD
ENDBRANCH   4  10
TORSDOF 2
ENDMDL
MODEL 9
REMARK VINA RESULT:      -4.7      5.117      5.540
REMARK  Name = 
REMARK  3 active torsions:
REMARK  status: ('A' for Active; 'I' for Inactive)
REMARK    1  A    between atoms: C_1  and  S_2
REMARK    2  A    between atoms: S_2  and  N_5
REMARK    3  A    between atoms: C_8  and  N_9
REMARK                            x       y       z     vdW  Elec       q    Type
REMARK                         _______ _______ _______ _____ _____    ______ ____
ROOT
ATOM      1  N   UNL     1       3.317   4.210  19.528  0.00  0.00    +0.000 NA
ATOM      2  C   UNL     1       1.953   4.502  19.074  0.00  0.00    +0.000 C 
ATOM      3  C   UNL     1       1.098   3.990  20.223  0.00  0.00    +0.000 C 
ATOM      4  C   UNL     1       1.832   2.734  20.693  0.00  0.00    +0.000 C 
ATOM      5  C   UNL     1       3.315   2.981  20.337  0.00  0.00    +0.000 C 
ENDROOT
BRANCH   1   7
ATOM      6  C   UNL     1       4.317   3.669  17.070  0.00  0.00    +0.000 C 
ATOM      7  S   UNL     1       4.633   4.582  18.567  0.00  0.00    +0.000 S 
ATOM      8  O   UNL     1       5.805   4.012  19.194  0.00  0.00    +0.000 OA
ATOM      9  O   UNL     1       4.558   5.989  18.242  0.00  0.00    +0.000 OA
ENDBRANCH   1   7
BRANCH   4  10
ATOM     10  N   UNL     1       1.572   2.479  22.109  0.00  0.00    +0.000 NA
ATOM     11  H   UNL     1       2.083   3.161  22.674  0.00  0.00    +0.000 HD
ATOM     12  H   UNL     1       1.951   1.570  22.378  0.00  0.00    +0.000 HD
ENDBRANCH   4  10
TORSDOF 2
ENDMDL
