MODEL 1
REMARK VINA RESULT:      -7.4      0.000      0.000
REMARK  Name = 
REMARK  12 active torsions:
REMARK  status: ('A' for Active; 'I' for Inactive)
REMARK    1  A    between atoms: C_1  and  C_2
REMARK    2  A    between atoms: C_2  and  O_3
REMARK    3  A    between atoms: O_3  and  C_4
REMARK    4  A    between atoms: C_4  and  C_5
REMARK    5  A    between atoms: C_5  and  C_6
REMARK    6  A    between atoms: C_6  and  N_7
REMARK    7  A    between atoms: C_8  and  C_10
REMARK    8  A    between atoms: C_11  and  N_12
REMARK    9  A    between atoms: C_13  and  C_15
REMARK   10  A    between atoms: C_15  and  C_16
REMARK   11  A    between atoms: C_20  and  C_21
REMARK   12  A    between atoms: C_22  and  C_23
REMARK                            x       y       z     vdW  Elec       q    Type
REMARK                         _______ _______ _______ _____ _____    ______ ____
ROOT
ATOM      1  C   UNL     1      -1.133  11.435  20.411  0.00  0.00    +0.000 A 
ATOM      2  C   UNL     1      -0.408  10.791  21.404  0.00  0.00    +0.000 A 
ATOM      3  S   UNL     1      -1.029  11.046  22.987  0.00  0.00    +0.000 S 
ATOM      4  C   UNL     1      -2.176  12.102  22.389  0.00  0.00    +0.000 A 
ATOM      5  C   UNL     1      -2.180  12.199  21.022  0.00  0.00    +0.000 A 
ATOM      6  C   UNL     1      -3.346  12.991  20.556  0.00  0.00    +0.000 C 
ATOM      7  C   UNL     1      -3.808  13.706  21.859  0.00  0.00    +0.000 C 
ATOM      8  C   UNL     1      -3.272  12.853  23.049  0.00  0.00    +0.000 C 
ENDROOT
BRANCH   1  10
ATOM      9  N   UNL     1      -1.955  10.420  18.422  0.00  0.00    +0.000 N 
ATOM     10  C   UNL     1      -0.975  11.218  18.967  0.00  0.00    +0.000 C 
ATOM     11  O   UNL     1      -0.011  11.642  18.349  0.00  0.00    +0.000 OA
ATOM     12  H   UNL     1      -2.820  10.322  18.934  0.00  0.00    +0.000 HD
BRANCH   9  13
ATOM     13  C   UNL     1      -1.885   9.931  17.063  0.00  0.00    +0.000 C 
BRANCH  13  14
ATOM     14  C   UNL     1      -3.024  10.477  16.197  0.00  0.00    +0.000 C 
BRANCH  14  15
ATOM     15  C   UNL     1      -3.935  11.405  16.997  0.00  0.00    +0.000 C 
BRANCH  15  16
ATOM     16  O   UNL     1      -4.719  10.621  17.890  0.00  0.00    +0.000 OA
BRANCH  16  18
ATOM     17  C   UNL     1      -6.779  10.229  19.018  0.00  0.00    +0.000 C 
ATOM     18  C   UNL     1      -6.026  11.151  18.078  0.00  0.00    +0.000 C 
ENDBRANCH  16  18
ENDBRANCH  15  16
ENDBRANCH  14  15
ENDBRANCH  13  14
ENDBRANCH   9  13
ENDBRANCH   1  10
BRANCH   2  19
ATOM     19  N   UNL     1       0.691   9.956  21.395  0.00  0.00    +0.000 N 
ATOM     20  C   UNL     1       0.539   8.572  21.357  0.00  0.00    +0.000 C 
ATOM     21  O   UNL     1      -0.542   7.990  21.277  0.00  0.00    +0.000 OA
ATOM     22  H   UNL     1       1.526  10.321  20.949  0.00  0.00    +0.000 HD
BRANCH  20  23
ATOM     23  C   UNL     1       1.868   7.800  21.331  0.00  0.00    +0.000 C 
BRANCH  23  24
ATOM     24  C   UNL     1       2.007   6.976  20.087  0.00  0.00    +0.000 A 
ATOM     25  C   UNL     1       2.453   7.385  18.844  0.00  0.00    +0.000 A 
ATOM     26  O   UNL     1       2.649   6.316  18.027  0.00  0.00    +0.000 OA
ATOM     27  C   UNL     1       2.338   5.208  18.749  0.00  0.00    +0.000 A 
ATOM     28  C   UNL     1       2.548   3.870  18.405  0.00  0.00    +0.000 A 
ATOM     29  C   UNL     1       2.709   3.380  17.000  0.00  0.00    +0.000 C 
ATOM     30  C   UNL     1       2.381   3.002  19.494  0.00  0.00    +0.000 A 
ATOM     31  C   UNL     1       3.647   2.772  20.375  0.00  0.00    +0.000 C 
ATOM     32  C   UNL     1       1.317   3.264  20.331  0.00  0.00    +0.000 A 
ATOM     33  C   UNL     1       1.066   4.589  20.680  0.00  0.00    +0.000 A 
ATOM     34  C   UNL     1       1.735   5.579  19.947  0.00  0.00    +0.000 A 
ENDBRANCH  23  24
ENDBRANCH  20  23
ENDBRANCH   2  19
TORSDOF 9
ENDMDL
MODEL 2
REMARK VINA RESULT:      -7.3      3.048      9.391
REMARK  Name = 
REMARK  12 active torsions:
REMARK  status: ('A' for Active; 'I' for Inactive)
REMARK    1  A    between atoms: C_1  and  C_2
REMARK    2  A    between atoms: C_2  and  O_3
REMARK    3  A    between atoms: O_3  and  C_4
REMARK    4  A    between atoms: C_4  and  C_5
REMARK    5  A    between atoms: C_5  and  C_6
REMARK    6  A    between atoms: C_6  and  N_7
REMARK    7  A    between atoms: C_8  and  C_10
REMARK    8  A    between atoms: C_11  and  N_12
REMARK    9  A    between atoms: C_13  and  C_15
REMARK   10  A    between atoms: C_15  and  C_16
REMARK   11  A    between atoms: C_20  and  C_21
REMARK   12  A    between atoms: C_22  and  C_23
REMARK                            x       y       z     vdW  Elec       q    Type
REMARK                         _______ _______ _______ _____ _____    ______ ____
ROOT
ATOM      1  C   UNL     1       3.033   5.695  18.535  0.00  0.00    +0.000 A 
ATOM      2  C   UNL     1       2.365   6.503  19.444  0.00  0.00    +0.000 A 
ATOM      3  S   UNL     1       1.494   5.625  20.638  0.00  0.00    +0.000 S 
ATOM      4  C   UNL     1       1.885   4.184  19.892  0.00  0.00    +0.000 A 
ATOM      5  C   UNL     1       2.737   4.324  18.828  0.00  0.00    +0.000 A 
ATOM      6  C   UNL     1       3.197   2.998  18.346  0.00  0.00    +0.000 C 
ATOM      7  C   UNL     1       2.175   2.027  19.006  0.00  0.00    +0.000 C 
ATOM      8  C   UNL     1       1.590   2.773  20.245  0.00  0.00    +0.000 C 
ENDROOT
BRANCH   1  10
ATOM      9  N   UNL     1       4.401   5.185  16.656  0.00  0.00    +0.000 N 
ATOM     10  C   UNL     1       4.026   6.156  17.556  0.00  0.00    +0.000 C 
ATOM     11  O   UNL     1       4.522   7.271  17.610  0.00  0.00    +0.000 OA
ATOM     12  H   UNL     1       3.782   4.397  16.529  0.00  0.00    +0.000 HD
BRANCH   9  13
ATOM     13  C   UNL     1       5.497   5.371  15.731  0.00  0.00    +0.000 C 
BRANCH  13  14
ATOM     14  C   UNL     1       6.557   4.273  15.868  0.00  0.00    +0.000 C 
BRANCH  14  15
ATOM     15  C   UNL     1       7.577   4.617  16.951  0.00  0.00    +0.000 C 
BRANCH  15  16
ATOM     16  O   UNL     1       6.935   4.568  18.220  0.00  0.00    +0.000 OA
BRANCH  16  18
ATOM     17  C   UNL     1       7.851   6.759  18.395  0.00  0.00    +0.000 C 
ATOM     18  C   UNL     1       7.486   5.494  19.148  0.00  0.00    +0.000 C 
ENDBRANCH  16  18
ENDBRANCH  15  16
ENDBRANCH  14  15
ENDBRANCH  13  14
ENDBRANCH   9  13
ENDBRANCH   1  10
BRANCH   2  19
ATOM     19  N   UNL     1       2.277   7.869  19.622  0.00  0.00    +0.000 N 
ATOM     20  C   UNL     1       1.632   8.674  18.686  0.00  0.00    +0.000 C 
ATOM     21  O   UNL     1       1.058   8.255  17.683  0.00  0.00    +0.000 OA
ATOM     22  H   UNL     1       2.240   8.194  20.583  0.00  0.00    +0.000 HD
BRANCH  20  23
ATOM     23  C   UNL     1       1.612  10.167  19.057  0.00  0.00    +0.000 C 
BRANCH  23  24
ATOM     24  C   UNL     1       0.713  10.436  20.224  0.00  0.00    +0.000 A 
ATOM     25  C   UNL     1       0.962  10.191  21.562  0.00  0.00    +0.000 A 
ATOM     26  O   UNL     1       0.009  10.766  22.343  0.00  0.00    +0.000 OA
ATOM     27  C   UNL     1      -0.856  11.396  21.507  0.00  0.00    +0.000 A 
ATOM     28  C   UNL     1      -1.893  12.271  21.841  0.00  0.00    +0.000 A 
ATOM     29  C   UNL     1      -2.557  12.312  23.182  0.00  0.00    +0.000 C 
ATOM     30  C   UNL     1      -2.394  12.962  20.729  0.00  0.00    +0.000 A 
ATOM     31  C   UNL     1      -1.654  14.286  20.367  0.00  0.00    +0.000 C 
ATOM     32  C   UNL     1      -2.554  12.230  19.571  0.00  0.00    +0.000 A 
ATOM     33  C   UNL     1      -1.548  11.333  19.216  0.00  0.00    +0.000 A 
ATOM     34  C   UNL     1      -0.583  11.040  20.189  0.00  0.00    +0.000 A 
ENDBRANCH  23  24
ENDBRANCH  20  23
ENDBRANCH   2  19
TORSDOF 9
ENDMDL
MODEL 3
REMARK VINA RESULT:      -7.1      3.027      9.285
REMARK  Name = 
REMARK  12 active torsions:
REMARK  status: ('A' for Active; 'I' for Inactive)
REMARK    1  A    between atoms: C_1  and  C_2
REMARK    2  A    between atoms: C_2  and  O_3
REMARK    3  A    between atoms: O_3  and  C_4
REMARK    4  A    between atoms: C_4  and  C_5
REMARK    5  A    between atoms: C_5  and  C_6
REMARK    6  A    between atoms: C_6  and  N_7
REMARK    7  A    between atoms: C_8  and  C_10
REMARK    8  A    between atoms: C_11  and  N_12
REMARK    9  A    between atoms: C_13  and  C_15
REMARK   10  A    between atoms: C_15  and  C_16
REMARK   11  A    between atoms: C_20  and  C_21
REMARK   12  A    between atoms: C_22  and  C_23
REMARK                            x       y       z     vdW  Elec       q    Type
REMARK                         _______ _______ _______ _____ _____    ______ ____
ROOT
ATOM      1  C   UNL     1       3.124   5.869  18.965  0.00  0.00    +0.000 A 
ATOM      2  C   UNL     1       2.336   6.842  19.564  0.00  0.00    +0.000 A 
ATOM      3  S   UNL     1       1.215   6.215  20.707  0.00  0.00    +0.000 S 
ATOM      4  C   UNL     1       1.672   4.655  20.328  0.00  0.00    +0.000 A 
ATOM      5  C   UNL     1       2.714   4.581  19.442  0.00  0.00    +0.000 A 
ATOM      6  C   UNL     1       3.194   3.183  19.310  0.00  0.00    +0.000 C 
ATOM      7  C   UNL     1       2.021   2.366  19.926  0.00  0.00    +0.000 C 
ATOM      8  C   UNL     1       1.249   3.339  20.870  0.00  0.00    +0.000 C 
ENDROOT
BRANCH   1  10
ATOM      9  N   UNL     1       5.485   5.718  18.709  0.00  0.00    +0.000 N 
ATOM     10  C   UNL     1       4.305   6.126  18.130  0.00  0.00    +0.000 C 
ATOM     11  O   UNL     1       4.231   6.726  17.068  0.00  0.00    +0.000 OA
ATOM     12  H   UNL     1       5.433   5.031  19.448  0.00  0.00    +0.000 HD
BRANCH   9  13
ATOM     13  C   UNL     1       6.775   6.043  18.143  0.00  0.00    +0.000 C 
BRANCH  13  14
ATOM     14  C   UNL     1       7.537   4.792  17.693  0.00  0.00    +0.000 C 
BRANCH  14  15
ATOM     15  C   UNL     1       7.090   4.340  16.304  0.00  0.00    +0.000 C 
BRANCH  15  16
ATOM     16  O   UNL     1       7.485   5.320  15.352  0.00  0.00    +0.000 OA
BRANCH  16  18
ATOM     17  C   UNL     1       5.912   4.053  14.091  0.00  0.00    +0.000 C 
ATOM     18  C   UNL     1       7.117   4.971  14.023  0.00  0.00    +0.000 C 
ENDBRANCH  16  18
ENDBRANCH  15  16
ENDBRANCH  14  15
ENDBRANCH  13  14
ENDBRANCH   9  13
ENDBRANCH   1  10
BRANCH   2  19
ATOM     19  N   UNL     1       2.281   8.218  19.468  0.00  0.00    +0.000 N 
ATOM     20  C   UNL     1       1.701   8.837  18.364  0.00  0.00    +0.000 C 
ATOM     21  O   UNL     1       1.158   8.241  17.434  0.00  0.00    +0.000 OA
ATOM     22  H   UNL     1       2.212   8.725  20.345  0.00  0.00    +0.000 HD
BRANCH  20  23
ATOM     23  C   UNL     1       1.709  10.373  18.434  0.00  0.00    +0.000 C 
BRANCH  23  24
ATOM     24  C   UNL     1       0.348  10.921  18.742  0.00  0.00    +0.000 A 
ATOM     25  C   UNL     1      -0.832  10.693  18.058  0.00  0.00    +0.000 A 
ATOM     26  O   UNL     1      -1.894  11.178  18.755  0.00  0.00    +0.000 OA
ATOM     27  C   UNL     1      -1.399  11.713  19.902  0.00  0.00    +0.000 A 
ATOM     28  C   UNL     1      -2.109  12.171  21.015  0.00  0.00    +0.000 A 
ATOM     29  C   UNL     1      -3.541  12.605  20.976  0.00  0.00    +0.000 C 
ATOM     30  C   UNL     1      -1.285  12.385  22.129  0.00  0.00    +0.000 A 
ATOM     31  C   UNL     1      -1.043  11.140  23.038  0.00  0.00    +0.000 C 
ATOM     32  C   UNL     1      -0.066  12.982  21.887  0.00  0.00    +0.000 A 
ATOM     33  C   UNL     1       0.662  12.564  20.775  0.00  0.00    +0.000 A 
ATOM     34  C   UNL     1      -0.010  11.769  19.836  0.00  0.00    +0.000 A 
ENDBRANCH  23  24
ENDBRANCH  20  23
ENDBRANCH   2  19
TORSDOF 9
ENDMDL
MODEL 4
REMARK VINA RESULT:      -7.1      3.031      9.215
REMARK  Name = 
REMARK  12 active torsions:
REMARK  status: ('A' for Active; 'I' for Inactive)
REMARK    1  A    between atoms: C_1  and  C_2
REMARK    2  A    between atoms: C_2  and  O_3
REMARK    3  A    between atoms: O_3  and  C_4
REMARK    4  A    between atoms: C_4  and  C_5
REMARK    5  A    between atoms: C_5  and  C_6
REMARK    6  A    between atoms: C_6  and  N_7
REMARK    7  A    between atoms: C_8  and  C_10
REMARK    8  A    between atoms: C_11  and  N_12
REMARK    9  A    between atoms: C_13  and  C_15
REMARK   10  A    between atoms: C_15  and  C_16
REMARK   11  A    between atoms: C_20  and  C_21
REMARK   12  A    between atoms: C_22  and  C_23
REMARK                            x       y       z     vdW  Elec       q    Type
REMARK                         _______ _______ _______ _____ _____    ______ ____
ROOT
ATOM      1  C   UNL     1       2.805   5.612  18.638  0.00  0.00    +0.000 A 
ATOM      2  C   UNL     1       2.412   6.061  19.891  0.00  0.00    +0.000 A 
ATOM      3  S   UNL     1       1.830   4.812  20.919  0.00  0.00    +0.000 S 
ATOM      4  C   UNL     1       1.972   3.700  19.682  0.00  0.00    +0.000 A 
ATOM      5  C   UNL     1       2.539   4.207  18.543  0.00  0.00    +0.000 A 
ATOM      6  C   UNL     1       2.818   3.124  17.568  0.00  0.00    +0.000 C 
ATOM      7  C   UNL     1       1.954   1.950  18.115  0.00  0.00    +0.000 C 
ATOM      8  C   UNL     1       1.719   2.238  19.629  0.00  0.00    +0.000 C 
ENDROOT
BRANCH   1  10
ATOM      9  N   UNL     1       4.312   5.638  16.797  0.00  0.00    +0.000 N 
ATOM     10  C   UNL     1       3.544   6.403  17.645  0.00  0.00    +0.000 C 
ATOM     11  O   UNL     1       3.530   7.624  17.647  0.00  0.00    +0.000 OA
ATOM     12  H   UNL     1       4.079   4.660  16.705  0.00  0.00    +0.000 HD
BRANCH   9  13
ATOM     13  C   UNL     1       5.257   6.224  15.872  0.00  0.00    +0.000 C 
BRANCH  13  14
ATOM     14  C   UNL     1       6.667   5.652  16.052  0.00  0.00    +0.000 C 
BRANCH  14  15
ATOM     15  C   UNL     1       6.644   4.371  16.883  0.00  0.00    +0.000 C 
BRANCH  15  16
ATOM     16  O   UNL     1       7.579   4.497  17.949  0.00  0.00    +0.000 OA
BRANCH  16  18
ATOM     17  C   UNL     1       8.119   6.602  18.922  0.00  0.00    +0.000 C 
ATOM     18  C   UNL     1       7.159   5.429  18.937  0.00  0.00    +0.000 C 
ENDBRANCH  16  18
ENDBRANCH  15  16
ENDBRANCH  14  15
ENDBRANCH  13  14
ENDBRANCH   9  13
ENDBRANCH   1  10
BRANCH   2  19
ATOM     19  N   UNL     1       2.422   7.294  20.510  0.00  0.00    +0.000 N 
ATOM     20  C   UNL     1       1.254   7.840  21.037  0.00  0.00    +0.000 C 
ATOM     21  O   UNL     1       0.162   7.275  21.050  0.00  0.00    +0.000 OA
ATOM     22  H   UNL     1       3.282   7.551  20.983  0.00  0.00    +0.000 HD
BRANCH  20  23
ATOM     23  C   UNL     1       1.454   9.211  21.707  0.00  0.00    +0.000 C 
BRANCH  23  24
ATOM     24  C   UNL     1       0.198  10.027  21.685  0.00  0.00    +0.000 A 
ATOM     25  C   UNL     1      -0.535  10.486  22.764  0.00  0.00    +0.000 A 
ATOM     26  O   UNL     1      -1.483  11.373  22.361  0.00  0.00    +0.000 OA
ATOM     27  C   UNL     1      -1.357  11.497  21.014  0.00  0.00    +0.000 A 
ATOM     28  C   UNL     1      -1.984  12.419  20.172  0.00  0.00    +0.000 A 
ATOM     29  C   UNL     1      -3.261  13.125  20.504  0.00  0.00    +0.000 C 
ATOM     30  C   UNL     1      -1.409  12.457  18.893  0.00  0.00    +0.000 A 
ATOM     31  C   UNL     1      -0.196  13.424  18.727  0.00  0.00    +0.000 C 
ATOM     32  C   UNL     1      -1.070  11.244  18.335  0.00  0.00    +0.000 A 
ATOM     33  C   UNL     1      -0.460  10.292  19.149  0.00  0.00    +0.000 A 
ATOM     34  C   UNL     1      -0.481  10.529  20.530  0.00  0.00    +0.000 A 
ENDBRANCH  23  24
ENDBRANCH  20  23
ENDBRANCH   2  19
TORSDOF 9
ENDMDL
MODEL 5
REMARK VINA RESULT:      -7.0      2.985      9.362
REMARK  Name = 
REMARK  12 active torsions:
REMARK  status: ('A' for Active; 'I' for Inactive)
REMARK    1  A    between atoms: C_1  and  C_2
REMARK    2  A    between atoms: C_2  and  O_3
REMARK    3  A    between atoms: O_3  and  C_4
REMARK    4  A    between atoms: C_4  and  C_5
REMARK    5  A    between atoms: C_5  and  C_6
REMARK    6  A    between atoms: C_6  and  N_7
REMARK    7  A    between atoms: C_8  and  C_10
REMARK    8  A    between atoms: C_11  and  N_12
REMARK    9  A    between atoms: C_13  and  C_15
REMARK   10  A    between atoms: C_15  and  C_16
REMARK   11  A    between atoms: C_20  and  C_21
REMARK   12  A    between atoms: C_22  and  C_23
REMARK                            x       y       z     vdW  Elec       q    Type
REMARK                         _______ _______ _______ _____ _____    ______ ____
ROOT
ATOM      1  C   UNL     1       2.822   5.950  18.697  0.00  0.00    +0.000 A 
ATOM      2  C   UNL     1       2.282   6.331  19.918  0.00  0.00    +0.000 A 
ATOM      3  S   UNL     1       1.449   5.064  20.728  0.00  0.00    +0.000 S 
ATOM      4  C   UNL     1       1.686   4.047  19.425  0.00  0.00    +0.000 A 
ATOM      5  C   UNL     1       2.460   4.589  18.433  0.00  0.00    +0.000 A 
ATOM      6  C   UNL     1       2.793   3.568  17.409  0.00  0.00    +0.000 C 
ATOM      7  C   UNL     1       1.762   2.441  17.712  0.00  0.00    +0.000 C 
ATOM      8  C   UNL     1       1.325   2.626  19.198  0.00  0.00    +0.000 C 
ENDROOT
BRANCH   1  10
ATOM      9  N   UNL     1       5.035   6.215  17.863  0.00  0.00    +0.000 N 
ATOM     10  C   UNL     1       3.766   6.746  17.900  0.00  0.00    +0.000 C 
ATOM     11  O   UNL     1       3.453   7.816  17.401  0.00  0.00    +0.000 OA
ATOM     12  H   UNL     1       5.142   5.235  18.084  0.00  0.00    +0.000 HD
BRANCH   9  13
ATOM     13  C   UNL     1       6.155   6.931  17.294  0.00  0.00    +0.000 C 
BRANCH  13  14
ATOM     14  C   UNL     1       7.138   5.992  16.586  0.00  0.00    +0.000 C 
BRANCH  14  15
ATOM     15  C   UNL     1       6.695   4.535  16.703  0.00  0.00    +0.000 C 
BRANCH  15  16
ATOM     16  O   UNL     1       5.753   4.257  15.673  0.00  0.00    +0.000 OA
BRANCH  16  18
ATOM     17  C   UNL     1       6.225   3.720  13.402  0.00  0.00    +0.000 C 
ATOM     18  C   UNL     1       6.120   4.834  14.426  0.00  0.00    +0.000 C 
ENDBRANCH  16  18
ENDBRANCH  15  16
ENDBRANCH  14  15
ENDBRANCH  13  14
ENDBRANCH   9  13
ENDBRANCH   1  10
BRANCH   2  19
ATOM     19  N   UNL     1       2.299   7.503  20.645  0.00  0.00    +0.000 N 
ATOM     20  C   UNL     1       1.495   8.582  20.284  0.00  0.00    +0.000 C 
ATOM     21  O   UNL     1       0.689   8.573  19.355  0.00  0.00    +0.000 OA
ATOM     22  H   UNL     1       2.496   7.412  21.636  0.00  0.00    +0.000 HD
BRANCH  20  23
ATOM     23  C   UNL     1       1.627   9.797  21.218  0.00  0.00    +0.000 C 
BRANCH  23  24
ATOM     24  C   UNL     1       0.315  10.160  21.844  0.00  0.00    +0.000 A 
ATOM     25  C   UNL     1      -0.219   9.687  23.029  0.00  0.00    +0.000 A 
ATOM     26  O   UNL     1      -1.319  10.404  23.382  0.00  0.00    +0.000 OA
ATOM     27  C   UNL     1      -1.491  11.354  22.426  0.00  0.00    +0.000 A 
ATOM     28  C   UNL     1      -2.374  12.437  22.439  0.00  0.00    +0.000 A 
ATOM     29  C   UNL     1      -3.621  12.494  23.265  0.00  0.00    +0.000 C 
ATOM     30  C   UNL     1      -2.087  13.377  21.438  0.00  0.00    +0.000 A 
ATOM     31  C   UNL     1      -1.044  14.472  21.820  0.00  0.00    +0.000 C 
ATOM     32  C   UNL     1      -1.747  12.873  20.201  0.00  0.00    +0.000 A 
ATOM     33  C   UNL     1      -0.883  11.781  20.150  0.00  0.00    +0.000 A 
ATOM     34  C   UNL     1      -0.639  11.106  21.354  0.00  0.00    +0.000 A 
ENDBRANCH  23  24
ENDBRANCH  20  23
ENDBRANCH   2  19
TORSDOF 9
ENDMDL
MODEL 6
REMARK VINA RESULT:      -7.0      3.254      9.461
REMARK  Name = 
REMARK  12 active torsions:
REMARK  status: ('A' for Active; 'I' for Inactive)
REMARK    1  A    between atoms: C_1  and  C_2
REMARK    2  A    between atoms: C_2  and  O_3
REMARK    3  A    between atoms: O_3  and  C_4
REMARK    4  A    between atoms: C_4  and  C_5
REMARK    5  A    between atoms: C_5  and  C_6
REMARK    6  A    between atoms: C_6  and  N_7
REMARK    7  A    between atoms: C_8  and  C_10
REMARK    8  A    between atoms: C_11  and  N_12
REMARK    9  A    between atoms: C_13  and  C_15
REMARK   10  A    between atoms: C_15  and  C_16
REMARK   11  A    between atoms: C_20  and  C_21
REMARK   12  A    between atoms: C_22  and  C_23
REMARK                            x       y       z     vdW  Elec       q    Type
REMARK                         _______ _______ _______ _____ _____    ______ ____
ROOT
ATOM      1  C   UNL     1       3.428   5.357  18.586  0.00  0.00    +0.000 A 
ATOM      2  C   UNL     1       2.625   6.146  19.399  0.00  0.00    +0.000 A 
ATOM      3  S   UNL     1       1.594   5.241  20.435  0.00  0.00    +0.000 S 
ATOM      4  C   UNL     1       2.105   3.816  19.733  0.00  0.00    +0.000 A 
ATOM      5  C   UNL     1       3.105   3.980  18.810  0.00  0.00    +0.000 A 
ATOM      6  C   UNL     1       3.645   2.665  18.382  0.00  0.00    +0.000 C 
ATOM      7  C   UNL     1       2.544   1.676  18.866  0.00  0.00    +0.000 C 
ATOM      8  C   UNL     1       1.773   2.397  20.015  0.00  0.00    +0.000 C 
ENDROOT
BRANCH   1  10
ATOM      9  N   UNL     1       4.509   5.415  16.467  0.00  0.00    +0.000 N 
ATOM     10  C   UNL     1       4.553   5.842  17.775  0.00  0.00    +0.000 C 
ATOM     11  O   UNL     1       5.471   6.487  18.257  0.00  0.00    +0.000 OA
ATOM     12  H   UNL     1       3.619   5.106  16.103  0.00  0.00    +0.000 HD
BRANCH   9  13
ATOM     13  C   UNL     1       5.608   5.621  15.550  0.00  0.00    +0.000 C 
BRANCH  13  14
ATOM     14  C   UNL     1       6.407   4.335  15.314  0.00  0.00    +0.000 C 
BRANCH  14  15
ATOM     15  C   UNL     1       6.621   4.080  13.823  0.00  0.00    +0.000 C 
BRANCH  15  16
ATOM     16  O   UNL     1       5.355   3.880  13.205  0.00  0.00    +0.000 OA
BRANCH  16  18
ATOM     17  C   UNL     1       4.087   3.184  11.314  0.00  0.00    +0.000 C 
ATOM     18  C   UNL     1       5.455   3.184  11.969  0.00  0.00    +0.000 C 
ENDBRANCH  16  18
ENDBRANCH  15  16
ENDBRANCH  14  15
ENDBRANCH  13  14
ENDBRANCH   9  13
ENDBRANCH   1  10
BRANCH   2  19
ATOM     19  N   UNL     1       2.499   7.508  19.583  0.00  0.00    +0.000 N 
ATOM     20  C   UNL     1       1.926   8.314  18.602  0.00  0.00    +0.000 C 
ATOM     21  O   UNL     1       1.449   7.898  17.547  0.00  0.00    +0.000 OA
ATOM     22  H   UNL     1       2.372   7.820  20.540  0.00  0.00    +0.000 HD
BRANCH  20  23
ATOM     23  C   UNL     1       1.848   9.801  18.986  0.00  0.00    +0.000 C 
BRANCH  23  24
ATOM     24  C   UNL     1       0.906  10.031  20.128  0.00  0.00    +0.000 A 
ATOM     25  C   UNL     1       1.053   9.629  21.443  0.00  0.00    +0.000 A 
ATOM     26  O   UNL     1       0.108  10.205  22.232  0.00  0.00    +0.000 OA
ATOM     27  C   UNL     1      -0.649  10.993  21.425  0.00  0.00    +0.000 A 
ATOM     28  C   UNL     1      -1.626  11.920  21.798  0.00  0.00    +0.000 A 
ATOM     29  C   UNL     1      -2.364  11.884  23.100  0.00  0.00    +0.000 C 
ATOM     30  C   UNL     1      -2.000  12.763  20.741  0.00  0.00    +0.000 A 
ATOM     31  C   UNL     1      -1.129  14.045  20.561  0.00  0.00    +0.000 C 
ATOM     32  C   UNL     1      -2.151  12.170  19.506  0.00  0.00    +0.000 A 
ATOM     33  C   UNL     1      -1.206  11.227  19.108  0.00  0.00    +0.000 A 
ATOM     34  C   UNL     1      -0.330  10.750  20.092  0.00  0.00    +0.000 A 
ENDBRANCH  23  24
ENDBRANCH  20  23
ENDBRANCH   2  19
TORSDOF 9
ENDMDL
MODEL 7
REMARK VINA RESULT:      -6.9      3.237      9.378
REMARK  Name = 
REMARK  12 active torsions:
REMARK  status: ('A' for Active; 'I' for Inactive)
REMARK    1  A    between atoms: C_1  and  C_2
REMARK    2  A    between atoms: C_2  and  O_3
REMARK    3  A    between atoms: O_3  and  C_4
REMARK    4  A    between atoms: C_4  and  C_5
REMARK    5  A    between atoms: C_5  and  C_6
REMARK    6  A    between atoms: C_6  and  N_7
REMARK    7  A    between atoms: C_8  and  C_10
REMARK    8  A    between atoms: C_11  and  N_12
REMARK    9  A    between atoms: C_13  and  C_15
REMARK   10  A    between atoms: C_15  and  C_16
REMARK   11  A    between atoms: C_20  and  C_21
REMARK   12  A    between atoms: C_22  and  C_23
REMARK                            x       y       z     vdW  Elec       q    Type
REMARK                         _______ _______ _______ _____ _____    ______ ____
ROOT
ATOM      1  C   UNL     1       2.941   5.485  18.558  0.00  0.00    +0.000 A 
ATOM      2  C   UNL     1       2.566   5.991  19.794  0.00  0.00    +0.000 A 
ATOM      3  S   UNL     1       1.965   4.797  20.875  0.00  0.00    +0.000 S 
ATOM      4  C   UNL     1       2.076   3.633  19.683  0.00  0.00    +0.000 A 
ATOM      5  C   UNL     1       2.646   4.083  18.522  0.00  0.00    +0.000 A 
ATOM      6  C   UNL     1       2.896   2.956  17.589  0.00  0.00    +0.000 C 
ATOM      7  C   UNL     1       2.012   1.823  18.188  0.00  0.00    +0.000 C 
ATOM      8  C   UNL     1       1.794   2.176  19.691  0.00  0.00    +0.000 C 
ENDROOT
BRANCH   1  10
ATOM      9  N   UNL     1       4.441   5.407  16.712  0.00  0.00    +0.000 N 
ATOM     10  C   UNL     1       3.688   6.220  17.529  0.00  0.00    +0.000 C 
ATOM     11  O   UNL     1       3.695   7.441  17.479  0.00  0.00    +0.000 OA
ATOM     12  H   UNL     1       4.191   4.429  16.663  0.00  0.00    +0.000 HD
BRANCH   9  13
ATOM     13  C   UNL     1       5.392   5.936  15.761  0.00  0.00    +0.000 C 
BRANCH  13  14
ATOM     14  C   UNL     1       6.837   5.607  16.149  0.00  0.00    +0.000 C 
BRANCH  14  15
ATOM     15  C   UNL     1       7.218   6.259  17.476  0.00  0.00    +0.000 C 
BRANCH  15  16
ATOM     16  O   UNL     1       7.702   7.573  17.221  0.00  0.00    +0.000 OA
BRANCH  16  18
ATOM     17  C   UNL     1       8.465   9.647  18.106  0.00  0.00    +0.000 C 
ATOM     18  C   UNL     1       8.319   8.159  18.360  0.00  0.00    +0.000 C 
ENDBRANCH  16  18
ENDBRANCH  15  16
ENDBRANCH  14  15
ENDBRANCH  13  14
ENDBRANCH   9  13
ENDBRANCH   1  10
BRANCH   2  19
ATOM     19  N   UNL     1       2.604   7.248  20.363  0.00  0.00    +0.000 N 
ATOM     20  C   UNL     1       1.449   7.846  20.860  0.00  0.00    +0.000 C 
ATOM     21  O   UNL     1       0.342   7.310  20.889  0.00  0.00    +0.000 OA
ATOM     22  H   UNL     1       3.468   7.502  20.830  0.00  0.00    +0.000 HD
BRANCH  20  23
ATOM     23  C   UNL     1       1.681   9.236  21.475  0.00  0.00    +0.000 C 
BRANCH  23  24
ATOM     24  C   UNL     1       0.423   9.800  22.063  0.00  0.00    +0.000 A 
ATOM     25  C   UNL     1      -0.055   9.647  23.351  0.00  0.00    +0.000 A 
ATOM     26  O   UNL     1      -1.105  10.479  23.578  0.00  0.00    +0.000 OA
ATOM     27  C   UNL     1      -1.302  11.183  22.433  0.00  0.00    +0.000 A 
ATOM     28  C   UNL     1      -2.144  12.280  22.231  0.00  0.00    +0.000 A 
ATOM     29  C   UNL     1      -3.336  12.591  23.082  0.00  0.00    +0.000 C 
ATOM     30  C   UNL     1      -1.886  12.941  21.021  0.00  0.00    +0.000 A 
ATOM     31  C   UNL     1      -0.785  14.044  21.077  0.00  0.00    +0.000 C 
ATOM     32  C   UNL     1      -1.639  12.143  19.925  0.00  0.00    +0.000 A 
ATOM     33  C   UNL     1      -0.819  11.030  20.093  0.00  0.00    +0.000 A 
ATOM     34  C   UNL     1      -0.526  10.648  21.409  0.00  0.00    +0.000 A 
ENDBRANCH  23  24
ENDBRANCH  20  23
ENDBRANCH   2  19
TORSDOF 9
ENDMDL
MODEL 8
REMARK VINA RESULT:      -6.9      2.117      2.983
REMARK  Name = 
REMARK  12 active torsions:
REMARK  status: ('A' for Active; 'I' for Inactive)
REMARK    1  A    between atoms: C_1  and  C_2
REMARK    2  A    between atoms: C_2  and  O_3
REMARK    3  A    between atoms: O_3  and  C_4
REMARK    4  A    between atoms: C_4  and  C_5
REMARK    5  A    between atoms: C_5  and  C_6
REMARK    6  A    between atoms: C_6  and  N_7
REMARK    7  A    between atoms: C_8  and  C_10
REMARK    8  A    between atoms: C_11  and  N_12
REMARK    9  A    between atoms: C_13  and  C_15
REMARK   10  A    between atoms: C_15  and  C_16
REMARK   11  A    between atoms: C_20  and  C_21
REMARK   12  A    between atoms: C_22  and  C_23
REMARK                            x       y       z     vdW  Elec       q    Type
REMARK                         _______ _______ _______ _____ _____    ______ ____
ROOT
ATOM      1  C   UNL     1      -0.398  10.928  19.600  0.00  0.00    +0.000 A 
ATOM      2  C   UNL     1       0.556   9.920  19.611  0.00  0.00    +0.000 A 
ATOM      3  S   UNL     1       0.801   9.219  21.162  0.00  0.00    +0.000 S 
ATOM      4  C   UNL     1      -0.250  10.320  21.847  0.00  0.00    +0.000 A 
ATOM      5  C   UNL     1      -0.865  11.140  20.938  0.00  0.00    +0.000 A 
ATOM      6  C   UNL     1      -1.926  11.946  21.591  0.00  0.00    +0.000 C 
ATOM      7  C   UNL     1      -1.579  11.797  23.101  0.00  0.00    +0.000 C 
ATOM      8  C   UNL     1      -0.741  10.489  23.238  0.00  0.00    +0.000 C 
ENDROOT
BRANCH   1  10
ATOM      9  N   UNL     1      -1.837  10.715  17.717  0.00  0.00    +0.000 N 
ATOM     10  C   UNL     1      -0.971  11.543  18.395  0.00  0.00    +0.000 C 
ATOM     11  O   UNL     1      -0.629  12.649  18.005  0.00  0.00    +0.000 OA
ATOM     12  H   UNL     1      -2.241   9.940  18.223  0.00  0.00    +0.000 HD
BRANCH   9  13
ATOM     13  C   UNL     1      -2.363  11.051  16.413  0.00  0.00    +0.000 C 
BRANCH  13  14
ATOM     14  C   UNL     1      -2.986   9.837  15.715  0.00  0.00    +0.000 C 
BRANCH  14  15
ATOM     15  C   UNL     1      -3.230  10.114  14.233  0.00  0.00    +0.000 C 
BRANCH  15  16
ATOM     16  O   UNL     1      -4.566   9.748  13.910  0.00  0.00    +0.000 OA
BRANCH  16  18
ATOM     17  C   UNL     1      -3.433   9.721  11.816  0.00  0.00    +0.000 C 
ATOM     18  C   UNL     1      -4.780   9.637  12.509  0.00  0.00    +0.000 C 
ENDBRANCH  16  18
ENDBRANCH  15  16
ENDBRANCH  14  15
ENDBRANCH  13  14
ENDBRANCH   9  13
ENDBRANCH   1  10
BRANCH   2  19
ATOM     19  N   UNL     1       1.331   9.328  18.634  0.00  0.00    +0.000 N 
ATOM     20  C   UNL     1       2.077   8.183  18.906  0.00  0.00    +0.000 C 
ATOM     21  O   UNL     1       2.073   7.586  19.982  0.00  0.00    +0.000 OA
ATOM     22  H   UNL     1       0.996   9.420  17.681  0.00  0.00    +0.000 HD
BRANCH  20  23
ATOM     23  C   UNL     1       2.863   7.650  17.697  0.00  0.00    +0.000 C 
BRANCH  23  24
ATOM     24  C   UNL     1       3.470   6.309  17.979  0.00  0.00    +0.000 A 
ATOM     25  C   UNL     1       4.798   6.014  18.226  0.00  0.00    +0.000 A 
ATOM     26  O   UNL     1       4.935   4.730  18.653  0.00  0.00    +0.000 OA
ATOM     27  C   UNL     1       3.688   4.195  18.693  0.00  0.00    +0.000 A 
ATOM     28  C   UNL     1       3.294   2.967  19.233  0.00  0.00    +0.000 A 
ATOM     29  C   UNL     1       4.217   1.806  19.437  0.00  0.00    +0.000 C 
ATOM     30  C   UNL     1       1.903   2.860  19.368  0.00  0.00    +0.000 A 
ATOM     31  C   UNL     1       1.309   3.415  20.699  0.00  0.00    +0.000 C 
ATOM     32  C   UNL     1       1.144   3.345  18.324  0.00  0.00    +0.000 A 
ATOM     33  C   UNL     1       1.518   4.557  17.748  0.00  0.00    +0.000 A 
ATOM     34  C   UNL     1       2.783   5.059  18.084  0.00  0.00    +0.000 A 
ENDBRANCH  23  24
ENDBRANCH  20  23
ENDBRANCH   2  19
TORSDOF 9
ENDMDL
MODEL 9
REMARK VINA RESULT:      -6.8      3.355      9.361
REMARK  Name = 
REMARK  12 active torsions:
REMARK  status: ('A' for Active; 'I' for Inactive)
REMARK    1  A    between atoms: C_1  and  C_2
REMARK    2  A    between atoms: C_2  and  O_3
REMARK    3  A    between atoms: O_3  and  C_4
REMARK    4  A    between atoms: C_4  and  C_5
REMARK    5  A    between atoms: C_5  and  C_6
REMARK    6  A    between atoms: C_6  and  N_7
REMARK    7  A    between atoms: C_8  and  C_10
REMARK    8  A    between atoms: C_11  and  N_12
REMARK    9  A    between atoms: C_13  and  C_15
REMARK   10  A    between atoms: C_15  and  C_16
REMARK   11  A    between atoms: C_20  and  C_21
REMARK   12  A    between atoms: C_22  and  C_23
REMARK                            x       y       z     vdW  Elec       q    Type
REMARK                         _______ _______ _______ _____ _____    ______ ____
ROOT
ATOM      1  C   UNL     1       3.706   5.823  17.866  0.00  0.00    +0.000 A 
ATOM      2  C   UNL     1       3.600   7.171  17.552  0.00  0.00    +0.000 A 
ATOM      3  S   UNL     1       5.087   7.885  17.068  0.00  0.00    +0.000 S 
ATOM      4  C   UNL     1       5.898   6.462  17.388  0.00  0.00    +0.000 A 
ATOM      5  C   UNL     1       5.078   5.427  17.753  0.00  0.00    +0.000 A 
ATOM      6  C   UNL     1       5.838   4.154  17.824  0.00  0.00    +0.000 C 
ATOM      7  C   UNL     1       7.315   4.647  17.856  0.00  0.00    +0.000 C 
ATOM      8  C   UNL     1       7.321   6.074  17.226  0.00  0.00    +0.000 C 
ENDROOT
BRANCH   1  10
ATOM      9  N   UNL     1       2.079   4.958  19.372  0.00  0.00    +0.000 N 
ATOM     10  C   UNL     1       2.576   4.911  18.089  0.00  0.00    +0.000 C 
ATOM     11  O   UNL     1       2.190   4.133  17.231  0.00  0.00    +0.000 OA
ATOM     12  H   UNL     1       2.284   5.778  19.926  0.00  0.00    +0.000 HD
BRANCH   9  13
ATOM     13  C   UNL     1       1.096   4.014  19.855  0.00  0.00    +0.000 C 
BRANCH  13  14
ATOM     14  C   UNL     1       1.452   3.474  21.244  0.00  0.00    +0.000 C 
BRANCH  14  15
ATOM     15  C   UNL     1       2.474   2.343  21.154  0.00  0.00    +0.000 C 
BRANCH  15  16
ATOM     16  O   UNL     1       3.692   2.863  20.634  0.00  0.00    +0.000 OA
BRANCH  16  18
ATOM     17  C   UNL     1       3.552   1.385  18.773  0.00  0.00    +0.000 C 
ATOM     18  C   UNL     1       4.430   1.896  19.899  0.00  0.00    +0.000 C 
ENDBRANCH  16  18
ENDBRANCH  15  16
ENDBRANCH  14  15
ENDBRANCH  13  14
ENDBRANCH   9  13
ENDBRANCH   1  10
BRANCH   2  19
ATOM     19  N   UNL     1       2.546   8.061  17.510  0.00  0.00    +0.000 N 
ATOM     20  C   UNL     1       1.854   8.409  18.667  0.00  0.00    +0.000 C 
ATOM     21  O   UNL     1       2.138   8.014  19.797  0.00  0.00    +0.000 OA
ATOM     22  H   UNL     1       2.595   8.778  16.793  0.00  0.00    +0.000 HD
BRANCH  20  23
ATOM     23  C   UNL     1       0.725   9.427  18.436  0.00  0.00    +0.000 C 
BRANCH  23  24
ATOM     24  C   UNL     1       0.970  10.705  19.179  0.00  0.00    +0.000 A 
ATOM     25  C   UNL     1       1.665  11.819  18.745  0.00  0.00    +0.000 A 
ATOM     26  O   UNL     1       1.491  12.860  19.602  0.00  0.00    +0.000 OA
ATOM     27  C   UNL     1       0.669  12.421  20.590  0.00  0.00    +0.000 A 
ATOM     28  C   UNL     1       0.060  13.171  21.600  0.00  0.00    +0.000 A 
ATOM     29  C   UNL     1       0.562  14.497  22.080  0.00  0.00    +0.000 C 
ATOM     30  C   UNL     1      -0.946  12.458  22.267  0.00  0.00    +0.000 A 
ATOM     31  C   UNL     1      -2.366  12.533  21.623  0.00  0.00    +0.000 C 
ATOM     32  C   UNL     1      -0.676  11.138  22.558  0.00  0.00    +0.000 A 
ATOM     33  C   UNL     1      -0.052  10.364  21.581  0.00  0.00    +0.000 A 
ATOM     34  C   UNL     1       0.498  11.044  20.486  0.00  0.00    +0.000 A 
ENDBRANCH  23  24
ENDBRANCH  20  23
ENDBRANCH   2  19
TORSDOF 9
ENDMDL
