MODEL 1
REMARK VINA RESULT:      -7.4      0.000      0.000
REMARK  Name = 
REMARK  6 active torsions:
REMARK  status: ('A' for Active; 'I' for Inactive)
REMARK    1  A    between atoms: C_1  and  N_2
REMARK    2  A    between atoms: C_4  and  C_5
REMARK    3  A    between atoms: C_5  and  N_6
REMARK    4  A    between atoms: C_14  and  O_15
REMARK    5  A    between atoms: O_15  and  C_16
REMARK    6  A    between atoms: C_16  and  C_17
REMARK                            x       y       z     vdW  Elec       q    Type
REMARK                         _______ _______ _______ _____ _____    ______ ____
ROOT
ATOM      1  N   UNL     1       2.898   4.688  17.395  0.00  0.00    +0.000 N 
ATOM      2  C   UNL     1       2.989   5.976  17.817  0.00  0.00    +0.000 C 
ATOM      3  O   UNL     1       2.107   6.551  18.450  0.00  0.00    +0.000 OA
ATOM      4  N   UNL     1       4.180   6.602  17.588  0.00  0.00    +0.000 N 
ATOM      5  C   UNL     1       5.280   6.136  16.863  0.00  0.00    +0.000 A 
ATOM      6  C   UNL     1       6.511   6.768  17.050  0.00  0.00    +0.000 A 
ATOM      7  N   UNL     1       7.652   6.357  16.444  0.00  0.00    +0.000 NA
ATOM      8  C   UNL     1       7.509   5.302  15.614  0.00  0.00    +0.000 A 
ATOM      9  C   UNL     1       6.282   4.702  15.377  0.00  0.00    +0.000 A 
ATOM     10  N   UNL     1       5.144   5.089  16.001  0.00  0.00    +0.000 NA
ATOM     11  H   UNL     1       3.562   4.437  16.670  0.00  0.00    +0.000 HD
ATOM     12  H   UNL     1       4.259   7.475  18.093  0.00  0.00    +0.000 HD
ENDROOT
BRANCH   1  13
ATOM     13  C   UNL     1       1.706   3.887  17.542  0.00  0.00    +0.000 C 
BRANCH  13  17
ATOM     14  C   UNL     1       1.277   2.623  22.276  0.00  0.00    +0.000 C 
ATOM     15  N   UNL     1       1.734   2.505  20.914  0.00  0.00    +0.000 N 
ATOM     16  C   UNL     1       1.013   3.119  19.835  0.00  0.00    +0.000 C 
ATOM     17  C   UNL     1       1.860   2.818  18.616  0.00  0.00    +0.000 C 
ATOM     18  C   UNL     1       3.284   2.653  19.153  0.00  0.00    +0.000 C 
ATOM     19  C   UNL     1       3.079   2.332  20.611  0.00  0.00    +0.000 C 
ATOM     20  O   UNL     1       3.965   2.031  21.396  0.00  0.00    +0.000 OA
ENDBRANCH  13  17
ENDBRANCH   1  13
BRANCH   9  21
ATOM     21  O   UNL     1       6.253   3.665  14.458  0.00  0.00    +0.000 OA
BRANCH  21  22
ATOM     22  C   UNL     1       5.174   3.773  13.516  0.00  0.00    +0.000 C 
BRANCH  22  23
ATOM     23  C   UNL     1       5.540   3.351  12.104  0.00  0.00    +0.000 C 
ATOM     24  F   UNL     1       5.696   2.016  11.980  0.00  0.00    +0.000 F 
ATOM     25  F   UNL     1       4.573   3.742  11.240  0.00  0.00    +0.000 F 
ATOM     26  F   UNL     1       6.690   3.931  11.694  0.00  0.00    +0.000 F 
ENDBRANCH  22  23
ENDBRANCH  21  22
ENDBRANCH   9  21
TORSDOF 5
ENDMDL
MODEL 2
REMARK VINA RESULT:      -7.4      5.463      7.879
REMARK  Name = 
REMARK  6 active torsions:
REMARK  status: ('A' for Active; 'I' for Inactive)
REMARK    1  A    between atoms: C_1  and  N_2
REMARK    2  A    between atoms: C_4  and  C_5
REMARK    3  A    between atoms: C_5  and  N_6
REMARK    4  A    between atoms: C_14  and  O_15
REMARK    5  A    between atoms: O_15  and  C_16
REMARK    6  A    between atoms: C_16  and  C_17
REMARK                            x       y       z     vdW  Elec       q    Type
REMARK                         _______ _______ _______ _____ _____    ______ ____
ROOT
ATOM      1  N   UNL     1       2.512   6.661  19.041  0.00  0.00    +0.000 N 
ATOM      2  C   UNL     1       2.244   6.131  20.263  0.00  0.00    +0.000 C 
ATOM      3  O   UNL     1       2.505   4.972  20.577  0.00  0.00    +0.000 OA
ATOM      4  N   UNL     1       1.746   6.992  21.197  0.00  0.00    +0.000 N 
ATOM      5  C   UNL     1       1.353   8.323  21.027  0.00  0.00    +0.000 A 
ATOM      6  C   UNL     1       1.213   9.122  22.164  0.00  0.00    +0.000 A 
ATOM      7  N   UNL     1       0.898  10.439  22.109  0.00  0.00    +0.000 NA
ATOM      8  C   UNL     1       0.695  10.924  20.865  0.00  0.00    +0.000 A 
ATOM      9  C   UNL     1       0.775  10.129  19.733  0.00  0.00    +0.000 A 
ATOM     10  N   UNL     1       1.119   8.819  19.780  0.00  0.00    +0.000 NA
ATOM     11  H   UNL     1       2.010   7.519  18.837  0.00  0.00    +0.000 HD
ATOM     12  H   UNL     1       1.754   6.598  22.128  0.00  0.00    +0.000 HD
ENDROOT
BRANCH   1  13
ATOM     13  C   UNL     1       3.026   5.887  17.936  0.00  0.00    +0.000 C 
BRANCH  13  17
ATOM     14  C   UNL     1       7.091   4.821  15.379  0.00  0.00    +0.000 C 
ATOM     15  N   UNL     1       6.324   5.334  16.486  0.00  0.00    +0.000 N 
ATOM     16  C   UNL     1       4.949   5.714  16.323  0.00  0.00    +0.000 C 
ATOM     17  C   UNL     1       4.516   6.115  17.718  0.00  0.00    +0.000 C 
ATOM     18  C   UNL     1       5.428   5.326  18.660  0.00  0.00    +0.000 C 
ATOM     19  C   UNL     1       6.615   4.981  17.798  0.00  0.00    +0.000 C 
ATOM     20  O   UNL     1       7.631   4.427  18.190  0.00  0.00    +0.000 OA
ENDBRANCH  13  17
ENDBRANCH   1  13
BRANCH   9  21
ATOM     21  O   UNL     1       0.487  10.729  18.518  0.00  0.00    +0.000 OA
BRANCH  21  22
ATOM     22  C   UNL     1      -0.862  11.213  18.431  0.00  0.00    +0.000 C 
BRANCH  22  23
ATOM     23  C   UNL     1      -1.756  10.396  17.515  0.00  0.00    +0.000 C 
ATOM     24  F   UNL     1      -2.850   9.916  18.143  0.00  0.00    +0.000 F 
ATOM     25  F   UNL     1      -2.170  11.157  16.474  0.00  0.00    +0.000 F 
ATOM     26  F   UNL     1      -1.095   9.339  16.990  0.00  0.00    +0.000 F 
ENDBRANCH  22  23
ENDBRANCH  21  22
ENDBRANCH   9  21
TORSDOF 5
ENDMDL
MODEL 3
REMARK VINA RESULT:      -7.4      1.074      1.332
REMARK  Name = 
REMARK  6 active torsions:
REMARK  status: ('A' for Active; 'I' for Inactive)
REMARK    1  A    between atoms: C_1  and  N_2
REMARK    2  A    between atoms: C_4  and  C_5
REMARK    3  A    between atoms: C_5  and  N_6
REMARK    4  A    between atoms: C_14  and  O_15
REMARK    5  A    between atoms: O_15  and  C_16
REMARK    6  A    between atoms: C_16  and  C_17
REMARK                            x       y       z     vdW  Elec       q    Type
REMARK                         _______ _______ _______ _____ _____    ______ ____
ROOT
ATOM      1  N   UNL     1       2.674   5.707  17.652  0.00  0.00    +0.000 N 
ATOM      2  C   UNL     1       3.124   6.878  18.173  0.00  0.00    +0.000 C 
ATOM      3  O   UNL     1       2.478   7.569  18.957  0.00  0.00    +0.000 OA
ATOM      4  N   UNL     1       4.406   7.224  17.858  0.00  0.00    +0.000 N 
ATOM      5  C   UNL     1       5.279   6.596  16.966  0.00  0.00    +0.000 A 
ATOM      6  C   UNL     1       6.642   6.889  17.057  0.00  0.00    +0.000 A 
ATOM      7  N   UNL     1       7.580   6.291  16.283  0.00  0.00    +0.000 NA
ATOM      8  C   UNL     1       7.098   5.404  15.385  0.00  0.00    +0.000 A 
ATOM      9  C   UNL     1       5.744   5.147  15.247  0.00  0.00    +0.000 A 
ATOM     10  N   UNL     1       4.804   5.720  16.037  0.00  0.00    +0.000 NA
ATOM     11  H   UNL     1       3.181   5.391  16.832  0.00  0.00    +0.000 HD
ATOM     12  H   UNL     1       4.749   7.988  18.425  0.00  0.00    +0.000 HD
ENDROOT
BRANCH   1  13
ATOM     13  C   UNL     1       1.339   5.203  17.870  0.00  0.00    +0.000 C 
BRANCH  13  17
ATOM     14  C   UNL     1       2.817   2.217  21.489  0.00  0.00    +0.000 C 
ATOM     15  N   UNL     1       2.294   2.559  20.190  0.00  0.00    +0.000 N 
ATOM     16  C   UNL     1       1.673   3.831  19.953  0.00  0.00    +0.000 C 
ATOM     17  C   UNL     1       1.344   3.805  18.475  0.00  0.00    +0.000 C 
ATOM     18  C   UNL     1       2.366   2.846  17.858  0.00  0.00    +0.000 C 
ATOM     19  C   UNL     1       2.819   2.010  19.027  0.00  0.00    +0.000 C 
ATOM     20  O   UNL     1       3.572   1.051  18.956  0.00  0.00    +0.000 OA
ENDBRANCH  13  17
ENDBRANCH   1  13
BRANCH   9  21
ATOM     21  O   UNL     1       5.368   4.262  14.249  0.00  0.00    +0.000 OA
BRANCH  21  22
ATOM     22  C   UNL     1       6.481   3.584  13.645  0.00  0.00    +0.000 C 
BRANCH  22  23
ATOM     23  C   UNL     1       6.422   3.524  12.129  0.00  0.00    +0.000 C 
ATOM     24  F   UNL     1       5.162   3.598  11.651  0.00  0.00    +0.000 F 
ATOM     25  F   UNL     1       7.133   4.547  11.598  0.00  0.00    +0.000 F 
ATOM     26  F   UNL     1       6.966   2.380  11.656  0.00  0.00    +0.000 F 
ENDBRANCH  22  23
ENDBRANCH  21  22
ENDBRANCH   9  21
TORSDOF 5
ENDMDL
MODEL 4
REMARK VINA RESULT:      -7.2      0.741      1.097
REMARK  Name = 
REMARK  6 active torsions:
REMARK  status: ('A' for Active; 'I' for Inactive)
REMARK    1  A    between atoms: C_1  and  N_2
REMARK    2  A    between atoms: C_4  and  C_5
REMARK    3  A    between atoms: C_5  and  N_6
REMARK    4  A    between atoms: C_14  and  O_15
REMARK    5  A    between atoms: O_15  and  C_16
REMARK    6  A    between atoms: C_16  and  C_17
REMARK                            x       y       z     vdW  Elec       q    Type
REMARK                         _______ _______ _______ _____ _____    ______ ____
ROOT
ATOM      1  N   UNL     1       2.756   5.360  17.709  0.00  0.00    +0.000 N 
ATOM      2  C   UNL     1       3.073   6.591  18.188  0.00  0.00    +0.000 C 
ATOM      3  O   UNL     1       2.359   7.229  18.958  0.00  0.00    +0.000 OA
ATOM      4  N   UNL     1       4.304   7.072  17.848  0.00  0.00    +0.000 N 
ATOM      5  C   UNL     1       5.236   6.520  16.965  0.00  0.00    +0.000 A 
ATOM      6  C   UNL     1       6.556   6.970  17.030  0.00  0.00    +0.000 A 
ATOM      7  N   UNL     1       7.551   6.460  16.264  0.00  0.00    +0.000 NA
ATOM      8  C   UNL     1       7.167   5.495  15.400  0.00  0.00    +0.000 A 
ATOM      9  C   UNL     1       5.850   5.080  15.286  0.00  0.00    +0.000 A 
ATOM     10  N   UNL     1       4.857   5.566  16.069  0.00  0.00    +0.000 NA
ATOM     11  H   UNL     1       3.289   5.078  16.894  0.00  0.00    +0.000 HD
ATOM     12  H   UNL     1       4.561   7.888  18.386  0.00  0.00    +0.000 HD
ENDROOT
BRANCH   1  13
ATOM     13  C   UNL     1       1.490   4.713  17.960  0.00  0.00    +0.000 C 
BRANCH  13  17
ATOM     14  C   UNL     1       1.229   2.515  22.353  0.00  0.00    +0.000 C 
ATOM     15  N   UNL     1       1.616   2.665  20.973  0.00  0.00    +0.000 N 
ATOM     16  C   UNL     1       0.873   3.512  20.082  0.00  0.00    +0.000 C 
ATOM     17  C   UNL     1       1.648   3.441  18.783  0.00  0.00    +0.000 C 
ATOM     18  C   UNL     1       3.086   3.122  19.196  0.00  0.00    +0.000 C 
ATOM     19  C   UNL     1       2.936   2.513  20.567  0.00  0.00    +0.000 C 
ATOM     20  O   UNL     1       3.843   2.028  21.224  0.00  0.00    +0.000 OA
ENDBRANCH  13  17
ENDBRANCH   1  13
BRANCH   9  21
ATOM     21  O   UNL     1       5.570   4.125  14.321  0.00  0.00    +0.000 OA
BRANCH  21  22
ATOM     22  C   UNL     1       6.734   3.688  13.602  0.00  0.00    +0.000 C 
BRANCH  22  23
ATOM     23  C   UNL     1       6.546   3.622  12.098  0.00  0.00    +0.000 C 
ATOM     24  F   UNL     1       7.158   4.633  11.447  0.00  0.00    +0.000 F 
ATOM     25  F   UNL     1       7.042   2.455  11.620  0.00  0.00    +0.000 F 
ATOM     26  F   UNL     1       5.237   3.659  11.759  0.00  0.00    +0.000 F 
ENDBRANCH  22  23
ENDBRANCH  21  22
ENDBRANCH   9  21
TORSDOF 5
ENDMDL
MODEL 5
REMARK VINA RESULT:      -7.1      5.908      8.217
REMARK  Name = 
REMARK  6 active torsions:
REMARK  status: ('A' for Active; 'I' for Inactive)
REMARK    1  A    between atoms: C_1  and  N_2
REMARK    2  A    between atoms: C_4  and  C_5
REMARK    3  A    between atoms: C_5  and  N_6
REMARK    4  A    between atoms: C_14  and  O_15
REMARK    5  A    between atoms: O_15  and  C_16
REMARK    6  A    between atoms: C_16  and  C_17
REMARK                            x       y       z     vdW  Elec       q    Type
REMARK                         _______ _______ _______ _____ _____    ______ ____
ROOT
ATOM      1  N   UNL     1       2.546   6.598  19.050  0.00  0.00    +0.000 N 
ATOM      2  C   UNL     1       2.276   6.084  20.279  0.00  0.00    +0.000 C 
ATOM      3  O   UNL     1       2.538   4.930  20.608  0.00  0.00    +0.000 OA
ATOM      4  N   UNL     1       1.775   6.957  21.200  0.00  0.00    +0.000 N 
ATOM      5  C   UNL     1       1.381   8.285  21.012  0.00  0.00    +0.000 A 
ATOM      6  C   UNL     1       1.237   9.099  22.137  0.00  0.00    +0.000 A 
ATOM      7  N   UNL     1       0.920  10.414  22.064  0.00  0.00    +0.000 NA
ATOM      8  C   UNL     1       0.718  10.883  20.813  0.00  0.00    +0.000 A 
ATOM      9  C   UNL     1       0.802  10.072  19.692  0.00  0.00    +0.000 A 
ATOM     10  N   UNL     1       1.147   8.764  19.757  0.00  0.00    +0.000 NA
ATOM     11  H   UNL     1       2.043   7.452  18.834  0.00  0.00    +0.000 HD
ATOM     12  H   UNL     1       1.783   6.576  22.136  0.00  0.00    +0.000 HD
ENDROOT
BRANCH   1  13
ATOM     13  C   UNL     1       3.063   5.810  17.957  0.00  0.00    +0.000 C 
BRANCH  13  17
ATOM     14  C   UNL     1       7.112   4.792  15.355  0.00  0.00    +0.000 C 
ATOM     15  N   UNL     1       6.351   5.302  16.468  0.00  0.00    +0.000 N 
ATOM     16  C   UNL     1       4.967   5.656  16.320  0.00  0.00    +0.000 C 
ATOM     17  C   UNL     1       4.545   6.063  17.717  0.00  0.00    +0.000 C 
ATOM     18  C   UNL     1       5.484   5.298  18.653  0.00  0.00    +0.000 C 
ATOM     19  C   UNL     1       6.666   4.966  17.779  0.00  0.00    +0.000 C 
ATOM     20  O   UNL     1       7.696   4.434  18.162  0.00  0.00    +0.000 OA
ENDBRANCH  13  17
ENDBRANCH   1  13
BRANCH   9  21
ATOM     21  O   UNL     1       0.515  10.656  18.468  0.00  0.00    +0.000 OA
BRANCH  21  22
ATOM     22  C   UNL     1      -0.849  10.471  18.058  0.00  0.00    +0.000 C 
BRANCH  22  23
ATOM     23  C   UNL     1      -1.677  11.743  18.069  0.00  0.00    +0.000 C 
ATOM     24  F   UNL     1      -2.685  11.720  17.172  0.00  0.00    +0.000 F 
ATOM     25  F   UNL     1      -2.214  11.935  19.298  0.00  0.00    +0.000 F 
ATOM     26  F   UNL     1      -0.921  12.831  17.797  0.00  0.00    +0.000 F 
ENDBRANCH  22  23
ENDBRANCH  21  22
ENDBRANCH   9  21
TORSDOF 5
ENDMDL
MODEL 6
REMARK VINA RESULT:      -7.0      5.734      8.015
REMARK  Name = 
REMARK  6 active torsions:
REMARK  status: ('A' for Active; 'I' for Inactive)
REMARK    1  A    between atoms: C_1  and  N_2
REMARK    2  A    between atoms: C_4  and  C_5
REMARK    3  A    between atoms: C_5  and  N_6
REMARK    4  A    between atoms: C_14  and  O_15
REMARK    5  A    between atoms: O_15  and  C_16
REMARK    6  A    between atoms: C_16  and  C_17
REMARK                            x       y       z     vdW  Elec       q    Type
REMARK                         _______ _______ _______ _____ _____    ______ ____
ROOT
ATOM      1  N   UNL     1       2.486   6.636  19.092  0.00  0.00    +0.000 N 
ATOM      2  C   UNL     1       2.092   6.076  20.265  0.00  0.00    +0.000 C 
ATOM      3  O   UNL     1       2.249   4.890  20.542  0.00  0.00    +0.000 OA
ATOM      4  N   UNL     1       1.586   6.931  21.201  0.00  0.00    +0.000 N 
ATOM      5  C   UNL     1       1.299   8.292  21.066  0.00  0.00    +0.000 A 
ATOM      6  C   UNL     1       1.129   9.051  22.226  0.00  0.00    +0.000 A 
ATOM      7  N   UNL     1       0.909  10.388  22.210  0.00  0.00    +0.000 NA
ATOM      8  C   UNL     1       0.833  10.939  20.979  0.00  0.00    +0.000 A 
ATOM      9  C   UNL     1       0.943  10.187  19.820  0.00  0.00    +0.000 A 
ATOM     10  N   UNL     1       1.192   8.856  19.829  0.00  0.00    +0.000 NA
ATOM     11  H   UNL     1       2.060   7.535  18.893  0.00  0.00    +0.000 HD
ATOM     12  H   UNL     1       1.498   6.499  22.111  0.00  0.00    +0.000 HD
ENDROOT
BRANCH   1  13
ATOM     13  C   UNL     1       3.027   5.874  17.991  0.00  0.00    +0.000 C 
BRANCH  13  17
ATOM     14  C   UNL     1       7.158   4.815  15.540  0.00  0.00    +0.000 C 
ATOM     15  N   UNL     1       6.362   5.331  16.625  0.00  0.00    +0.000 N 
ATOM     16  C   UNL     1       4.989   5.701  16.427  0.00  0.00    +0.000 C 
ATOM     17  C   UNL     1       4.520   6.110  17.807  0.00  0.00    +0.000 C 
ATOM     18  C   UNL     1       5.414   5.333  18.777  0.00  0.00    +0.000 C 
ATOM     19  C   UNL     1       6.624   4.989  17.946  0.00  0.00    +0.000 C 
ATOM     20  O   UNL     1       7.633   4.444  18.366  0.00  0.00    +0.000 OA
ENDBRANCH  13  17
ENDBRANCH   1  13
BRANCH   9  21
ATOM     21  O   UNL     1       0.788  10.857  18.616  0.00  0.00    +0.000 OA
BRANCH  21  22
ATOM     22  C   UNL     1       0.880  12.284  18.746  0.00  0.00    +0.000 C 
BRANCH  22  23
ATOM     23  C   UNL     1       2.252  12.848  18.425  0.00  0.00    +0.000 C 
ATOM     24  F   UNL     1       2.198  13.947  17.644  0.00  0.00    +0.000 F 
ATOM     25  F   UNL     1       2.896  13.180  19.571  0.00  0.00    +0.000 F 
ATOM     26  F   UNL     1       3.027  11.940  17.790  0.00  0.00    +0.000 F 
ENDBRANCH  22  23
ENDBRANCH  21  22
ENDBRANCH   9  21
TORSDOF 5
ENDMDL
MODEL 7
REMARK VINA RESULT:      -7.0      5.365      7.987
REMARK  Name = 
REMARK  6 active torsions:
REMARK  status: ('A' for Active; 'I' for Inactive)
REMARK    1  A    between atoms: C_1  and  N_2
REMARK    2  A    between atoms: C_4  and  C_5
REMARK    3  A    between atoms: C_5  and  N_6
REMARK    4  A    between atoms: C_14  and  O_15
REMARK    5  A    between atoms: O_15  and  C_16
REMARK    6  A    between atoms: C_16  and  C_17
REMARK                            x       y       z     vdW  Elec       q    Type
REMARK                         _______ _______ _______ _____ _____    ______ ____
ROOT
ATOM      1  N   UNL     1       2.512   6.573  18.864  0.00  0.00    +0.000 N 
ATOM      2  C   UNL     1       2.233   6.000  20.064  0.00  0.00    +0.000 C 
ATOM      3  O   UNL     1       2.461   4.822  20.327  0.00  0.00    +0.000 OA
ATOM      4  N   UNL     1       1.762   6.835  21.035  0.00  0.00    +0.000 N 
ATOM      5  C   UNL     1       1.408   8.182  20.924  0.00  0.00    +0.000 A 
ATOM      6  C   UNL     1       1.294   8.935  22.094  0.00  0.00    +0.000 A 
ATOM      7  N   UNL     1       1.016  10.262  22.095  0.00  0.00    +0.000 NA
ATOM      8  C   UNL     1       0.823  10.806  20.874  0.00  0.00    +0.000 A 
ATOM      9  C   UNL     1       0.877  10.057  19.709  0.00  0.00    +0.000 A 
ATOM     10  N   UNL     1       1.183   8.737  19.699  0.00  0.00    +0.000 NA
ATOM     11  H   UNL     1       2.034   7.452  18.699  0.00  0.00    +0.000 HD
ATOM     12  H   UNL     1       1.763   6.402  21.949  0.00  0.00    +0.000 HD
ENDROOT
BRANCH   1  13
ATOM     13  C   UNL     1       3.001   5.832  17.725  0.00  0.00    +0.000 C 
BRANCH  13  17
ATOM     14  C   UNL     1       7.499   7.795  17.393  0.00  0.00    +0.000 C 
ATOM     15  N   UNL     1       6.517   6.740  17.413  0.00  0.00    +0.000 N 
ATOM     16  C   UNL     1       5.243   6.925  18.050  0.00  0.00    +0.000 C 
ATOM     17  C   UNL     1       4.509   5.629  17.776  0.00  0.00    +0.000 C 
ATOM     18  C   UNL     1       5.125   5.090  16.482  0.00  0.00    +0.000 C 
ATOM     19  C   UNL     1       6.465   5.777  16.413  0.00  0.00    +0.000 C 
ATOM     20  O   UNL     1       7.325   5.556  15.575  0.00  0.00    +0.000 OA
ENDBRANCH  13  17
ENDBRANCH   1  13
BRANCH   9  21
ATOM     21  O   UNL     1       0.603  10.716  18.521  0.00  0.00    +0.000 OA
BRANCH  21  22
ATOM     22  C   UNL     1      -0.736  11.230  18.456  0.00  0.00    +0.000 C 
BRANCH  22  23
ATOM     23  C   UNL     1      -1.669  10.420  17.573  0.00  0.00    +0.000 C 
ATOM     24  F   UNL     1      -2.283  11.169  16.633  0.00  0.00    +0.000 F 
ATOM     25  F   UNL     1      -0.976   9.442  16.943  0.00  0.00    +0.000 F 
ATOM     26  F   UNL     1      -2.635   9.812  18.298  0.00  0.00    +0.000 F 
ENDBRANCH  22  23
ENDBRANCH  21  22
ENDBRANCH   9  21
TORSDOF 5
ENDMDL
MODEL 8
REMARK VINA RESULT:      -6.9      3.645      5.353
REMARK  Name = 
REMARK  6 active torsions:
REMARK  status: ('A' for Active; 'I' for Inactive)
REMARK    1  A    between atoms: C_1  and  N_2
REMARK    2  A    between atoms: C_4  and  C_5
REMARK    3  A    between atoms: C_5  and  N_6
REMARK    4  A    between atoms: C_14  and  O_15
REMARK    5  A    between atoms: O_15  and  C_16
REMARK    6  A    between atoms: C_16  and  C_17
REMARK                            x       y       z     vdW  Elec       q    Type
REMARK                         _______ _______ _______ _____ _____    ______ ____
ROOT
ATOM      1  N   UNL     1       3.642   4.855  18.129  0.00  0.00    +0.000 N 
ATOM      2  C   UNL     1       3.314   3.642  17.614  0.00  0.00    +0.000 C 
ATOM      3  O   UNL     1       2.409   2.937  18.053  0.00  0.00    +0.000 OA
ATOM      4  N   UNL     1       3.985   3.264  16.488  0.00  0.00    +0.000 N 
ATOM      5  C   UNL     1       5.059   3.903  15.863  0.00  0.00    +0.000 A 
ATOM      6  C   UNL     1       5.362   3.553  14.545  0.00  0.00    +0.000 A 
ATOM      7  N   UNL     1       6.342   4.153  13.826  0.00  0.00    +0.000 NA
ATOM      8  C   UNL     1       7.035   5.104  14.490  0.00  0.00    +0.000 A 
ATOM      9  C   UNL     1       6.781   5.420  15.816  0.00  0.00    +0.000 A 
ATOM     10  N   UNL     1       5.785   4.844  16.530  0.00  0.00    +0.000 NA
ATOM     11  H   UNL     1       4.558   5.194  17.852  0.00  0.00    +0.000 HD
ATOM     12  H   UNL     1       3.566   2.459  16.042  0.00  0.00    +0.000 HD
ENDROOT
BRANCH   1  13
ATOM     13  C   UNL     1       3.042   5.399  19.324  0.00  0.00    +0.000 C 
BRANCH  13  17
ATOM     14  C   UNL     1       0.529   9.589  19.897  0.00  0.00    +0.000 C 
ATOM     15  N   UNL     1       1.627   8.755  19.478  0.00  0.00    +0.000 N 
ATOM     16  C   UNL     1       1.877   7.488  20.105  0.00  0.00    +0.000 C 
ATOM     17  C   UNL     1       3.047   6.922  19.328  0.00  0.00    +0.000 C 
ATOM     18  C   UNL     1       2.951   7.565  17.942  0.00  0.00    +0.000 C 
ATOM     19  C   UNL     1       2.121   8.800  18.180  0.00  0.00    +0.000 C 
ATOM     20  O   UNL     1       1.880   9.657  17.344  0.00  0.00    +0.000 OA
ENDBRANCH  13  17
ENDBRANCH   1  13
BRANCH   9  21
ATOM     21  O   UNL     1       7.600   6.371  16.405  0.00  0.00    +0.000 OA
BRANCH  21  22
ATOM     22  C   UNL     1       7.136   6.796  17.696  0.00  0.00    +0.000 C 
BRANCH  22  23
ATOM     23  C   UNL     1       7.753   6.038  18.857  0.00  0.00    +0.000 C 
ATOM     24  F   UNL     1       8.718   6.740  19.487  0.00  0.00    +0.000 F 
ATOM     25  F   UNL     1       6.799   5.727  19.767  0.00  0.00    +0.000 F 
ATOM     26  F   UNL     1       8.303   4.870  18.452  0.00  0.00    +0.000 F 
ENDBRANCH  22  23
ENDBRANCH  21  22
ENDBRANCH   9  21
TORSDOF 5
ENDMDL
MODEL 9
REMARK VINA RESULT:      -6.9      3.569      5.227
REMARK  Name = 
REMARK  6 active torsions:
REMARK  status: ('A' for Active; 'I' for Inactive)
REMARK    1  A    between atoms: C_1  and  N_2
REMARK    2  A    between atoms: C_4  and  C_5
REMARK    3  A    between atoms: C_5  and  N_6
REMARK    4  A    between atoms: C_14  and  O_15
REMARK    5  A    between atoms: O_15  and  C_16
REMARK    6  A    between atoms: C_16  and  C_17
REMARK                            x       y       z     vdW  Elec       q    Type
REMARK                         _______ _______ _______ _____ _____    ______ ____
ROOT
ATOM      1  N   UNL     1       3.242   5.070  18.521  0.00  0.00    +0.000 N 
ATOM      2  C   UNL     1       2.616   4.225  17.661  0.00  0.00    +0.000 C 
ATOM      3  O   UNL     1       1.430   3.921  17.745  0.00  0.00    +0.000 OA
ATOM      4  N   UNL     1       3.357   3.786  16.602  0.00  0.00    +0.000 N 
ATOM      5  C   UNL     1       4.717   3.989  16.352  0.00  0.00    +0.000 A 
ATOM      6  C   UNL     1       5.192   3.768  15.058  0.00  0.00    +0.000 A 
ATOM      7  N   UNL     1       6.478   3.993  14.692  0.00  0.00    +0.000 NA
ATOM      8  C   UNL     1       7.286   4.422  15.686  0.00  0.00    +0.000 A 
ATOM      9  C   UNL     1       6.840   4.591  16.987  0.00  0.00    +0.000 A 
ATOM     10  N   UNL     1       5.549   4.396  17.352  0.00  0.00    +0.000 NA
ATOM     11  H   UNL     1       4.255   5.018  18.497  0.00  0.00    +0.000 HD
ATOM     12  H   UNL     1       2.792   3.330  15.899  0.00  0.00    +0.000 HD
ENDROOT
BRANCH   1  13
ATOM     13  C   UNL     1       2.610   5.614  19.700  0.00  0.00    +0.000 C 
BRANCH  13  17
ATOM     14  C   UNL     1       0.145   9.789  20.527  0.00  0.00    +0.000 C 
ATOM     15  N   UNL     1       1.198   8.961  19.996  0.00  0.00    +0.000 N 
ATOM     16  C   UNL     1       1.521   7.697  20.596  0.00  0.00    +0.000 C 
ATOM     17  C   UNL     1       2.606   7.137  19.700  0.00  0.00    +0.000 C 
ATOM     18  C   UNL     1       2.359   7.774  18.331  0.00  0.00    +0.000 C 
ATOM     19  C   UNL     1       1.551   9.005  18.653  0.00  0.00    +0.000 C 
ATOM     20  O   UNL     1       1.217   9.859  17.845  0.00  0.00    +0.000 OA
ENDBRANCH  13  17
ENDBRANCH   1  13
BRANCH   9  21
ATOM     21  O   UNL     1       7.778   4.979  17.931  0.00  0.00    +0.000 OA
BRANCH  21  22
ATOM     22  C   UNL     1       7.415   6.179  18.630  0.00  0.00    +0.000 C 
BRANCH  22  23
ATOM     23  C   UNL     1       7.509   7.439  17.788  0.00  0.00    +0.000 C 
ATOM     24  F   UNL     1       8.164   7.245  16.625  0.00  0.00    +0.000 F 
ATOM     25  F   UNL     1       6.266   7.895  17.499  0.00  0.00    +0.000 F 
ATOM     26  F   UNL     1       8.146   8.432  18.449  0.00  0.00    +0.000 F 
ENDBRANCH  22  23
ENDBRANCH  21  22
ENDBRANCH   9  21
TORSDOF 5
ENDMDL
