MODEL 1
REMARK VINA RESULT:      -7.9      0.000      0.000
REMARK  Name = 
REMARK  6 active torsions:
REMARK  status: ('A' for Active; 'I' for Inactive)
REMARK    1  A    between atoms: C_1  and  C_2
REMARK    2  A    between atoms: C_2  and  C_3
REMARK    3  A    between atoms: C_19  and  C_20
REMARK    4  A    between atoms: N_22  and  C_23
REMARK    5  A    between atoms: C_26  and  C_27
REMARK    6  A    between atoms: C_27  and  O_28
REMARK                            x       y       z     vdW  Elec       q    Type
REMARK                         _______ _______ _______ _____ _____    ______ ____
ROOT
ATOM      1  C   UNL     1      -0.362  11.221  18.773  0.00  0.00    +0.000 C 
ATOM      2  C   UNL     1       1.013  11.233  19.480  0.00  0.00    +0.000 C 
ATOM      3  C   UNL     1       2.036  11.855  18.510  0.00  0.00    +0.000 C 
ATOM      4  C   UNL     1       0.887  12.144  20.738  0.00  0.00    +0.000 C 
ATOM      5  N   UNL     1       0.030  11.440  21.686  0.00  0.00    +0.000 N 
ATOM      6  C   UNL     1      -0.905  12.148  22.420  0.00  0.00    +0.000 A 
ATOM      7  C   UNL     1      -2.050  11.492  22.857  0.00  0.00    +0.000 A 
ATOM      8  C   UNL     1      -3.040  12.195  23.526  0.00  0.00    +0.000 A 
ATOM      9  C   UNL     1      -2.871  13.556  23.765  0.00  0.00    +0.000 A 
ATOM     10  C   UNL     1      -3.862  14.281  24.445  0.00  0.00    +0.000 A 
ATOM     11  C   UNL     1      -3.696  15.639  24.694  0.00  0.00    +0.000 A 
ATOM     12  C   UNL     1      -2.539  16.273  24.261  0.00  0.00    +0.000 A 
ATOM     13  C   UNL     1      -1.555  15.546  23.575  0.00  0.00    +0.000 A 
ATOM     14 CL   UNL     1      -0.140  16.412  23.072  0.00  0.00    +0.000 Cl
ATOM     15  C   UNL     1      -1.688  14.175  23.304  0.00  0.00    +0.000 A 
ATOM     16  N   UNL     1      -0.744  13.468  22.631  0.00  0.00    +0.000 NA
ATOM     17  C   UNL     1       0.612  10.236  22.259  0.00  0.00    +0.000 C 
ATOM     18  C   UNL     1       0.742   9.222  21.130  0.00  0.00    +0.000 C 
ATOM     19  C   UNL     1       1.514   9.814  19.932  0.00  0.00    +0.000 C 
ENDROOT
BRANCH  19  20
ATOM     20  C   UNL     1       1.612   8.791  18.799  0.00  0.00    +0.000 C 
ATOM     21  O   UNL     1       0.976   8.934  17.758  0.00  0.00    +0.000 OA
ATOM     22  N   UNL     1       2.423   7.707  19.034  0.00  0.00    +0.000 N 
ATOM     23  H   UNL     1       3.023   7.711  19.847  0.00  0.00    +0.000 HD
BRANCH  22  24
ATOM     24  C   UNL     1       2.589   6.620  18.081  0.00  0.00    +0.000 C 
ATOM     25  C   UNL     1       4.075   6.391  17.782  0.00  0.00    +0.000 C 
ATOM     26  C   UNL     1       4.295   5.165  16.895  0.00  0.00    +0.000 C 
ATOM     27  C   UNL     1       3.641   3.893  17.462  0.00  0.00    +0.000 C 
ATOM     28  C   UNL     1       2.150   4.146  17.721  0.00  0.00    +0.000 C 
ATOM     29  C   UNL     1       1.911   5.355  18.623  0.00  0.00    +0.000 C 
BRANCH  27  30
ATOM     30  C   UNL     1       4.349   3.373  18.723  0.00  0.00    +0.000 C 
BRANCH  30  31
ATOM     31  O   UNL     1       5.758   3.491  18.597  0.00  0.00    +0.000 OA
ATOM     32  H   UNL     1       6.161   2.767  19.106  0.00  0.00    +0.000 HD
ENDBRANCH  30  31
ENDBRANCH  27  30
ENDBRANCH  22  24
ENDBRANCH  19  20
TORSDOF 4
ENDMDL
MODEL 2
REMARK VINA RESULT:      -7.6      1.110      1.217
REMARK  Name = 
REMARK  6 active torsions:
REMARK  status: ('A' for Active; 'I' for Inactive)
REMARK    1  A    between atoms: C_1  and  C_2
REMARK    2  A    between atoms: C_2  and  C_3
REMARK    3  A    between atoms: C_19  and  C_20
REMARK    4  A    between atoms: N_22  and  C_23
REMARK    5  A    between atoms: C_26  and  C_27
REMARK    6  A    between atoms: C_27  and  O_28
REMARK                            x       y       z     vdW  Elec       q    Type
REMARK                         _______ _______ _______ _____ _____    ______ ____
ROOT
ATOM      1  C   UNL     1      -0.282  10.091  18.754  0.00  0.00    +0.000 C 
ATOM      2  C   UNL     1       1.145  10.354  19.287  0.00  0.00    +0.000 C 
ATOM      3  C   UNL     1       2.010  10.833  18.104  0.00  0.00    +0.000 C 
ATOM      4  C   UNL     1       1.050  11.497  20.342  0.00  0.00    +0.000 C 
ATOM      5  N   UNL     1       0.356  10.947  21.501  0.00  0.00    +0.000 N 
ATOM      6  C   UNL     1      -0.570  11.721  22.176  0.00  0.00    +0.000 A 
ATOM      7  C   UNL     1      -1.602  11.088  22.860  0.00  0.00    +0.000 A 
ATOM      8  C   UNL     1      -2.588  11.841  23.479  0.00  0.00    +0.000 A 
ATOM      9  C   UNL     1      -2.529  13.231  23.419  0.00  0.00    +0.000 A 
ATOM     10  C   UNL     1      -3.518  14.006  24.043  0.00  0.00    +0.000 A 
ATOM     11  C   UNL     1      -3.461  15.395  23.994  0.00  0.00    +0.000 A 
ATOM     12  C   UNL     1      -2.414  16.008  23.317  0.00  0.00    +0.000 A 
ATOM     13  C   UNL     1      -1.433  15.228  22.687  0.00  0.00    +0.000 A 
ATOM     14 CL   UNL     1      -0.161  16.073  21.866  0.00  0.00    +0.000 Cl
ATOM     15  C   UNL     1      -1.459  13.825  22.714  0.00  0.00    +0.000 A 
ATOM     16  N   UNL     1      -0.518  13.064  22.097  0.00  0.00    +0.000 NA
ATOM     17  C   UNL     1       1.102   9.937  22.237  0.00  0.00    +0.000 C 
ATOM     18  C   UNL     1       1.222   8.721  21.328  0.00  0.00    +0.000 C 
ATOM     19  C   UNL     1       1.820   9.103  19.958  0.00  0.00    +0.000 C 
ENDROOT
BRANCH  19  20
ATOM     20  C   UNL     1       1.910   7.875  19.050  0.00  0.00    +0.000 C 
ATOM     21  O   UNL     1       1.756   7.971  17.836  0.00  0.00    +0.000 OA
ATOM     22  N   UNL     1       2.141   6.676  19.680  0.00  0.00    +0.000 N 
ATOM     23  H   UNL     1       2.393   6.677  20.659  0.00  0.00    +0.000 HD
BRANCH  22  24
ATOM     24  C   UNL     1       2.207   5.407  18.970  0.00  0.00    +0.000 C 
ATOM     25  C   UNL     1       3.660   5.053  18.638  0.00  0.00    +0.000 C 
ATOM     26  C   UNL     1       3.780   3.660  18.019  0.00  0.00    +0.000 C 
ATOM     27  C   UNL     1       3.124   2.565  18.880  0.00  0.00    +0.000 C 
ATOM     28  C   UNL     1       1.664   2.936  19.168  0.00  0.00    +0.000 C 
ATOM     29  C   UNL     1       1.526   4.317  19.807  0.00  0.00    +0.000 C 
BRANCH  27  30
ATOM     30  C   UNL     1       3.899   2.288  20.178  0.00  0.00    +0.000 C 
BRANCH  30  31
ATOM     31  O   UNL     1       5.197   1.786  19.895  0.00  0.00    +0.000 OA
ATOM     32  H   UNL     1       5.209   1.511  18.961  0.00  0.00    +0.000 HD
ENDBRANCH  30  31
ENDBRANCH  27  30
ENDBRANCH  22  24
ENDBRANCH  19  20
TORSDOF 4
ENDMDL
MODEL 3
REMARK VINA RESULT:      -7.1      1.737      2.671
REMARK  Name = 
REMARK  6 active torsions:
REMARK  status: ('A' for Active; 'I' for Inactive)
REMARK    1  A    between atoms: C_1  and  C_2
REMARK    2  A    between atoms: C_2  and  C_3
REMARK    3  A    between atoms: C_19  and  C_20
REMARK    4  A    between atoms: N_22  and  C_23
REMARK    5  A    between atoms: C_26  and  C_27
REMARK    6  A    between atoms: C_27  and  O_28
REMARK                            x       y       z     vdW  Elec       q    Type
REMARK                         _______ _______ _______ _____ _____    ______ ____
ROOT
ATOM      1  C   UNL     1       1.726   9.444  21.691  0.00  0.00    +0.000 C 
ATOM      2  C   UNL     1       0.517   9.156  20.772  0.00  0.00    +0.000 C 
ATOM      3  C   UNL     1       0.023   7.728  21.076  0.00  0.00    +0.000 C 
ATOM      4  C   UNL     1      -0.606  10.171  21.142  0.00  0.00    +0.000 C 
ATOM      5  N   UNL     1      -0.153  11.484  20.697  0.00  0.00    +0.000 N 
ATOM      6  C   UNL     1      -0.390  12.595  21.487  0.00  0.00    +0.000 A 
ATOM      7  C   UNL     1       0.474  13.679  21.395  0.00  0.00    +0.000 A 
ATOM      8  C   UNL     1       0.306  14.773  22.231  0.00  0.00    +0.000 A 
ATOM      9  C   UNL     1      -0.739  14.779  23.151  0.00  0.00    +0.000 A 
ATOM     10  C   UNL     1      -0.924  15.880  24.001  0.00  0.00    +0.000 A 
ATOM     11  C   UNL     1      -1.970  15.896  24.916  0.00  0.00    +0.000 A 
ATOM     12  C   UNL     1      -2.831  14.807  24.982  0.00  0.00    +0.000 A 
ATOM     13  C   UNL     1      -2.638  13.706  24.136  0.00  0.00    +0.000 A 
ATOM     14 CL   UNL     1      -3.759  12.392  24.282  0.00  0.00    +0.000 Cl
ATOM     15  C   UNL     1      -1.591  13.654  23.202  0.00  0.00    +0.000 A 
ATOM     16  N   UNL     1      -1.391  12.585  22.387  0.00  0.00    +0.000 NA
ATOM     17  C   UNL     1      -0.080  11.649  19.253  0.00  0.00    +0.000 C 
ATOM     18  C   UNL     1       1.036  10.739  18.756  0.00  0.00    +0.000 C 
ATOM     19  C   UNL     1       0.831   9.288  19.238  0.00  0.00    +0.000 C 
ENDROOT
BRANCH  19  20
ATOM     20  C   UNL     1       1.974   8.394  18.752  0.00  0.00    +0.000 C 
ATOM     21  O   UNL     1       2.961   8.871  18.198  0.00  0.00    +0.000 OA
ATOM     22  N   UNL     1       1.807   7.044  18.948  0.00  0.00    +0.000 N 
ATOM     23  H   UNL     1       1.044   6.723  19.526  0.00  0.00    +0.000 HD
BRANCH  22  24
ATOM     24  C   UNL     1       2.776   6.053  18.501  0.00  0.00    +0.000 C 
ATOM     25  C   UNL     1       3.615   5.553  19.683  0.00  0.00    +0.000 C 
ATOM     26  C   UNL     1       4.545   4.409  19.276  0.00  0.00    +0.000 C 
ATOM     27  C   UNL     1       3.800   3.248  18.593  0.00  0.00    +0.000 C 
ATOM     28  C   UNL     1       2.996   3.778  17.399  0.00  0.00    +0.000 C 
ATOM     29  C   UNL     1       2.045   4.908  17.789  0.00  0.00    +0.000 C 
BRANCH  27  30
ATOM     30  C   UNL     1       2.908   2.461  19.566  0.00  0.00    +0.000 C 
BRANCH  30  31
ATOM     31  O   UNL     1       2.112   1.514  18.869  0.00  0.00    +0.000 OA
ATOM     32  H   UNL     1       2.617   0.683  18.822  0.00  0.00    +0.000 HD
ENDBRANCH  30  31
ENDBRANCH  27  30
ENDBRANCH  22  24
ENDBRANCH  19  20
TORSDOF 4
ENDMDL
MODEL 4
REMARK VINA RESULT:      -7.1      1.647      1.806
REMARK  Name = 
REMARK  6 active torsions:
REMARK  status: ('A' for Active; 'I' for Inactive)
REMARK    1  A    between atoms: C_1  and  C_2
REMARK    2  A    between atoms: C_2  and  C_3
REMARK    3  A    between atoms: C_19  and  C_20
REMARK    4  A    between atoms: N_22  and  C_23
REMARK    5  A    between atoms: C_26  and  C_27
REMARK    6  A    between atoms: C_27  and  O_28
REMARK                            x       y       z     vdW  Elec       q    Type
REMARK                         _______ _______ _______ _____ _____    ______ ____
ROOT
ATOM      1  C   UNL     1      -0.491  10.147  19.022  0.00  0.00    +0.000 C 
ATOM      2  C   UNL     1       0.901  10.542  19.566  0.00  0.00    +0.000 C 
ATOM      3  C   UNL     1       1.770  10.975  18.370  0.00  0.00    +0.000 C 
ATOM      4  C   UNL     1       0.704  11.760  20.519  0.00  0.00    +0.000 C 
ATOM      5  N   UNL     1       0.010  11.265  21.702  0.00  0.00    +0.000 N 
ATOM      6  C   UNL     1      -0.981  12.032  22.286  0.00  0.00    +0.000 A 
ATOM      7  C   UNL     1      -1.993  11.394  22.995  0.00  0.00    +0.000 A 
ATOM      8  C   UNL     1      -3.041  12.132  23.524  0.00  0.00    +0.000 A 
ATOM      9  C   UNL     1      -3.064  13.513  23.348  0.00  0.00    +0.000 A 
ATOM     10  C   UNL     1      -4.117  14.274  23.880  0.00  0.00    +0.000 A 
ATOM     11  C   UNL     1      -4.142  15.654  23.716  0.00  0.00    +0.000 A 
ATOM     12  C   UNL     1      -3.114  16.274  23.016  0.00  0.00    +0.000 A 
ATOM     13  C   UNL     1      -2.069  15.508  22.479  0.00  0.00    +0.000 A 
ATOM     14 CL   UNL     1      -0.826  16.361  21.623  0.00  0.00    +0.000 Cl
ATOM     15  C   UNL     1      -2.011  14.113  22.623  0.00  0.00    +0.000 A 
ATOM     16  N   UNL     1      -1.007  13.365  22.096  0.00  0.00    +0.000 NA
ATOM     17  C   UNL     1       0.793  10.368  22.539  0.00  0.00    +0.000 C 
ATOM     18  C   UNL     1       1.014   9.090  21.739  0.00  0.00    +0.000 C 
ATOM     19  C   UNL     1       1.628   9.395  20.357  0.00  0.00    +0.000 C 
ENDROOT
BRANCH  19  20
ATOM     20  C   UNL     1       1.820   8.105  19.558  0.00  0.00    +0.000 C 
ATOM     21  O   UNL     1       1.878   8.120  18.331  0.00  0.00    +0.000 OA
ATOM     22  N   UNL     1       1.891   6.947  20.293  0.00  0.00    +0.000 N 
ATOM     23  H   UNL     1       1.974   7.008  21.298  0.00  0.00    +0.000 HD
BRANCH  22  24
ATOM     24  C   UNL     1       2.023   5.630  19.687  0.00  0.00    +0.000 C 
ATOM     25  C   UNL     1       3.455   5.107  19.846  0.00  0.00    +0.000 C 
ATOM     26  C   UNL     1       3.595   3.668  19.347  0.00  0.00    +0.000 C 
ATOM     27  C   UNL     1       2.580   2.711  19.995  0.00  0.00    +0.000 C 
ATOM     28  C   UNL     1       1.157   3.246  19.792  0.00  0.00    +0.000 C 
ATOM     29  C   UNL     1       0.992   4.676  20.304  0.00  0.00    +0.000 C 
BRANCH  27  30
ATOM     30  C   UNL     1       2.875   2.450  21.481  0.00  0.00    +0.000 C 
BRANCH  30  31
ATOM     31  O   UNL     1       1.683   2.137  22.186  0.00  0.00    +0.000 OA
ATOM     32  H   UNL     1       1.021   2.813  21.959  0.00  0.00    +0.000 HD
ENDBRANCH  30  31
ENDBRANCH  27  30
ENDBRANCH  22  24
ENDBRANCH  19  20
TORSDOF 4
ENDMDL
MODEL 5
REMARK VINA RESULT:      -7.0      2.562      3.278
REMARK  Name = 
REMARK  6 active torsions:
REMARK  status: ('A' for Active; 'I' for Inactive)
REMARK    1  A    between atoms: C_1  and  C_2
REMARK    2  A    between atoms: C_2  and  C_3
REMARK    3  A    between atoms: C_19  and  C_20
REMARK    4  A    between atoms: N_22  and  C_23
REMARK    5  A    between atoms: C_26  and  C_27
REMARK    6  A    between atoms: C_27  and  O_28
REMARK                            x       y       z     vdW  Elec       q    Type
REMARK                         _______ _______ _______ _____ _____    ______ ____
ROOT
ATOM      1  C   UNL     1      -1.397   9.244  19.717  0.00  0.00    +0.000 C 
ATOM      2  C   UNL     1      -1.096  10.446  18.793  0.00  0.00    +0.000 C 
ATOM      3  C   UNL     1      -1.346   9.997  17.340  0.00  0.00    +0.000 C 
ATOM      4  C   UNL     1      -2.102  11.580  19.154  0.00  0.00    +0.000 C 
ATOM      5  N   UNL     1      -1.728  12.072  20.475  0.00  0.00    +0.000 N 
ATOM      6  C   UNL     1      -2.714  12.392  21.391  0.00  0.00    +0.000 A 
ATOM      7  C   UNL     1      -2.423  12.303  22.748  0.00  0.00    +0.000 A 
ATOM      8  C   UNL     1      -3.415  12.542  23.687  0.00  0.00    +0.000 A 
ATOM      9  C   UNL     1      -4.696  12.881  23.261  0.00  0.00    +0.000 A 
ATOM     10  C   UNL     1      -5.709  13.129  24.199  0.00  0.00    +0.000 A 
ATOM     11  C   UNL     1      -6.989  13.476  23.780  0.00  0.00    +0.000 A 
ATOM     12  C   UNL     1      -7.255  13.573  22.420  0.00  0.00    +0.000 A 
ATOM     13  C   UNL     1      -6.241  13.317  21.486  0.00  0.00    +0.000 A 
ATOM     14 CL   UNL     1      -6.658  13.463  19.809  0.00  0.00    +0.000 Cl
ATOM     15  C   UNL     1      -4.939  12.961  21.872  0.00  0.00    +0.000 A 
ATOM     16  N   UNL     1      -3.956  12.701  20.971  0.00  0.00    +0.000 NA
ATOM     17  C   UNL     1      -0.461  12.785  20.526  0.00  0.00    +0.000 C 
ATOM     18  C   UNL     1       0.635  11.766  20.241  0.00  0.00    +0.000 C 
ATOM     19  C   UNL     1       0.366  11.006  18.925  0.00  0.00    +0.000 C 
ENDROOT
BRANCH  19  20
ATOM     20  C   UNL     1       1.462   9.971  18.669  0.00  0.00    +0.000 C 
ATOM     21  O   UNL     1       2.283  10.126  17.769  0.00  0.00    +0.000 OA
ATOM     22  N   UNL     1       1.445   8.862  19.480  0.00  0.00    +0.000 N 
ATOM     23  H   UNL     1       0.834   8.853  20.286  0.00  0.00    +0.000 HD
BRANCH  22  24
ATOM     24  C   UNL     1       2.386   7.761  19.338  0.00  0.00    +0.000 C 
ATOM     25  C   UNL     1       1.977   6.587  20.235  0.00  0.00    +0.000 C 
ATOM     26  C   UNL     1       2.862   5.361  20.005  0.00  0.00    +0.000 C 
ATOM     27  C   UNL     1       2.922   4.936  18.528  0.00  0.00    +0.000 C 
ATOM     28  C   UNL     1       3.363   6.124  17.663  0.00  0.00    +0.000 C 
ATOM     29  C   UNL     1       2.477   7.353  17.862  0.00  0.00    +0.000 C 
BRANCH  27  30
ATOM     30  C   UNL     1       1.597   4.339  18.027  0.00  0.00    +0.000 C 
BRANCH  30  31
ATOM     31  O   UNL     1       1.833   3.289  17.101  0.00  0.00    +0.000 OA
ATOM     32  H   UNL     1       2.259   2.560  17.584  0.00  0.00    +0.000 HD
ENDBRANCH  30  31
ENDBRANCH  27  30
ENDBRANCH  22  24
ENDBRANCH  19  20
TORSDOF 4
ENDMDL
MODEL 6
REMARK VINA RESULT:      -7.0      1.828      2.669
REMARK  Name = 
REMARK  6 active torsions:
REMARK  status: ('A' for Active; 'I' for Inactive)
REMARK    1  A    between atoms: C_1  and  C_2
REMARK    2  A    between atoms: C_2  and  C_3
REMARK    3  A    between atoms: C_19  and  C_20
REMARK    4  A    between atoms: N_22  and  C_23
REMARK    5  A    between atoms: C_26  and  C_27
REMARK    6  A    between atoms: C_27  and  O_28
REMARK                            x       y       z     vdW  Elec       q    Type
REMARK                         _______ _______ _______ _____ _____    ______ ____
ROOT
ATOM      1  C   UNL     1       1.851  10.242  20.990  0.00  0.00    +0.000 C 
ATOM      2  C   UNL     1       0.686   9.300  20.606  0.00  0.00    +0.000 C 
ATOM      3  C   UNL     1       0.813   8.023  21.458  0.00  0.00    +0.000 C 
ATOM      4  C   UNL     1      -0.644  10.025  20.972  0.00  0.00    +0.000 C 
ATOM      5  N   UNL     1      -0.791  11.136  20.039  0.00  0.00    +0.000 N 
ATOM      6  C   UNL     1      -1.272  12.352  20.492  0.00  0.00    +0.000 A 
ATOM      7  C   UNL     1      -0.896  13.512  19.824  0.00  0.00    +0.000 A 
ATOM      8  C   UNL     1      -1.299  14.750  20.302  0.00  0.00    +0.000 A 
ATOM      9  C   UNL     1      -2.089  14.818  21.447  0.00  0.00    +0.000 A 
ATOM     10  C   UNL     1      -2.508  16.063  21.941  0.00  0.00    +0.000 A 
ATOM     11  C   UNL     1      -3.304  16.137  23.079  0.00  0.00    +0.000 A 
ATOM     12  C   UNL     1      -3.680  14.966  23.723  0.00  0.00    +0.000 A 
ATOM     13  C   UNL     1      -3.252  13.724  23.230  0.00  0.00    +0.000 A 
ATOM     14 CL   UNL     1      -3.768  12.312  24.092  0.00  0.00    +0.000 Cl
ATOM     15  C   UNL     1      -2.446  13.610  22.086  0.00  0.00    +0.000 A 
ATOM     16  N   UNL     1      -2.020  12.412  21.609  0.00  0.00    +0.000 NA
ATOM     17  C   UNL     1      -1.045  10.747  18.660  0.00  0.00    +0.000 C 
ATOM     18  C   UNL     1       0.218  10.065  18.149  0.00  0.00    +0.000 C 
ATOM     19  C   UNL     1       0.649   8.915  19.083  0.00  0.00    +0.000 C 
ENDROOT
BRANCH  19  20
ATOM     20  C   UNL     1       1.931   8.258  18.570  0.00  0.00    +0.000 C 
ATOM     21  O   UNL     1       2.795   8.915  17.996  0.00  0.00    +0.000 OA
ATOM     22  N   UNL     1       2.033   6.902  18.765  0.00  0.00    +0.000 N 
ATOM     23  H   UNL     1       1.359   6.440  19.359  0.00  0.00    +0.000 HD
BRANCH  22  24
ATOM     24  C   UNL     1       3.164   6.116  18.294  0.00  0.00    +0.000 C 
ATOM     25  C   UNL     1       4.174   5.897  19.427  0.00  0.00    +0.000 C 
ATOM     26  C   UNL     1       5.305   4.957  19.008  0.00  0.00    +0.000 C 
ATOM     27  C   UNL     1       4.792   3.615  18.454  0.00  0.00    +0.000 C 
ATOM     28  C   UNL     1       3.809   3.869  17.304  0.00  0.00    +0.000 C 
ATOM     29  C   UNL     1       2.659   4.790  17.710  0.00  0.00    +0.000 C 
BRANCH  27  30
ATOM     30  C   UNL     1       4.167   2.725  19.540  0.00  0.00    +0.000 C 
BRANCH  30  31
ATOM     31  O   UNL     1       5.127   1.823  20.070  0.00  0.00    +0.000 OA
ATOM     32  H   UNL     1       4.818   1.548  20.951  0.00  0.00    +0.000 HD
ENDBRANCH  30  31
ENDBRANCH  27  30
ENDBRANCH  22  24
ENDBRANCH  19  20
TORSDOF 4
ENDMDL
MODEL 7
REMARK VINA RESULT:      -6.9      1.916      2.238
REMARK  Name = 
REMARK  6 active torsions:
REMARK  status: ('A' for Active; 'I' for Inactive)
REMARK    1  A    between atoms: C_1  and  C_2
REMARK    2  A    between atoms: C_2  and  C_3
REMARK    3  A    between atoms: C_19  and  C_20
REMARK    4  A    between atoms: N_22  and  C_23
REMARK    5  A    between atoms: C_26  and  C_27
REMARK    6  A    between atoms: C_27  and  O_28
REMARK                            x       y       z     vdW  Elec       q    Type
REMARK                         _______ _______ _______ _____ _____    ______ ____
ROOT
ATOM      1  C   UNL     1      -0.562   9.219  19.127  0.00  0.00    +0.000 C 
ATOM      2  C   UNL     1       0.868   9.661  19.512  0.00  0.00    +0.000 C 
ATOM      3  C   UNL     1       1.753   9.544  18.256  0.00  0.00    +0.000 C 
ATOM      4  C   UNL     1       0.797  11.157  19.945  0.00  0.00    +0.000 C 
ATOM      5  N   UNL     1       0.080  11.197  21.215  0.00  0.00    +0.000 N 
ATOM      6  C   UNL     1      -0.830  12.210  21.457  0.00  0.00    +0.000 A 
ATOM      7  C   UNL     1      -1.883  11.971  22.332  0.00  0.00    +0.000 A 
ATOM      8  C   UNL     1      -2.852  12.942  22.533  0.00  0.00    +0.000 A 
ATOM      9  C   UNL     1      -2.755  14.157  21.860  0.00  0.00    +0.000 A 
ATOM     10  C   UNL     1      -3.727  15.150  22.056  0.00  0.00    +0.000 A 
ATOM     11  C   UNL     1      -3.632  16.369  21.393  0.00  0.00    +0.000 A 
ATOM     12  C   UNL     1      -2.564  16.593  20.533  0.00  0.00    +0.000 A 
ATOM     13  C   UNL     1      -1.600  15.594  20.335  0.00  0.00    +0.000 A 
ATOM     14 CL   UNL     1      -0.299  15.957  19.248  0.00  0.00    +0.000 Cl
ATOM     15  C   UNL     1      -1.665  14.352  20.984  0.00  0.00    +0.000 A 
ATOM     16  N   UNL     1      -0.740  13.375  20.788  0.00  0.00    +0.000 NA
ATOM     17  C   UNL     1       0.793  10.606  22.337  0.00  0.00    +0.000 C 
ATOM     18  C   UNL     1       0.886   9.109  22.068  0.00  0.00    +0.000 C 
ATOM     19  C   UNL     1       1.503   8.827  20.683  0.00  0.00    +0.000 C 
ENDROOT
BRANCH  19  20
ATOM     20  C   UNL     1       1.566   7.322  20.419  0.00  0.00    +0.000 C 
ATOM     21  O   UNL     1       0.722   6.560  20.882  0.00  0.00    +0.000 OA
ATOM     22  N   UNL     1       2.631   6.886  19.668  0.00  0.00    +0.000 N 
ATOM     23  H   UNL     1       3.215   7.567  19.202  0.00  0.00    +0.000 HD
BRANCH  22  24
ATOM     24  C   UNL     1       2.866   5.482  19.366  0.00  0.00    +0.000 C 
ATOM     25  C   UNL     1       2.274   5.120  17.999  0.00  0.00    +0.000 C 
ATOM     26  C   UNL     1       2.626   3.690  17.587  0.00  0.00    +0.000 C 
ATOM     27  C   UNL     1       4.139   3.412  17.627  0.00  0.00    +0.000 C 
ATOM     28  C   UNL     1       4.694   3.755  19.015  0.00  0.00    +0.000 C 
ATOM     29  C   UNL     1       4.370   5.188  19.436  0.00  0.00    +0.000 C 
BRANCH  27  30
ATOM     30  C   UNL     1       4.907   4.148  16.518  0.00  0.00    +0.000 C 
BRANCH  30  31
ATOM     31  O   UNL     1       6.304   3.922  16.634  0.00  0.00    +0.000 OA
ATOM     32  H   UNL     1       6.695   4.035  15.750  0.00  0.00    +0.000 HD
ENDBRANCH  30  31
ENDBRANCH  27  30
ENDBRANCH  22  24
ENDBRANCH  19  20
TORSDOF 4
ENDMDL
MODEL 8
REMARK VINA RESULT:      -6.9      2.140      2.766
REMARK  Name = 
REMARK  6 active torsions:
REMARK  status: ('A' for Active; 'I' for Inactive)
REMARK    1  A    between atoms: C_1  and  C_2
REMARK    2  A    between atoms: C_2  and  C_3
REMARK    3  A    between atoms: C_19  and  C_20
REMARK    4  A    between atoms: N_22  and  C_23
REMARK    5  A    between atoms: C_26  and  C_27
REMARK    6  A    between atoms: C_27  and  O_28
REMARK                            x       y       z     vdW  Elec       q    Type
REMARK                         _______ _______ _______ _____ _____    ______ ____
ROOT
ATOM      1  C   UNL     1      -0.838   9.450  20.060  0.00  0.00    +0.000 C 
ATOM      2  C   UNL     1      -0.620  10.373  18.839  0.00  0.00    +0.000 C 
ATOM      3  C   UNL     1      -1.275   9.700  17.617  0.00  0.00    +0.000 C 
ATOM      4  C   UNL     1      -1.350  11.719  19.130  0.00  0.00    +0.000 C 
ATOM      5  N   UNL     1      -0.603  12.385  20.190  0.00  0.00    +0.000 N 
ATOM      6  C   UNL     1      -1.283  13.051  21.194  0.00  0.00    +0.000 A 
ATOM      7  C   UNL     1      -0.682  13.179  22.441  0.00  0.00    +0.000 A 
ATOM      8  C   UNL     1      -1.373  13.773  23.486  0.00  0.00    +0.000 A 
ATOM      9  C   UNL     1      -2.664  14.248  23.272  0.00  0.00    +0.000 A 
ATOM     10  C   UNL     1      -3.375  14.854  24.320  0.00  0.00    +0.000 A 
ATOM     11  C   UNL     1      -4.662  15.338  24.111  0.00  0.00    +0.000 A 
ATOM     12  C   UNL     1      -5.239  15.213  22.853  0.00  0.00    +0.000 A 
ATOM     13  C   UNL     1      -4.528  14.599  21.812  0.00  0.00    +0.000 A 
ATOM     14 CL   UNL     1      -5.320  14.486  20.274  0.00  0.00    +0.000 Cl
ATOM     15  C   UNL     1      -3.229  14.097  21.986  0.00  0.00    +0.000 A 
ATOM     16  N   UNL     1      -2.539  13.491  20.985  0.00  0.00    +0.000 NA
ATOM     17  C   UNL     1       0.720  12.853  19.805  0.00  0.00    +0.000 C 
ATOM     18  C   UNL     1       1.571  11.616  19.541  0.00  0.00    +0.000 C 
ATOM     19  C   UNL     1       0.889  10.675  18.526  0.00  0.00    +0.000 C 
ENDROOT
BRANCH  19  20
ATOM     20  C   UNL     1       1.745   9.429  18.292  0.00  0.00    +0.000 C 
ATOM     21  O   UNL     1       2.405   9.295  17.265  0.00  0.00    +0.000 OA
ATOM     22  N   UNL     1       1.700   8.474  19.279  0.00  0.00    +0.000 N 
ATOM     23  H   UNL     1       1.250   8.696  20.156  0.00  0.00    +0.000 HD
BRANCH  22  24
ATOM     24  C   UNL     1       2.415   7.209  19.192  0.00  0.00    +0.000 C 
ATOM     25  C   UNL     1       2.226   6.396  20.477  0.00  0.00    +0.000 C 
ATOM     26  C   UNL     1       2.845   5.002  20.366  0.00  0.00    +0.000 C 
ATOM     27  C   UNL     1       2.343   4.222  19.138  0.00  0.00    +0.000 C 
ATOM     28  C   UNL     1       2.574   5.050  17.867  0.00  0.00    +0.000 C 
ATOM     29  C   UNL     1       1.944   6.439  17.951  0.00  0.00    +0.000 C 
BRANCH  27  30
ATOM     30  C   UNL     1       0.873   3.793  19.268  0.00  0.00    +0.000 C 
BRANCH  30  31
ATOM     31  O   UNL     1       0.609   3.278  20.565  0.00  0.00    +0.000 OA
ATOM     32  H   UNL     1       1.173   2.496  20.692  0.00  0.00    +0.000 HD
ENDBRANCH  30  31
ENDBRANCH  27  30
ENDBRANCH  22  24
ENDBRANCH  19  20
TORSDOF 4
ENDMDL
MODEL 9
REMARK VINA RESULT:      -6.8      6.251     10.160
REMARK  Name = 
REMARK  6 active torsions:
REMARK  status: ('A' for Active; 'I' for Inactive)
REMARK    1  A    between atoms: C_1  and  C_2
REMARK    2  A    between atoms: C_2  and  C_3
REMARK    3  A    between atoms: C_19  and  C_20
REMARK    4  A    between atoms: N_22  and  C_23
REMARK    5  A    between atoms: C_26  and  C_27
REMARK    6  A    between atoms: C_27  and  O_28
REMARK                            x       y       z     vdW  Elec       q    Type
REMARK                         _______ _______ _______ _____ _____    ______ ____
ROOT
ATOM      1  C   UNL     1       4.526  14.332  21.017  0.00  0.00    +0.000 C 
ATOM      2  C   UNL     1       4.406  15.723  20.354  0.00  0.00    +0.000 C 
ATOM      3  C   UNL     1       4.136  16.755  21.466  0.00  0.00    +0.000 C 
ATOM      4  C   UNL     1       5.777  16.044  19.685  0.00  0.00    +0.000 C 
ATOM      5  N   UNL     1       5.915  15.142  18.548  0.00  0.00    +0.000 N 
ATOM      6  C   UNL     1       7.145  14.570  18.272  0.00  0.00    +0.000 A 
ATOM      7  C   UNL     1       7.182  13.345  17.617  0.00  0.00    +0.000 A 
ATOM      8  C   UNL     1       8.397  12.712  17.398  0.00  0.00    +0.000 A 
ATOM      9  C   UNL     1       9.573  13.319  17.829  0.00  0.00    +0.000 A 
ATOM     10  C   UNL     1      10.810  12.693  17.611  0.00  0.00    +0.000 A 
ATOM     11  C   UNL     1      11.990  13.297  18.032  0.00  0.00    +0.000 A 
ATOM     12  C   UNL     1      11.931  14.529  18.673  0.00  0.00    +0.000 A 
ATOM     13  C   UNL     1      10.692  15.146  18.895  0.00  0.00    +0.000 A 
ATOM     14 CL   UNL     1      10.709  16.682  19.699  0.00  0.00    +0.000 Cl
ATOM     15  C   UNL     1       9.481  14.565  18.487  0.00  0.00    +0.000 A 
ATOM     16  N   UNL     1       8.277  15.154  18.709  0.00  0.00    +0.000 NA
ATOM     17  C   UNL     1       4.993  15.395  17.451  0.00  0.00    +0.000 C 
ATOM     18  C   UNL     1       3.596  15.062  17.957  0.00  0.00    +0.000 C 
ATOM     19  C   UNL     1       3.279  15.818  19.264  0.00  0.00    +0.000 C 
ENDROOT
BRANCH  19  20
ATOM     20  C   UNL     1       1.882  15.453  19.770  0.00  0.00    +0.000 C 
ATOM     21  O   UNL     1       1.115  16.313  20.195  0.00  0.00    +0.000 OA
ATOM     22  N   UNL     1       1.564  14.116  19.746  0.00  0.00    +0.000 N 
ATOM     23  H   UNL     1       2.177  13.474  19.264  0.00  0.00    +0.000 HD
BRANCH  22  24
ATOM     24  C   UNL     1       0.297  13.594  20.237  0.00  0.00    +0.000 C 
ATOM     25  C   UNL     1      -0.030  12.257  19.562  0.00  0.00    +0.000 C 
ATOM     26  C   UNL     1      -1.282  11.611  20.156  0.00  0.00    +0.000 C 
ATOM     27  C   UNL     1      -1.206  11.456  21.685  0.00  0.00    +0.000 C 
ATOM     28  C   UNL     1      -0.908  12.816  22.331  0.00  0.00    +0.000 C 
ATOM     29  C   UNL     1       0.352  13.469  21.765  0.00  0.00    +0.000 C 
BRANCH  27  30
ATOM     30  C   UNL     1      -0.188  10.392  22.125  0.00  0.00    +0.000 C 
BRANCH  30  31
ATOM     31  O   UNL     1      -0.181  10.251  23.538  0.00  0.00    +0.000 OA
ATOM     32  H   UNL     1       0.289  11.019  23.908  0.00  0.00    +0.000 HD
ENDBRANCH  30  31
ENDBRANCH  27  30
ENDBRANCH  22  24
ENDBRANCH  19  20
TORSDOF 4
ENDMDL
