MODEL 1
REMARK VINA RESULT:      -5.9      0.000      0.000
REMARK  Name = 
REMARK  5 active torsions:
REMARK  status: ('A' for Active; 'I' for Inactive)
REMARK    1  A    between atoms: C_1  and  C_2
REMARK    2  A    between atoms: C_3  and  C_4
REMARK    3  A    between atoms: C_5  and  C_6
REMARK    4  A    between atoms: C_6  and  N_7
REMARK    5  A    between atoms: C_8  and  O_9
REMARK                            x       y       z     vdW  Elec       q    Type
REMARK                         _______ _______ _______ _____ _____    ______ ____
ROOT
ATOM      1  C   UNL     1       2.469   7.555  18.295  0.00  0.00    +0.000 C 
ATOM      2  C   UNL     1       3.257   6.276  18.511  0.00  0.00    +0.000 A 
ATOM      3  C   UNL     1       4.407   5.944  17.732  0.00  0.00    +0.000 A 
ATOM      4  C   UNL     1       4.953   6.903  16.681  0.00  0.00    +0.000 C 
ATOM      5  C   UNL     1       5.086   4.705  17.960  0.00  0.00    +0.000 A 
ATOM      6  C   UNL     1       4.608   3.829  18.977  0.00  0.00    +0.000 A 
ATOM      7  C   UNL     1       3.499   4.189  19.749  0.00  0.00    +0.000 A 
ATOM      8 CL   UNL     1       2.949   3.085  21.016  0.00  0.00    +0.000 Cl
ATOM      9  C   UNL     1       2.827   5.392  19.525  0.00  0.00    +0.000 A 
ATOM     10 CL   UNL     1       1.423   5.771  20.536  0.00  0.00    +0.000 Cl
ENDROOT
BRANCH   6  11
ATOM     11  O   UNL     1       5.181   2.635  19.260  0.00  0.00    +0.000 OA
ATOM     12  H   UNL     1       4.768   1.882  19.695  0.00  0.00    +0.000 HD
ENDBRANCH   6  11
BRANCH   5  13
ATOM     13  C   UNL     1       6.324   4.356  17.134  0.00  0.00    +0.000 C 
BRANCH  13  14
ATOM     14  N   UNL     1       7.511   4.292  17.980  0.00  0.00    +0.000 NA
ATOM     15  H   UNL     1       8.306   4.765  17.493  0.00  0.00    +0.000 HD
ATOM     16  H   UNL     1       7.765   3.288  18.129  0.00  0.00    +0.000 HD
ENDBRANCH  13  14
ENDBRANCH   5  13
TORSDOF 3
ENDMDL
MODEL 2
REMARK VINA RESULT:      -5.8      2.506      3.488
REMARK  Name = 
REMARK  5 active torsions:
REMARK  status: ('A' for Active; 'I' for Inactive)
REMARK    1  A    between atoms: C_1  and  C_2
REMARK    2  A    between atoms: C_3  and  C_4
REMARK    3  A    between atoms: C_5  and  C_6
REMARK    4  A    between atoms: C_6  and  N_7
REMARK    5  A    between atoms: C_8  and  O_9
REMARK                            x       y       z     vdW  Elec       q    Type
REMARK                         _______ _______ _______ _____ _____    ______ ____
ROOT
ATOM      1  C   UNL     1       1.620   6.720  20.467  0.00  0.00    +0.000 C 
ATOM      2  C   UNL     1       2.506   5.780  19.670  0.00  0.00    +0.000 A 
ATOM      3  C   UNL     1       2.699   4.414  20.037  0.00  0.00    +0.000 A 
ATOM      4  C   UNL     1       1.958   3.801  21.219  0.00  0.00    +0.000 C 
ATOM      5  C   UNL     1       3.577   3.588  19.265  0.00  0.00    +0.000 A 
ATOM      6  C   UNL     1       4.232   4.144  18.128  0.00  0.00    +0.000 A 
ATOM      7  C   UNL     1       4.004   5.476  17.769  0.00  0.00    +0.000 A 
ATOM      8 CL   UNL     1       4.818   6.124  16.339  0.00  0.00    +0.000 Cl
ATOM      9  C   UNL     1       3.156   6.290  18.524  0.00  0.00    +0.000 A 
ATOM     10 CL   UNL     1       2.928   7.970  18.012  0.00  0.00    +0.000 Cl
ENDROOT
BRANCH   6  11
ATOM     11  O   UNL     1       5.083   3.442  17.342  0.00  0.00    +0.000 OA
ATOM     12  H   UNL     1       4.859   2.926  16.562  0.00  0.00    +0.000 HD
ENDBRANCH   6  11
BRANCH   5  13
ATOM     13  C   UNL     1       3.773   2.122  19.651  0.00  0.00    +0.000 C 
BRANCH  13  14
ATOM     14  N   UNL     1       5.138   1.883  20.109  0.00  0.00    +0.000 NA
ATOM     15  H   UNL     1       5.137   1.096  20.798  0.00  0.00    +0.000 HD
ATOM     16  H   UNL     1       5.487   2.743  20.591  0.00  0.00    +0.000 HD
ENDBRANCH  13  14
ENDBRANCH   5  13
TORSDOF 3
ENDMDL
MODEL 3
REMARK VINA RESULT:      -5.6      1.232      1.232
REMARK  Name = 
REMARK  5 active torsions:
REMARK  status: ('A' for Active; 'I' for Inactive)
REMARK    1  A    between atoms: C_1  and  C_2
REMARK    2  A    between atoms: C_3  and  C_4
REMARK    3  A    between atoms: C_5  and  C_6
REMARK    4  A    between atoms: C_6  and  N_7
REMARK    5  A    between atoms: C_8  and  O_9
REMARK                            x       y       z     vdW  Elec       q    Type
REMARK                         _______ _______ _______ _____ _____    ______ ____
ROOT
ATOM      1  C   UNL     1       2.364   7.273  19.123  0.00  0.00    +0.000 C 
ATOM      2  C   UNL     1       2.893   5.921  18.682  0.00  0.00    +0.000 A 
ATOM      3  C   UNL     1       3.883   5.781  17.663  0.00  0.00    +0.000 A 
ATOM      4  C   UNL     1       4.523   7.001  17.011  0.00  0.00    +0.000 C 
ATOM      5  C   UNL     1       4.315   4.476  17.265  0.00  0.00    +0.000 A 
ATOM      6  C   UNL     1       3.756   3.334  17.909  0.00  0.00    +0.000 A 
ATOM      7  C   UNL     1       2.810   3.495  18.926  0.00  0.00    +0.000 A 
ATOM      8 CL   UNL     1       2.156   2.055  19.717  0.00  0.00    +0.000 Cl
ATOM      9  C   UNL     1       2.378   4.766  19.312  0.00  0.00    +0.000 A 
ATOM     10 CL   UNL     1       1.168   4.887  20.600  0.00  0.00    +0.000 Cl
ENDROOT
BRANCH   6  11
ATOM     11  O   UNL     1       4.098   2.061  17.596  0.00  0.00    +0.000 OA
ATOM     12  H   UNL     1       4.286   1.710  16.721  0.00  0.00    +0.000 HD
ENDBRANCH   6  11
BRANCH   5  13
ATOM     13  C   UNL     1       5.385   4.328  16.183  0.00  0.00    +0.000 C 
BRANCH  13  14
ATOM     14  N   UNL     1       6.676   3.988  16.772  0.00  0.00    +0.000 NA
ATOM     15  H   UNL     1       7.146   3.266  16.179  0.00  0.00    +0.000 HD
ATOM     16  H   UNL     1       6.516   3.581  17.722  0.00  0.00    +0.000 HD
ENDBRANCH  13  14
ENDBRANCH   5  13
TORSDOF 3
ENDMDL
MODEL 4
REMARK VINA RESULT:      -5.5      3.097      4.387
REMARK  Name = 
REMARK  5 active torsions:
REMARK  status: ('A' for Active; 'I' for Inactive)
REMARK    1  A    between atoms: C_1  and  C_2
REMARK    2  A    between atoms: C_3  and  C_4
REMARK    3  A    between atoms: C_5  and  C_6
REMARK    4  A    between atoms: C_6  and  N_7
REMARK    5  A    between atoms: C_8  and  O_9
REMARK                            x       y       z     vdW  Elec       q    Type
REMARK                         _______ _______ _______ _____ _____    ______ ____
ROOT
ATOM      1  C   UNL     1       4.720   3.898  16.566  0.00  0.00    +0.000 C 
ATOM      2  C   UNL     1       3.797   4.227  17.725  0.00  0.00    +0.000 A 
ATOM      3  C   UNL     1       3.205   3.217  18.542  0.00  0.00    +0.000 A 
ATOM      4  C   UNL     1       3.532   1.742  18.338  0.00  0.00    +0.000 C 
ATOM      5  C   UNL     1       2.313   3.589  19.599  0.00  0.00    +0.000 A 
ATOM      6  C   UNL     1       2.046   4.971  19.825  0.00  0.00    +0.000 A 
ATOM      7  C   UNL     1       2.661   5.944  19.033  0.00  0.00    +0.000 A 
ATOM      8 CL   UNL     1       2.321   7.648  19.359  0.00  0.00    +0.000 Cl
ATOM      9  C   UNL     1       3.524   5.586  17.995  0.00  0.00    +0.000 A 
ATOM     10 CL   UNL     1       4.255   6.877  17.027  0.00  0.00    +0.000 Cl
ENDROOT
BRANCH   6  11
ATOM     11  O   UNL     1       1.213   5.418  20.796  0.00  0.00    +0.000 OA
ATOM     12  H   UNL     1       0.281   5.638  20.704  0.00  0.00    +0.000 HD
ENDBRANCH   6  11
BRANCH   5  13
ATOM     13  C   UNL     1       1.690   2.508  20.481  0.00  0.00    +0.000 C 
BRANCH  13  14
ATOM     14  N   UNL     1       2.022   2.729  21.885  0.00  0.00    +0.000 NA
ATOM     15  H   UNL     1       3.048   2.584  22.023  0.00  0.00    +0.000 HD
ATOM     16  H   UNL     1       1.508   2.028  22.467  0.00  0.00    +0.000 HD
ENDBRANCH  13  14
ENDBRANCH   5  13
TORSDOF 3
ENDMDL
MODEL 5
REMARK VINA RESULT:      -5.5      3.094      3.906
REMARK  Name = 
REMARK  5 active torsions:
REMARK  status: ('A' for Active; 'I' for Inactive)
REMARK    1  A    between atoms: C_1  and  C_2
REMARK    2  A    between atoms: C_3  and  C_4
REMARK    3  A    between atoms: C_5  and  C_6
REMARK    4  A    between atoms: C_6  and  N_7
REMARK    5  A    between atoms: C_8  and  O_9
REMARK                            x       y       z     vdW  Elec       q    Type
REMARK                         _______ _______ _______ _____ _____    ______ ____
ROOT
ATOM      1  C   UNL     1       2.600   7.361  18.870  0.00  0.00    +0.000 C 
ATOM      2  C   UNL     1       2.956   5.916  18.573  0.00  0.00    +0.000 A 
ATOM      3  C   UNL     1       2.389   4.823  19.297  0.00  0.00    +0.000 A 
ATOM      4  C   UNL     1       1.329   5.050  20.368  0.00  0.00    +0.000 C 
ATOM      5  C   UNL     1       2.793   3.484  18.993  0.00  0.00    +0.000 A 
ATOM      6  C   UNL     1       3.746   3.265  17.956  0.00  0.00    +0.000 A 
ATOM      7  C   UNL     1       4.264   4.348  17.239  0.00  0.00    +0.000 A 
ATOM      8 CL   UNL     1       5.427   4.034  15.946  0.00  0.00    +0.000 Cl
ATOM      9  C   UNL     1       3.881   5.657  17.537  0.00  0.00    +0.000 A 
ATOM     10 CL   UNL     1       4.591   6.976  16.592  0.00  0.00    +0.000 Cl
ENDROOT
BRANCH   6  11
ATOM     11  O   UNL     1       4.191   2.036  17.603  0.00  0.00    +0.000 OA
ATOM     12  H   UNL     1       4.263   1.260  18.168  0.00  0.00    +0.000 HD
ENDBRANCH   6  11
BRANCH   5  13
ATOM     13  C   UNL     1       2.177   2.314  19.760  0.00  0.00    +0.000 C 
BRANCH  13  14
ATOM     14  N   UNL     1       1.453   1.425  18.857  0.00  0.00    +0.000 NA
ATOM     15  H   UNL     1       1.118   0.590  19.392  0.00  0.00    +0.000 HD
ATOM     16  H   UNL     1       2.107   1.098  18.110  0.00  0.00    +0.000 HD
ENDBRANCH  13  14
ENDBRANCH   5  13
TORSDOF 3
ENDMDL
MODEL 6
REMARK VINA RESULT:      -5.4      1.437      2.013
REMARK  Name = 
REMARK  5 active torsions:
REMARK  status: ('A' for Active; 'I' for Inactive)
REMARK    1  A    between atoms: C_1  and  C_2
REMARK    2  A    between atoms: C_3  and  C_4
REMARK    3  A    between atoms: C_5  and  C_6
REMARK    4  A    between atoms: C_6  and  N_7
REMARK    5  A    between atoms: C_8  and  O_9
REMARK                            x       y       z     vdW  Elec       q    Type
REMARK                         _______ _______ _______ _____ _____    ______ ____
ROOT
ATOM      1  C   UNL     1       1.538   6.698  20.450  0.00  0.00    +0.000 C 
ATOM      2  C   UNL     1       2.596   5.988  19.626  0.00  0.00    +0.000 A 
ATOM      3  C   UNL     1       3.188   6.578  18.468  0.00  0.00    +0.000 A 
ATOM      4  C   UNL     1       2.838   7.997  18.037  0.00  0.00    +0.000 C 
ATOM      5  C   UNL     1       4.156   5.842  17.712  0.00  0.00    +0.000 A 
ATOM      6  C   UNL     1       4.524   4.534  18.142  0.00  0.00    +0.000 A 
ATOM      7  C   UNL     1       3.954   3.989  19.297  0.00  0.00    +0.000 A 
ATOM      8 CL   UNL     1       4.452   2.372  19.810  0.00  0.00    +0.000 Cl
ATOM      9  C   UNL     1       3.003   4.698  20.034  0.00  0.00    +0.000 A 
ATOM     10 CL   UNL     1       2.318   3.935  21.477  0.00  0.00    +0.000 Cl
ENDROOT
BRANCH   6  11
ATOM     11  O   UNL     1       5.424   3.762  17.489  0.00  0.00    +0.000 OA
ATOM     12  H   UNL     1       5.605   3.755  16.544  0.00  0.00    +0.000 HD
ENDBRANCH   6  11
BRANCH   5  13
ATOM     13  C   UNL     1       4.799   6.479  16.480  0.00  0.00    +0.000 C 
BRANCH  13  14
ATOM     14  N   UNL     1       6.226   6.695  16.692  0.00  0.00    +0.000 NA
ATOM     15  H   UNL     1       6.633   5.860  17.172  0.00  0.00    +0.000 HD
ATOM     16  H   UNL     1       6.353   7.527  17.313  0.00  0.00    +0.000 HD
ENDBRANCH  13  14
ENDBRANCH   5  13
TORSDOF 3
ENDMDL
MODEL 7
REMARK VINA RESULT:      -5.3      2.792      3.821
REMARK  Name = 
REMARK  5 active torsions:
REMARK  status: ('A' for Active; 'I' for Inactive)
REMARK    1  A    between atoms: C_1  and  C_2
REMARK    2  A    between atoms: C_3  and  C_4
REMARK    3  A    between atoms: C_5  and  C_6
REMARK    4  A    between atoms: C_6  and  N_7
REMARK    5  A    between atoms: C_8  and  O_9
REMARK                            x       y       z     vdW  Elec       q    Type
REMARK                         _______ _______ _______ _____ _____    ______ ____
ROOT
ATOM      1  C   UNL     1       5.003   4.019  16.664  0.00  0.00    +0.000 C 
ATOM      2  C   UNL     1       3.941   4.364  17.691  0.00  0.00    +0.000 A 
ATOM      3  C   UNL     1       3.591   5.712  18.008  0.00  0.00    +0.000 A 
ATOM      4  C   UNL     1       4.222   6.887  17.269  0.00  0.00    +0.000 C 
ATOM      5  C   UNL     1       2.606   5.974  19.012  0.00  0.00    +0.000 A 
ATOM      6  C   UNL     1       1.976   4.876  19.668  0.00  0.00    +0.000 A 
ATOM      7  C   UNL     1       2.311   3.564  19.320  0.00  0.00    +0.000 A 
ATOM      8 CL   UNL     1       1.493   2.230  20.141  0.00  0.00    +0.000 Cl
ATOM      9  C   UNL     1       3.279   3.303  18.347  0.00  0.00    +0.000 A 
ATOM     10 CL   UNL     1       3.657   1.614  17.970  0.00  0.00    +0.000 Cl
ENDROOT
BRANCH   6  11
ATOM     11  O   UNL     1       1.038   5.025  20.634  0.00  0.00    +0.000 OA
ATOM     12  H   UNL     1       0.531   4.329  21.063  0.00  0.00    +0.000 HD
ENDBRANCH   6  11
BRANCH   5  13
ATOM     13  C   UNL     1       2.223   7.416  19.342  0.00  0.00    +0.000 C 
BRANCH  13  14
ATOM     14  N   UNL     1       2.100   7.605  20.784  0.00  0.00    +0.000 NA
ATOM     15  H   UNL     1       3.031   7.873  21.176  0.00  0.00    +0.000 HD
ATOM     16  H   UNL     1       1.807   6.700  21.218  0.00  0.00    +0.000 HD
ENDBRANCH  13  14
ENDBRANCH   5  13
TORSDOF 3
ENDMDL
MODEL 8
REMARK VINA RESULT:      -5.2      2.840      3.698
REMARK  Name = 
REMARK  5 active torsions:
REMARK  status: ('A' for Active; 'I' for Inactive)
REMARK    1  A    between atoms: C_1  and  C_2
REMARK    2  A    between atoms: C_3  and  C_4
REMARK    3  A    between atoms: C_5  and  C_6
REMARK    4  A    between atoms: C_6  and  N_7
REMARK    5  A    between atoms: C_8  and  O_9
REMARK                            x       y       z     vdW  Elec       q    Type
REMARK                         _______ _______ _______ _____ _____    ______ ____
ROOT
ATOM      1  C   UNL     1       2.751   7.565  18.459  0.00  0.00    +0.000 C 
ATOM      2  C   UNL     1       3.099   6.088  18.453  0.00  0.00    +0.000 A 
ATOM      3  C   UNL     1       2.550   5.168  19.397  0.00  0.00    +0.000 A 
ATOM      4  C   UNL     1       1.517   5.613  20.425  0.00  0.00    +0.000 C 
ATOM      5  C   UNL     1       2.945   3.792  19.362  0.00  0.00    +0.000 A 
ATOM      6  C   UNL     1       3.872   3.363  18.368  0.00  0.00    +0.000 A 
ATOM      7  C   UNL     1       4.373   4.274  17.434  0.00  0.00    +0.000 A 
ATOM      8 CL   UNL     1       5.504   3.698  16.203  0.00  0.00    +0.000 Cl
ATOM      9  C   UNL     1       3.998   5.619  17.469  0.00  0.00    +0.000 A 
ATOM     10 CL   UNL     1       4.685   6.715  16.260  0.00  0.00    +0.000 Cl
ENDROOT
BRANCH   6  11
ATOM     11  O   UNL     1       4.309   2.085  18.260  0.00  0.00    +0.000 OA
ATOM     12  H   UNL     1       4.805   1.585  18.915  0.00  0.00    +0.000 HD
ENDBRANCH   6  11
BRANCH   5  13
ATOM     13  C   UNL     1       2.348   2.806  20.364  0.00  0.00    +0.000 C 
BRANCH  13  14
ATOM     14  N   UNL     1       3.333   2.428  21.372  0.00  0.00    +0.000 NA
ATOM     15  H   UNL     1       3.387   1.385  21.427  0.00  0.00    +0.000 HD
ATOM     16  H   UNL     1       3.021   2.792  22.302  0.00  0.00    +0.000 HD
ENDBRANCH  13  14
ENDBRANCH   5  13
TORSDOF 3
ENDMDL
MODEL 9
REMARK VINA RESULT:      -5.2      1.738      2.424
REMARK  Name = 
REMARK  5 active torsions:
REMARK  status: ('A' for Active; 'I' for Inactive)
REMARK    1  A    between atoms: C_1  and  C_2
REMARK    2  A    between atoms: C_3  and  C_4
REMARK    3  A    between atoms: C_5  and  C_6
REMARK    4  A    between atoms: C_6  and  N_7
REMARK    5  A    between atoms: C_8  and  O_9
REMARK                            x       y       z     vdW  Elec       q    Type
REMARK                         _______ _______ _______ _____ _____    ______ ____
ROOT
ATOM      1  C   UNL     1       1.276   5.408  20.436  0.00  0.00    +0.000 C 
ATOM      2  C   UNL     1       2.307   4.893  19.448  0.00  0.00    +0.000 A 
ATOM      3  C   UNL     1       3.016   5.758  18.561  0.00  0.00    +0.000 A 
ATOM      4  C   UNL     1       2.829   7.270  18.614  0.00  0.00    +0.000 C 
ATOM      5  C   UNL     1       3.950   5.208  17.626  0.00  0.00    +0.000 A 
ATOM      6  C   UNL     1       4.166   3.799  17.610  0.00  0.00    +0.000 A 
ATOM      7  C   UNL     1       3.484   2.974  18.509  0.00  0.00    +0.000 A 
ATOM      8 CL   UNL     1       3.795   1.234  18.473  0.00  0.00    +0.000 Cl
ATOM      9  C   UNL     1       2.565   3.504  19.417  0.00  0.00    +0.000 A 
ATOM     10 CL   UNL     1       1.730   2.393  20.514  0.00  0.00    +0.000 Cl
ENDROOT
BRANCH   6  11
ATOM     11  O   UNL     1       5.024   3.188  16.759  0.00  0.00    +0.000 OA
ATOM     12  H   UNL     1       5.894   2.834  16.967  0.00  0.00    +0.000 HD
ENDBRANCH   6  11
BRANCH   5  13
ATOM     13  C   UNL     1       4.719   6.136  16.687  0.00  0.00    +0.000 C 
BRANCH  13  14
ATOM     14  N   UNL     1       6.157   6.033  16.916  0.00  0.00    +0.000 NA
ATOM     15  H   UNL     1       6.429   6.683  17.688  0.00  0.00    +0.000 HD
ATOM     16  H   UNL     1       6.658   6.324  16.046  0.00  0.00    +0.000 HD
ENDBRANCH  13  14
ENDBRANCH   5  13
TORSDOF 3
ENDMDL
