MODEL 1
REMARK VINA RESULT:      -7.2      0.000      0.000
REMARK  Name = 
REMARK  9 active torsions:
REMARK  status: ('A' for Active; 'I' for Inactive)
REMARK    1  A    between atoms: C_1  and  C_2
REMARK    2  A    between atoms: C_2  and  C_3
REMARK    3  A    between atoms: C_3  and  C_4
REMARK    4  A    between atoms: C_4  and  C_5
REMARK    5  A    between atoms: C_6  and  O_7
REMARK    6  A    between atoms: N_8  and  C_9
REMARK    7  A    between atoms: C_9  and  C_10
REMARK    8  A    between atoms: N_23  and  C_24
REMARK    9  A    between atoms: N_27  and  C_28
REMARK                            x       y       z     vdW  Elec       q    Type
REMARK                         _______ _______ _______ _____ _____    ______ ____
ROOT
ATOM      1  C   UNL     1      -2.690  10.677  17.663  0.00  0.00    +0.000 A 
ATOM      2  C   UNL     1      -1.361  10.542  17.847  0.00  0.00    +0.000 A 
ATOM      3  N   UNL     1      -0.661  11.215  18.855  0.00  0.00    +0.000 N 
ATOM      4  C   UNL     1      -1.331  11.991  19.777  0.00  0.00    +0.000 A 
ATOM      5  N   UNL     1      -0.894  12.681  20.823  0.00  0.00    +0.000 NA
ATOM      6  C   UNL     1      -2.021  13.234  21.377  0.00  0.00    +0.000 A 
ATOM      7  C   UNL     1      -3.145  12.884  20.693  0.00  0.00    +0.000 A 
ATOM      8  C   UNL     1      -4.458  13.290  21.083  0.00  0.00    +0.000 A 
ATOM      9  O   UNL     1      -5.495  12.906  20.561  0.00  0.00    +0.000 OA
ATOM     10  N   UNL     1      -4.463  14.161  22.170  0.00  0.00    +0.000 N 
ATOM     11  C   UNL     1      -5.755  14.660  22.614  0.00  0.00    +0.000 C 
ATOM     12  C   UNL     1      -3.342  14.526  22.923  0.00  0.00    +0.000 A 
ATOM     13  O   UNL     1      -3.461  15.245  23.919  0.00  0.00    +0.000 OA
ATOM     14  N   UNL     1      -2.098  14.034  22.503  0.00  0.00    +0.000 N 
ATOM     15  C   UNL     1      -0.916  14.379  23.272  0.00  0.00    +0.000 C 
ATOM     16  N   UNL     1      -2.707  12.104  19.651  0.00  0.00    +0.000 N 
ATOM     17  C   UNL     1      -3.444  11.507  18.637  0.00  0.00    +0.000 A 
ATOM     18  O   UNL     1      -4.653  11.665  18.561  0.00  0.00    +0.000 OA
ENDROOT
BRANCH   2  19
ATOM     19  O   UNL     1      -0.604   9.720  17.037  0.00  0.00    +0.000 OA
ATOM     20  H   UNL     1      -0.577  10.067  16.133  0.00  0.00    +0.000 HD
ENDBRANCH   2  19
BRANCH   1  21
ATOM     21  C   UNL     1      -3.567  10.095  16.581  0.00  0.00    +0.000 C 
BRANCH  21  22
ATOM     22  C   UNL     1      -3.363  10.853  15.260  0.00  0.00    +0.000 C 
BRANCH  22  24
ATOM     23  C   UNL     1      -4.022   9.876  13.054  0.00  0.00    +0.000 C 
ATOM     24  C   UNL     1      -2.937   9.933  14.119  0.00  0.00    +0.000 C 
ENDBRANCH  22  24
ENDBRANCH  21  22
ENDBRANCH   1  21
BRANCH   3  25
ATOM     25  C   UNL     1       0.800  11.064  18.987  0.00  0.00    +0.000 C 
BRANCH  25  26
ATOM     26  C   UNL     1       1.235   9.683  19.458  0.00  0.00    +0.000 A 
ATOM     27  C   UNL     1       0.843   9.228  20.725  0.00  0.00    +0.000 A 
ATOM     28  C   UNL     1       1.116   7.918  21.131  0.00  0.00    +0.000 A 
ATOM     29  C   UNL     1       1.800   7.054  20.279  0.00  0.00    +0.000 A 
ATOM     30 CL   UNL     1       2.081   5.424  20.759  0.00  0.00    +0.000 Cl
ATOM     31  C   UNL     1       2.239   7.498  19.034  0.00  0.00    +0.000 A 
ATOM     32  C   UNL     1       1.959   8.808  18.627  0.00  0.00    +0.000 A 
ENDBRANCH  25  26
ENDBRANCH   3  25
TORSDOF 6
ENDMDL
MODEL 2
REMARK VINA RESULT:      -7.1      3.195      4.869
REMARK  Name = 
REMARK  9 active torsions:
REMARK  status: ('A' for Active; 'I' for Inactive)
REMARK    1  A    between atoms: C_1  and  C_2
REMARK    2  A    between atoms: C_2  and  C_3
REMARK    3  A    between atoms: C_3  and  C_4
REMARK    4  A    between atoms: C_4  and  C_5
REMARK    5  A    between atoms: C_6  and  O_7
REMARK    6  A    between atoms: N_8  and  C_9
REMARK    7  A    between atoms: C_9  and  C_10
REMARK    8  A    between atoms: N_23  and  C_24
REMARK    9  A    between atoms: N_27  and  C_28
REMARK                            x       y       z     vdW  Elec       q    Type
REMARK                         _______ _______ _______ _____ _____    ______ ____
ROOT
ATOM      1  C   UNL     1       2.645  13.816  19.192  0.00  0.00    +0.000 A 
ATOM      2  C   UNL     1       2.067  12.725  18.652  0.00  0.00    +0.000 A 
ATOM      3  N   UNL     1       0.958  12.091  19.224  0.00  0.00    +0.000 N 
ATOM      4  C   UNL     1       0.344  12.620  20.338  0.00  0.00    +0.000 A 
ATOM      5  N   UNL     1      -0.722  12.224  21.022  0.00  0.00    +0.000 NA
ATOM      6  C   UNL     1      -0.871  13.157  22.018  0.00  0.00    +0.000 A 
ATOM      7  C   UNL     1       0.083  14.127  21.948  0.00  0.00    +0.000 A 
ATOM      8  C   UNL     1       0.133  15.242  22.840  0.00  0.00    +0.000 A 
ATOM      9  O   UNL     1       0.903  16.186  22.740  0.00  0.00    +0.000 OA
ATOM     10  N   UNL     1      -0.827  15.182  23.848  0.00  0.00    +0.000 N 
ATOM     11  C   UNL     1      -0.826  16.256  24.829  0.00  0.00    +0.000 C 
ATOM     12  C   UNL     1      -1.842  14.226  23.945  0.00  0.00    +0.000 A 
ATOM     13  O   UNL     1      -2.695  14.303  24.835  0.00  0.00    +0.000 OA
ATOM     14  N   UNL     1      -1.852  13.198  22.992  0.00  0.00    +0.000 N 
ATOM     15  C   UNL     1      -2.903  12.199  23.053  0.00  0.00    +0.000 C 
ATOM     16  N   UNL     1       0.879  13.777  20.886  0.00  0.00    +0.000 N 
ATOM     17  C   UNL     1       2.011  14.413  20.395  0.00  0.00    +0.000 A 
ATOM     18  O   UNL     1       2.454  15.416  20.936  0.00  0.00    +0.000 OA
ENDROOT
BRANCH   2  19
ATOM     19  O   UNL     1       2.545  12.162  17.487  0.00  0.00    +0.000 OA
ATOM     20  H   UNL     1       3.513  12.203  17.462  0.00  0.00    +0.000 HD
ENDBRANCH   2  19
BRANCH   1  21
ATOM     21  C   UNL     1       3.885  14.557  18.751  0.00  0.00    +0.000 C 
BRANCH  21  22
ATOM     22  C   UNL     1       3.594  15.391  17.494  0.00  0.00    +0.000 C 
BRANCH  22  24
ATOM     23  C   UNL     1       2.505  17.422  16.523  0.00  0.00    +0.000 C 
ATOM     24  C   UNL     1       2.769  16.638  17.799  0.00  0.00    +0.000 C 
ENDBRANCH  22  24
ENDBRANCH  21  22
ENDBRANCH   1  21
BRANCH   3  25
ATOM     25  C   UNL     1       0.389  10.874  18.615  0.00  0.00    +0.000 C 
BRANCH  25  26
ATOM     26  C   UNL     1       1.139   9.598  18.974  0.00  0.00    +0.000 A 
ATOM     27  C   UNL     1       1.058   9.090  20.278  0.00  0.00    +0.000 A 
ATOM     28  C   UNL     1       1.626   7.854  20.602  0.00  0.00    +0.000 A 
ATOM     29  C   UNL     1       2.299   7.122  19.626  0.00  0.00    +0.000 A 
ATOM     30 CL   UNL     1       2.945   5.574  20.015  0.00  0.00    +0.000 Cl
ATOM     31  C   UNL     1       2.432   7.627  18.335  0.00  0.00    +0.000 A 
ATOM     32  C   UNL     1       1.855   8.862  18.012  0.00  0.00    +0.000 A 
ENDBRANCH  25  26
ENDBRANCH   3  25
TORSDOF 6
ENDMDL
MODEL 3
REMARK VINA RESULT:      -6.9      2.904      3.720
REMARK  Name = 
REMARK  9 active torsions:
REMARK  status: ('A' for Active; 'I' for Inactive)
REMARK    1  A    between atoms: C_1  and  C_2
REMARK    2  A    between atoms: C_2  and  C_3
REMARK    3  A    between atoms: C_3  and  C_4
REMARK    4  A    between atoms: C_4  and  C_5
REMARK    5  A    between atoms: C_6  and  O_7
REMARK    6  A    between atoms: N_8  and  C_9
REMARK    7  A    between atoms: C_9  and  C_10
REMARK    8  A    between atoms: N_23  and  C_24
REMARK    9  A    between atoms: N_27  and  C_28
REMARK                            x       y       z     vdW  Elec       q    Type
REMARK                         _______ _______ _______ _____ _____    ______ ____
ROOT
ATOM      1  C   UNL     1      -2.372  10.581  17.624  0.00  0.00    +0.000 A 
ATOM      2  C   UNL     1      -1.212  10.748  18.290  0.00  0.00    +0.000 A 
ATOM      3  N   UNL     1      -1.092  11.578  19.410  0.00  0.00    +0.000 N 
ATOM      4  C   UNL     1      -2.198  12.203  19.943  0.00  0.00    +0.000 A 
ATOM      5  N   UNL     1      -2.334  12.992  21.002  0.00  0.00    +0.000 NA
ATOM      6  C   UNL     1      -3.673  13.291  21.051  0.00  0.00    +0.000 A 
ATOM      7  C   UNL     1      -4.363  12.688  20.044  0.00  0.00    +0.000 A 
ATOM      8  C   UNL     1      -5.779  12.800  19.888  0.00  0.00    +0.000 A 
ATOM      9  O   UNL     1      -6.444  12.185  19.067  0.00  0.00    +0.000 OA
ATOM     10  N   UNL     1      -6.365  13.667  20.806  0.00  0.00    +0.000 N 
ATOM     11  C   UNL     1      -7.801  13.876  20.698  0.00  0.00    +0.000 C 
ATOM     12  C   UNL     1      -5.706  14.286  21.873  0.00  0.00    +0.000 A 
ATOM     13  O   UNL     1      -6.332  14.979  22.681  0.00  0.00    +0.000 OA
ATOM     14  N   UNL     1      -4.325  14.075  21.986  0.00  0.00    +0.000 N 
ATOM     15  C   UNL     1      -3.613  14.687  23.092  0.00  0.00    +0.000 C 
ATOM     16  N   UNL     1      -3.419  12.006  19.316  0.00  0.00    +0.000 N 
ATOM     17  C   UNL     1      -3.586  11.242  18.169  0.00  0.00    +0.000 A 
ATOM     18  O   UNL     1      -4.683  11.125  17.644  0.00  0.00    +0.000 OA
ENDROOT
BRANCH   2  19
ATOM     19  O   UNL     1      -0.059  10.100  17.897  0.00  0.00    +0.000 OA
ATOM     20  H   UNL     1       0.709  10.459  18.367  0.00  0.00    +0.000 HD
ENDBRANCH   2  19
BRANCH   1  21
ATOM     21  C   UNL     1      -2.644   9.800  16.361  0.00  0.00    +0.000 C 
BRANCH  21  22
ATOM     22  C   UNL     1      -2.854  10.754  15.174  0.00  0.00    +0.000 C 
BRANCH  22  24
ATOM     23  C   UNL     1      -2.744   9.492  13.018  0.00  0.00    +0.000 C 
ATOM     24  C   UNL     1      -3.668  10.118  14.052  0.00  0.00    +0.000 C 
ENDBRANCH  22  24
ENDBRANCH  21  22
ENDBRANCH   1  21
BRANCH   3  25
ATOM     25  C   UNL     1       0.211  11.758  20.078  0.00  0.00    +0.000 C 
BRANCH  25  26
ATOM     26  C   UNL     1       1.049  12.889  19.496  0.00  0.00    +0.000 A 
ATOM     27  C   UNL     1       2.164  12.588  18.701  0.00  0.00    +0.000 A 
ATOM     28  C   UNL     1       2.872  13.601  18.047  0.00  0.00    +0.000 A 
ATOM     29  C   UNL     1       2.481  14.930  18.197  0.00  0.00    +0.000 A 
ATOM     30 CL   UNL     1       3.319  16.168  17.343  0.00  0.00    +0.000 Cl
ATOM     31  C   UNL     1       1.404  15.258  19.017  0.00  0.00    +0.000 A 
ATOM     32  C   UNL     1       0.693  14.240  19.665  0.00  0.00    +0.000 A 
ENDBRANCH  25  26
ENDBRANCH   3  25
TORSDOF 6
ENDMDL
MODEL 4
REMARK VINA RESULT:      -6.8      2.220      3.029
REMARK  Name = 
REMARK  9 active torsions:
REMARK  status: ('A' for Active; 'I' for Inactive)
REMARK    1  A    between atoms: C_1  and  C_2
REMARK    2  A    between atoms: C_2  and  C_3
REMARK    3  A    between atoms: C_3  and  C_4
REMARK    4  A    between atoms: C_4  and  C_5
REMARK    5  A    between atoms: C_6  and  O_7
REMARK    6  A    between atoms: N_8  and  C_9
REMARK    7  A    between atoms: C_9  and  C_10
REMARK    8  A    between atoms: N_23  and  C_24
REMARK    9  A    between atoms: N_27  and  C_28
REMARK                            x       y       z     vdW  Elec       q    Type
REMARK                         _______ _______ _______ _____ _____    ______ ____
ROOT
ATOM      1  C   UNL     1      -1.946  11.244  18.606  0.00  0.00    +0.000 A 
ATOM      2  C   UNL     1      -0.872  10.546  18.186  0.00  0.00    +0.000 A 
ATOM      3  N   UNL     1       0.441  10.901  18.515  0.00  0.00    +0.000 N 
ATOM      4  C   UNL     1       0.691  11.949  19.374  0.00  0.00    +0.000 A 
ATOM      5  N   UNL     1       1.828  12.438  19.853  0.00  0.00    +0.000 NA
ATOM      6  C   UNL     1       1.452  13.467  20.679  0.00  0.00    +0.000 A 
ATOM      7  C   UNL     1       0.098  13.609  20.724  0.00  0.00    +0.000 A 
ATOM      8  C   UNL     1      -0.561  14.580  21.541  0.00  0.00    +0.000 A 
ATOM      9  O   UNL     1      -1.771  14.663  21.692  0.00  0.00    +0.000 OA
ATOM     10  N   UNL     1       0.322  15.428  22.205  0.00  0.00    +0.000 N 
ATOM     11  C   UNL     1      -0.260  16.475  23.030  0.00  0.00    +0.000 C 
ATOM     12  C   UNL     1       1.714  15.305  22.214  0.00  0.00    +0.000 A 
ATOM     13  O   UNL     1       2.408  16.063  22.898  0.00  0.00    +0.000 OA
ATOM     14  N   UNL     1       2.275  14.287  21.429  0.00  0.00    +0.000 N 
ATOM     15  C   UNL     1       3.717  14.119  21.430  0.00  0.00    +0.000 C 
ATOM     16  N   UNL     1      -0.396  12.653  19.872  0.00  0.00    +0.000 N 
ATOM     17  C   UNL     1      -1.714  12.382  19.533  0.00  0.00    +0.000 A 
ATOM     18  O   UNL     1      -2.631  13.054  19.981  0.00  0.00    +0.000 OA
ENDROOT
BRANCH   2  19
ATOM     19  O   UNL     1      -1.010   9.425  17.394  0.00  0.00    +0.000 OA
ATOM     20  H   UNL     1      -0.304   9.389  16.731  0.00  0.00    +0.000 HD
ENDBRANCH   2  19
BRANCH   1  21
ATOM     21  C   UNL     1      -3.405  11.046  18.270  0.00  0.00    +0.000 C 
BRANCH  21  22
ATOM     22  C   UNL     1      -3.688  11.488  16.826  0.00  0.00    +0.000 C 
BRANCH  22  24
ATOM     23  C   UNL     1      -3.013  10.343  14.708  0.00  0.00    +0.000 C 
ATOM     24  C   UNL     1      -3.961  10.309  15.897  0.00  0.00    +0.000 C 
ENDBRANCH  22  24
ENDBRANCH  21  22
ENDBRANCH   1  21
BRANCH   3  25
ATOM     25  C   UNL     1       1.583  10.126  17.995  0.00  0.00    +0.000 C 
BRANCH  25  26
ATOM     26  C   UNL     1       1.847   8.833  18.755  0.00  0.00    +0.000 A 
ATOM     27  C   UNL     1       1.415   8.710  20.084  0.00  0.00    +0.000 A 
ATOM     28  C   UNL     1       1.525   7.493  20.763  0.00  0.00    +0.000 A 
ATOM     29  C   UNL     1       2.086   6.389  20.123  0.00  0.00    +0.000 A 
ATOM     30 CL   UNL     1       2.164   4.876  20.943  0.00  0.00    +0.000 Cl
ATOM     31  C   UNL     1       2.562   6.499  18.819  0.00  0.00    +0.000 A 
ATOM     32  C   UNL     1       2.444   7.718  18.140  0.00  0.00    +0.000 A 
ENDBRANCH  25  26
ENDBRANCH   3  25
TORSDOF 6
ENDMDL
MODEL 5
REMARK VINA RESULT:      -6.7      5.448      8.794
REMARK  Name = 
REMARK  9 active torsions:
REMARK  status: ('A' for Active; 'I' for Inactive)
REMARK    1  A    between atoms: C_1  and  C_2
REMARK    2  A    between atoms: C_2  and  C_3
REMARK    3  A    between atoms: C_3  and  C_4
REMARK    4  A    between atoms: C_4  and  C_5
REMARK    5  A    between atoms: C_6  and  O_7
REMARK    6  A    between atoms: N_8  and  C_9
REMARK    7  A    between atoms: C_9  and  C_10
REMARK    8  A    between atoms: N_23  and  C_24
REMARK    9  A    between atoms: N_27  and  C_28
REMARK                            x       y       z     vdW  Elec       q    Type
REMARK                         _______ _______ _______ _____ _____    ______ ____
ROOT
ATOM      1  C   UNL     1       4.416   4.090  19.102  0.00  0.00    +0.000 A 
ATOM      2  C   UNL     1       5.166   4.592  18.101  0.00  0.00    +0.000 A 
ATOM      3  N   UNL     1       4.934   5.850  17.535  0.00  0.00    +0.000 N 
ATOM      4  C   UNL     1       3.964   6.683  18.049  0.00  0.00    +0.000 A 
ATOM      5  N   UNL     1       3.594   7.912  17.710  0.00  0.00    +0.000 NA
ATOM      6  C   UNL     1       2.593   8.237  18.592  0.00  0.00    +0.000 A 
ATOM      7  C   UNL     1       2.351   7.229  19.475  0.00  0.00    +0.000 A 
ATOM      8  C   UNL     1       1.387   7.323  20.525  0.00  0.00    +0.000 A 
ATOM      9  O   UNL     1       1.221   6.486  21.401  0.00  0.00    +0.000 OA
ATOM     10  N   UNL     1       0.651   8.505  20.491  0.00  0.00    +0.000 N 
ATOM     11  C   UNL     1      -0.384   8.671  21.499  0.00  0.00    +0.000 C 
ATOM     12  C   UNL     1       0.881   9.579  19.625  0.00  0.00    +0.000 A 
ATOM     13  O   UNL     1       0.222  10.618  19.725  0.00  0.00    +0.000 OA
ATOM     14  N   UNL     1       1.887   9.424  18.661  0.00  0.00    +0.000 N 
ATOM     15  C   UNL     1       2.164  10.526  17.758  0.00  0.00    +0.000 C 
ATOM     16  N   UNL     1       3.212   6.220  19.119  0.00  0.00    +0.000 N 
ATOM     17  C   UNL     1       3.359   4.959  19.680  0.00  0.00    +0.000 A 
ATOM     18  O   UNL     1       2.648   4.594  20.604  0.00  0.00    +0.000 OA
ENDROOT
BRANCH   2  19
ATOM     19  O   UNL     1       6.221   3.880  17.568  0.00  0.00    +0.000 OA
ATOM     20  H   UNL     1       6.544   3.224  18.205  0.00  0.00    +0.000 HD
ENDBRANCH   2  19
BRANCH   1  21
ATOM     21  C   UNL     1       4.481   2.729  19.753  0.00  0.00    +0.000 C 
BRANCH  21  22
ATOM     22  C   UNL     1       3.791   1.677  18.870  0.00  0.00    +0.000 C 
BRANCH  22  24
ATOM     23  C   UNL     1       1.325   2.034  18.659  0.00  0.00    +0.000 C 
ATOM     24  C   UNL     1       2.680   2.274  18.011  0.00  0.00    +0.000 C 
ENDBRANCH  22  24
ENDBRANCH  21  22
ENDBRANCH   1  21
BRANCH   3  25
ATOM     25  C   UNL     1       5.759   6.336  16.413  0.00  0.00    +0.000 C 
BRANCH  25  26
ATOM     26  C   UNL     1       5.919   5.324  15.286  0.00  0.00    +0.000 A 
ATOM     27  C   UNL     1       4.801   4.611  14.830  0.00  0.00    +0.000 A 
ATOM     28  C   UNL     1       4.892   3.775  13.713  0.00  0.00    +0.000 A 
ATOM     29  C   UNL     1       6.108   3.631  13.050  0.00  0.00    +0.000 A 
ATOM     30 CL   UNL     1       6.200   2.648  11.639  0.00  0.00    +0.000 Cl
ATOM     31  C   UNL     1       7.243   4.294  13.511  0.00  0.00    +0.000 A 
ATOM     32  C   UNL     1       7.148   5.136  14.626  0.00  0.00    +0.000 A 
ENDBRANCH  25  26
ENDBRANCH   3  25
TORSDOF 6
ENDMDL
MODEL 6
REMARK VINA RESULT:      -6.7      4.005      6.635
REMARK  Name = 
REMARK  9 active torsions:
REMARK  status: ('A' for Active; 'I' for Inactive)
REMARK    1  A    between atoms: C_1  and  C_2
REMARK    2  A    between atoms: C_2  and  C_3
REMARK    3  A    between atoms: C_3  and  C_4
REMARK    4  A    between atoms: C_4  and  C_5
REMARK    5  A    between atoms: C_6  and  O_7
REMARK    6  A    between atoms: N_8  and  C_9
REMARK    7  A    between atoms: C_9  and  C_10
REMARK    8  A    between atoms: N_23  and  C_24
REMARK    9  A    between atoms: N_27  and  C_28
REMARK                            x       y       z     vdW  Elec       q    Type
REMARK                         _______ _______ _______ _____ _____    ______ ____
ROOT
ATOM      1  C   UNL     1       0.263  10.463  20.145  0.00  0.00    +0.000 A 
ATOM      2  C   UNL     1      -0.695  10.568  19.203  0.00  0.00    +0.000 A 
ATOM      3  N   UNL     1      -1.053  11.786  18.615  0.00  0.00    +0.000 N 
ATOM      4  C   UNL     1      -0.363  12.941  18.917  0.00  0.00    +0.000 A 
ATOM      5  N   UNL     1      -0.493  14.183  18.466  0.00  0.00    +0.000 NA
ATOM      6  C   UNL     1       0.485  14.898  19.112  0.00  0.00    +0.000 A 
ATOM      7  C   UNL     1       1.222  14.109  19.943  0.00  0.00    +0.000 A 
ATOM      8  C   UNL     1       2.330  14.594  20.704  0.00  0.00    +0.000 A 
ATOM      9  O   UNL     1       3.080  13.897  21.372  0.00  0.00    +0.000 OA
ATOM     10  N   UNL     1       2.516  15.970  20.587  0.00  0.00    +0.000 N 
ATOM     11  C   UNL     1       3.598  16.560  21.359  0.00  0.00    +0.000 C 
ATOM     12  C   UNL     1       1.808  16.814  19.727  0.00  0.00    +0.000 A 
ATOM     13  O   UNL     1       2.100  18.011  19.639  0.00  0.00    +0.000 OA
ATOM     14  N   UNL     1       0.773  16.243  18.973  0.00  0.00    +0.000 N 
ATOM     15  C   UNL     1       0.029  17.087  18.056  0.00  0.00    +0.000 C 
ATOM     16  N   UNL     1       0.669  12.857  19.840  0.00  0.00    +0.000 N 
ATOM     17  C   UNL     1       1.026  11.688  20.497  0.00  0.00    +0.000 A 
ATOM     18  O   UNL     1       1.927  11.679  21.322  0.00  0.00    +0.000 OA
ENDROOT
BRANCH   2  19
ATOM     19  O   UNL     1      -1.390   9.461  18.759  0.00  0.00    +0.000 OA
ATOM     20  H   UNL     1      -0.939   8.647  19.029  0.00  0.00    +0.000 HD
ENDBRANCH   2  19
BRANCH   1  21
ATOM     21  C   UNL     1       0.700   9.250  20.931  0.00  0.00    +0.000 C 
BRANCH  21  22
ATOM     22  C   UNL     1      -0.376   8.858  21.955  0.00  0.00    +0.000 C 
BRANCH  22  24
ATOM     23  C   UNL     1      -1.286  10.817  23.214  0.00  0.00    +0.000 C 
ATOM     24  C   UNL     1      -0.283   9.674  23.241  0.00  0.00    +0.000 C 
ENDBRANCH  22  24
ENDBRANCH  21  22
ENDBRANCH   1  21
BRANCH   3  25
ATOM     25  C   UNL     1      -2.138  11.852  17.618  0.00  0.00    +0.000 C 
BRANCH  25  26
ATOM     26  C   UNL     1      -3.533  11.820  18.226  0.00  0.00    +0.000 A 
ATOM     27  C   UNL     1      -4.559  11.122  17.572  0.00  0.00    +0.000 A 
ATOM     28  C   UNL     1      -5.813  10.965  18.170  0.00  0.00    +0.000 A 
ATOM     29  C   UNL     1      -6.060  11.522  19.423  0.00  0.00    +0.000 A 
ATOM     30 CL   UNL     1      -7.586  11.275  20.182  0.00  0.00    +0.000 Cl
ATOM     31  C   UNL     1      -5.071  12.258  20.072  0.00  0.00    +0.000 A 
ATOM     32  C   UNL     1      -3.814  12.408  19.473  0.00  0.00    +0.000 A 
ENDBRANCH  25  26
ENDBRANCH   3  25
TORSDOF 6
ENDMDL
MODEL 7
REMARK VINA RESULT:      -6.7      2.738      3.418
REMARK  Name = 
REMARK  9 active torsions:
REMARK  status: ('A' for Active; 'I' for Inactive)
REMARK    1  A    between atoms: C_1  and  C_2
REMARK    2  A    between atoms: C_2  and  C_3
REMARK    3  A    between atoms: C_3  and  C_4
REMARK    4  A    between atoms: C_4  and  C_5
REMARK    5  A    between atoms: C_6  and  O_7
REMARK    6  A    between atoms: N_8  and  C_9
REMARK    7  A    between atoms: C_9  and  C_10
REMARK    8  A    between atoms: N_23  and  C_24
REMARK    9  A    between atoms: N_27  and  C_28
REMARK                            x       y       z     vdW  Elec       q    Type
REMARK                         _______ _______ _______ _____ _____    ______ ____
ROOT
ATOM      1  C   UNL     1      -3.131  11.146  18.009  0.00  0.00    +0.000 A 
ATOM      2  C   UNL     1      -1.869  11.029  18.469  0.00  0.00    +0.000 A 
ATOM      3  N   UNL     1      -1.421  11.670  19.629  0.00  0.00    +0.000 N 
ATOM      4  C   UNL     1      -2.295  12.391  20.415  0.00  0.00    +0.000 A 
ATOM      5  N   UNL     1      -2.113  13.042  21.557  0.00  0.00    +0.000 NA
ATOM      6  C   UNL     1      -3.348  13.548  21.877  0.00  0.00    +0.000 A 
ATOM      7  C   UNL     1      -4.288  13.207  20.953  0.00  0.00    +0.000 A 
ATOM      8  C   UNL     1      -5.666  13.570  21.067  0.00  0.00    +0.000 A 
ATOM      9  O   UNL     1      -6.555  13.189  20.319  0.00  0.00    +0.000 OA
ATOM     10  N   UNL     1      -5.929  14.391  22.161  0.00  0.00    +0.000 N 
ATOM     11  C   UNL     1      -7.299  14.845  22.335  0.00  0.00    +0.000 C 
ATOM     12  C   UNL     1      -5.006  14.744  23.151  0.00  0.00    +0.000 A 
ATOM     13  O   UNL     1      -5.356  15.415  24.125  0.00  0.00    +0.000 OA
ATOM     14  N   UNL     1      -3.687  14.295  22.990  0.00  0.00    +0.000 N 
ATOM     15  C   UNL     1      -2.708  14.628  24.008  0.00  0.00    +0.000 C 
ATOM     16  N   UNL     1      -3.615  12.483  20.001  0.00  0.00    +0.000 N 
ATOM     17  C   UNL     1      -4.100  11.917  18.829  0.00  0.00    +0.000 A 
ATOM     18  O   UNL     1      -5.268  12.055  18.500  0.00  0.00    +0.000 OA
ENDROOT
BRANCH   2  19
ATOM     19  O   UNL     1      -0.933  10.259  17.809  0.00  0.00    +0.000 OA
ATOM     20  H   UNL     1      -0.038  10.579  17.997  0.00  0.00    +0.000 HD
ENDBRANCH   2  19
BRANCH   1  21
ATOM     21  C   UNL     1      -3.739  10.596  16.740  0.00  0.00    +0.000 C 
BRANCH  21  22
ATOM     22  C   UNL     1      -2.937  11.061  15.515  0.00  0.00    +0.000 C 
BRANCH  22  24
ATOM     23  C   UNL     1      -3.939   9.939  13.518  0.00  0.00    +0.000 C 
ATOM     24  C   UNL     1      -2.761   9.955  14.479  0.00  0.00    +0.000 C 
ENDBRANCH  22  24
ENDBRANCH  21  22
ENDBRANCH   1  21
BRANCH   3  25
ATOM     25  C   UNL     1      -0.019  11.542  20.067  0.00  0.00    +0.000 C 
BRANCH  25  26
ATOM     26  C   UNL     1       0.910  12.588  19.465  0.00  0.00    +0.000 A 
ATOM     27  C   UNL     1       2.018  12.179  18.708  0.00  0.00    +0.000 A 
ATOM     28  C   UNL     1       2.810  13.114  18.035  0.00  0.00    +0.000 A 
ATOM     29  C   UNL     1       2.514  14.472  18.129  0.00  0.00    +0.000 A 
ATOM     30 CL   UNL     1       3.456  15.614  17.251  0.00  0.00    +0.000 Cl
ATOM     31  C   UNL     1       1.446  14.905  18.911  0.00  0.00    +0.000 A 
ATOM     32  C   UNL     1       0.650  13.966  19.578  0.00  0.00    +0.000 A 
ENDBRANCH  25  26
ENDBRANCH   3  25
TORSDOF 6
ENDMDL
MODEL 8
REMARK VINA RESULT:      -6.7      2.611      3.432
REMARK  Name = 
REMARK  9 active torsions:
REMARK  status: ('A' for Active; 'I' for Inactive)
REMARK    1  A    between atoms: C_1  and  C_2
REMARK    2  A    between atoms: C_2  and  C_3
REMARK    3  A    between atoms: C_3  and  C_4
REMARK    4  A    between atoms: C_4  and  C_5
REMARK    5  A    between atoms: C_6  and  O_7
REMARK    6  A    between atoms: N_8  and  C_9
REMARK    7  A    between atoms: C_9  and  C_10
REMARK    8  A    between atoms: N_23  and  C_24
REMARK    9  A    between atoms: N_27  and  C_28
REMARK                            x       y       z     vdW  Elec       q    Type
REMARK                         _______ _______ _______ _____ _____    ______ ____
ROOT
ATOM      1  C   UNL     1      -2.261  10.691  18.126  0.00  0.00    +0.000 A 
ATOM      2  C   UNL     1      -0.964  10.625  18.488  0.00  0.00    +0.000 A 
ATOM      3  N   UNL     1      -0.433  11.365  19.550  0.00  0.00    +0.000 N 
ATOM      4  C   UNL     1      -1.250  12.142  20.342  0.00  0.00    +0.000 A 
ATOM      5  N   UNL     1      -0.985  12.889  21.407  0.00  0.00    +0.000 NA
ATOM      6  C   UNL     1      -2.198  13.410  21.785  0.00  0.00    +0.000 A 
ATOM      7  C   UNL     1      -3.205  12.983  20.974  0.00  0.00    +0.000 A 
ATOM      8  C   UNL     1      -4.574  13.342  21.171  0.00  0.00    +0.000 A 
ATOM      9  O   UNL     1      -5.516  12.892  20.534  0.00  0.00    +0.000 OA
ATOM     10  N   UNL     1      -4.759  14.250  22.211  0.00  0.00    +0.000 N 
ATOM     11  C   UNL     1      -6.118  14.705  22.460  0.00  0.00    +0.000 C 
ATOM     12  C   UNL     1      -3.764  14.694  23.088  0.00  0.00    +0.000 A 
ATOM     13  O   UNL     1      -4.044  15.442  24.029  0.00  0.00    +0.000 OA
ATOM     14  N   UNL     1      -2.456  14.245  22.856  0.00  0.00    +0.000 N 
ATOM     15  C   UNL     1      -1.402  14.671  23.758  0.00  0.00    +0.000 C 
ATOM     16  N   UNL     1      -2.601  12.187  20.033  0.00  0.00    +0.000 N 
ATOM     17  C   UNL     1      -3.171  11.521  18.957  0.00  0.00    +0.000 A 
ATOM     18  O   UNL     1      -4.365  11.619  18.716  0.00  0.00    +0.000 OA
ENDROOT
BRANCH   2  19
ATOM     19  O   UNL     1      -0.073   9.810  17.820  0.00  0.00    +0.000 OA
ATOM     20  H   UNL     1      -0.442   9.531  16.968  0.00  0.00    +0.000 HD
ENDBRANCH   2  19
BRANCH   1  21
ATOM     21  C   UNL     1      -2.962  10.031  16.963  0.00  0.00    +0.000 C 
BRANCH  21  22
ATOM     22  C   UNL     1      -2.787  10.867  15.686  0.00  0.00    +0.000 C 
BRANCH  22  24
ATOM     23  C   UNL     1      -4.080  10.039  13.713  0.00  0.00    +0.000 C 
ATOM     24  C   UNL     1      -2.738  10.007  14.427  0.00  0.00    +0.000 C 
ENDBRANCH  22  24
ENDBRANCH  21  22
ENDBRANCH   1  21
BRANCH   3  25
ATOM     25  C   UNL     1       1.003  11.287  19.878  0.00  0.00    +0.000 C 
BRANCH  25  26
ATOM     26  C   UNL     1       1.778  12.556  19.549  0.00  0.00    +0.000 A 
ATOM     27  C   UNL     1       1.904  12.966  18.214  0.00  0.00    +0.000 A 
ATOM     28  C   UNL     1       2.495  14.191  17.893  0.00  0.00    +0.000 A 
ATOM     29  C   UNL     1       2.984  15.014  18.907  0.00  0.00    +0.000 A 
ATOM     30 CL   UNL     1       3.656  16.549  18.511  0.00  0.00    +0.000 Cl
ATOM     31  C   UNL     1       2.911  14.608  20.237  0.00  0.00    +0.000 A 
ATOM     32  C   UNL     1       2.312  13.383  20.556  0.00  0.00    +0.000 A 
ENDBRANCH  25  26
ENDBRANCH   3  25
TORSDOF 6
ENDMDL
MODEL 9
REMARK VINA RESULT:      -6.7      3.916      6.531
REMARK  Name = 
REMARK  9 active torsions:
REMARK  status: ('A' for Active; 'I' for Inactive)
REMARK    1  A    between atoms: C_1  and  C_2
REMARK    2  A    between atoms: C_2  and  C_3
REMARK    3  A    between atoms: C_3  and  C_4
REMARK    4  A    between atoms: C_4  and  C_5
REMARK    5  A    between atoms: C_6  and  O_7
REMARK    6  A    between atoms: N_8  and  C_9
REMARK    7  A    between atoms: C_9  and  C_10
REMARK    8  A    between atoms: N_23  and  C_24
REMARK    9  A    between atoms: N_27  and  C_28
REMARK                            x       y       z     vdW  Elec       q    Type
REMARK                         _______ _______ _______ _____ _____    ______ ____
ROOT
ATOM      1  C   UNL     1       0.520  10.785  18.520  0.00  0.00    +0.000 A 
ATOM      2  C   UNL     1      -0.790  11.027  18.727  0.00  0.00    +0.000 A 
ATOM      3  N   UNL     1      -1.288  12.298  19.038  0.00  0.00    +0.000 N 
ATOM      4  C   UNL     1      -0.452  13.394  19.059  0.00  0.00    +0.000 A 
ATOM      5  N   UNL     1      -0.698  14.678  19.286  0.00  0.00    +0.000 NA
ATOM      6  C   UNL     1       0.519  15.301  19.150  0.00  0.00    +0.000 A 
ATOM      7  C   UNL     1       1.505  14.417  18.831  0.00  0.00    +0.000 A 
ATOM      8  C   UNL     1       2.858  14.808  18.591  0.00  0.00    +0.000 A 
ATOM      9  O   UNL     1       3.743  14.063  18.195  0.00  0.00    +0.000 OA
ATOM     10  N   UNL     1       3.087  16.164  18.816  0.00  0.00    +0.000 N 
ATOM     11  C   UNL     1       4.447  16.646  18.636  0.00  0.00    +0.000 C 
ATOM     12  C   UNL     1       2.104  17.113  19.116  0.00  0.00    +0.000 A 
ATOM     13  O   UNL     1       2.397  18.308  19.222  0.00  0.00    +0.000 OA
ATOM     14  N   UNL     1       0.791  16.651  19.276  0.00  0.00    +0.000 N 
ATOM     15  C   UNL     1      -0.256  17.612  19.570  0.00  0.00    +0.000 C 
ATOM     16  N   UNL     1       0.893  13.189  18.792  0.00  0.00    +0.000 N 
ATOM     17  C   UNL     1       1.451  11.944  18.536  0.00  0.00    +0.000 A 
ATOM     18  O   UNL     1       2.649  11.819  18.335  0.00  0.00    +0.000 OA
ENDROOT
BRANCH   2  19
ATOM     19  O   UNL     1      -1.728  10.019  18.644  0.00  0.00    +0.000 OA
ATOM     20  H   UNL     1      -1.417   9.314  18.056  0.00  0.00    +0.000 HD
ENDBRANCH   2  19
BRANCH   1  21
ATOM     21  C   UNL     1       1.219   9.472  18.266  0.00  0.00    +0.000 C 
BRANCH  21  22
ATOM     22  C   UNL     1       1.481   8.738  19.590  0.00  0.00    +0.000 C 
BRANCH  22  24
ATOM     23  C   UNL     1       2.899   7.417  18.011  0.00  0.00    +0.000 C 
ATOM     24  C   UNL     1       2.273   7.448  19.396  0.00  0.00    +0.000 C 
ENDBRANCH  22  24
ENDBRANCH  21  22
ENDBRANCH   1  21
BRANCH   3  25
ATOM     25  C   UNL     1      -2.726  12.501  19.296  0.00  0.00    +0.000 C 
BRANCH  25  26
ATOM     26  C   UNL     1      -3.077  12.592  20.775  0.00  0.00    +0.000 A 
ATOM     27  C   UNL     1      -4.360  13.012  21.159  0.00  0.00    +0.000 A 
ATOM     28  C   UNL     1      -4.752  12.979  22.500  0.00  0.00    +0.000 A 
ATOM     29  C   UNL     1      -3.858  12.544  23.476  0.00  0.00    +0.000 A 
ATOM     30 CL   UNL     1      -4.366  12.449  25.119  0.00  0.00    +0.000 Cl
ATOM     31  C   UNL     1      -2.565  12.165  23.125  0.00  0.00    +0.000 A 
ATOM     32  C   UNL     1      -2.176  12.192  21.779  0.00  0.00    +0.000 A 
ENDBRANCH  25  26
ENDBRANCH   3  25
TORSDOF 6
ENDMDL
