MODEL 1
REMARK VINA RESULT:      -8.5      0.000      0.000
REMARK  Name = 
REMARK  10 active torsions:
REMARK  status: ('A' for Active; 'I' for Inactive)
REMARK    1  A    between atoms: C_1  and  O_2
REMARK    2  A    between atoms: O_2  and  C_3
REMARK    3  A    between atoms: C_7  and  C_8
REMARK    4  A    between atoms: C_8  and  N_9
REMARK    5  A    between atoms: C_13  and  C_14
REMARK    6  A    between atoms: C_14  and  C_15
REMARK    7  A    between atoms: C_15  and  C_16
REMARK    8  A    between atoms: N_18  and  C_19
REMARK    9  A    between atoms: C_22  and  C_23
REMARK   10  A    between atoms: C_30  and  O_31
REMARK                            x       y       z     vdW  Elec       q    Type
REMARK                         _______ _______ _______ _____ _____    ______ ____
ROOT
ATOM      1  N   UNL     1       2.243   3.294  18.306  0.00  0.00    +0.000 NA
ATOM      2  C   UNL     1       2.214   2.323  19.398  0.00  0.00    +0.000 C 
ATOM      3  C   UNL     1       1.475   2.753  20.664  0.00  0.00    +0.000 C 
ATOM      4  C   UNL     1       1.890   4.147  21.095  0.00  0.00    +0.000 C 
ATOM      5  C   UNL     1       1.602   5.137  19.967  0.00  0.00    +0.000 C 
ATOM      6  C   UNL     1       2.308   4.707  18.670  0.00  0.00    +0.000 C 
ENDROOT
BRANCH   1   7
ATOM      7  C   UNL     1       3.205   2.971  17.225  0.00  0.00    +0.000 C 
BRANCH   7  12
ATOM      8  C   UNL     1       6.572   4.735  17.989  0.00  0.00    +0.000 A 
ATOM      9  C   UNL     1       6.754   5.441  16.801  0.00  0.00    +0.000 A 
ATOM     10  C   UNL     1       5.814   5.376  15.780  0.00  0.00    +0.000 A 
ATOM     11  C   UNL     1       4.673   4.584  15.940  0.00  0.00    +0.000 A 
ATOM     12  C   UNL     1       4.458   3.838  17.115  0.00  0.00    +0.000 A 
ATOM     13  C   UNL     1       5.436   3.916  18.134  0.00  0.00    +0.000 A 
BRANCH   8  15
ATOM     14  C   UNL     1       8.074   6.220  19.081  0.00  0.00    +0.000 C 
ATOM     15  O   UNL     1       7.594   4.895  18.890  0.00  0.00    +0.000 OA
ENDBRANCH   8  15
BRANCH  13  16
ATOM     16  O   UNL     1       5.317   3.174  19.279  0.00  0.00    +0.000 OA
ATOM     17  H   UNL     1       4.699   3.596  19.894  0.00  0.00    +0.000 HD
ENDBRANCH  13  16
ENDBRANCH   7  12
ENDBRANCH   1   7
BRANCH   5  18
ATOM     18  C   UNL     1       2.066   6.539  20.396  0.00  0.00    +0.000 C 
BRANCH  18  19
ATOM     19  C   UNL     1       2.243   7.542  19.244  0.00  0.00    +0.000 C 
BRANCH  19  20
ATOM     20  C   UNL     1       1.503   8.824  19.560  0.00  0.00    +0.000 C 
ATOM     21  O   UNL     1       1.148   9.592  18.669  0.00  0.00    +0.000 OA
ATOM     22  N   UNL     1       1.280   9.004  20.918  0.00  0.00    +0.000 N 
ATOM     23  H   UNL     1       1.785   8.404  21.558  0.00  0.00    +0.000 HD
BRANCH  22  24
ATOM     24  C   UNL     1       0.505  10.038  21.486  0.00  0.00    +0.000 A 
ATOM     25  C   UNL     1       0.575  11.363  21.045  0.00  0.00    +0.000 A 
ATOM     26  C   UNL     1      -0.208  12.359  21.632  0.00  0.00    +0.000 A 
ATOM     27  C   UNL     1      -1.088  12.049  22.672  0.00  0.00    +0.000 A 
ATOM     28  C   UNL     1      -1.166  10.719  23.113  0.00  0.00    +0.000 A 
ATOM     29  C   UNL     1      -0.384   9.720  22.517  0.00  0.00    +0.000 A 
BRANCH  27  30
ATOM     30  C   UNL     1      -1.943  13.125  23.293  0.00  0.00    +0.000 C 
ATOM     31  F   UNL     1      -2.532  13.947  22.380  0.00  0.00    +0.000 F 
ATOM     32  F   UNL     1      -2.959  12.610  24.039  0.00  0.00    +0.000 F 
ATOM     33  F   UNL     1      -1.240  13.938  24.128  0.00  0.00    +0.000 F 
ENDBRANCH  27  30
ENDBRANCH  22  24
ENDBRANCH  19  20
ENDBRANCH  18  19
ENDBRANCH   5  18
TORSDOF 9
ENDMDL
MODEL 2
REMARK VINA RESULT:      -8.2      1.116      1.496
REMARK  Name = 
REMARK  10 active torsions:
REMARK  status: ('A' for Active; 'I' for Inactive)
REMARK    1  A    between atoms: C_1  and  O_2
REMARK    2  A    between atoms: O_2  and  C_3
REMARK    3  A    between atoms: C_7  and  C_8
REMARK    4  A    between atoms: C_8  and  N_9
REMARK    5  A    between atoms: C_13  and  C_14
REMARK    6  A    between atoms: C_14  and  C_15
REMARK    7  A    between atoms: C_15  and  C_16
REMARK    8  A    between atoms: N_18  and  C_19
REMARK    9  A    between atoms: C_22  and  C_23
REMARK   10  A    between atoms: C_30  and  O_31
REMARK                            x       y       z     vdW  Elec       q    Type
REMARK                         _______ _______ _______ _____ _____    ______ ____
ROOT
ATOM      1  N   UNL     1       2.516   4.035  18.223  0.00  0.00    +0.000 NA
ATOM      2  C   UNL     1       2.304   3.727  19.637  0.00  0.00    +0.000 C 
ATOM      3  C   UNL     1       1.539   4.771  20.447  0.00  0.00    +0.000 C 
ATOM      4  C   UNL     1       2.082   6.166  20.198  0.00  0.00    +0.000 C 
ATOM      5  C   UNL     1       1.984   6.494  18.709  0.00  0.00    +0.000 C 
ATOM      6  C   UNL     1       2.719   5.437  17.868  0.00  0.00    +0.000 C 
ENDROOT
BRANCH   1   7
ATOM      7  C   UNL     1       3.503   3.159  17.547  0.00  0.00    +0.000 C 
BRANCH   7  12
ATOM      8  C   UNL     1       6.969   4.891  17.409  0.00  0.00    +0.000 A 
ATOM      9  C   UNL     1       7.158   4.952  16.030  0.00  0.00    +0.000 A 
ATOM     10  C   UNL     1       6.192   4.471  15.154  0.00  0.00    +0.000 A 
ATOM     11  C   UNL     1       5.018   3.907  15.662  0.00  0.00    +0.000 A 
ATOM     12  C   UNL     1       4.794   3.806  17.049  0.00  0.00    +0.000 A 
ATOM     13  C   UNL     1       5.798   4.296  17.917  0.00  0.00    +0.000 A 
BRANCH   8  15
ATOM     14  C   UNL     1       7.973   6.784  18.439  0.00  0.00    +0.000 C 
ATOM     15  O   UNL     1       8.018   5.395  18.135  0.00  0.00    +0.000 OA
ENDBRANCH   8  15
BRANCH  13  16
ATOM     16  O   UNL     1       5.669   4.179  19.275  0.00  0.00    +0.000 OA
ATOM     17  H   UNL     1       5.199   4.944  19.638  0.00  0.00    +0.000 HD
ENDBRANCH  13  16
ENDBRANCH   7  12
ENDBRANCH   1   7
BRANCH   5  18
ATOM     18  C   UNL     1       2.577   7.891  18.460  0.00  0.00    +0.000 C 
BRANCH  18  19
ATOM     19  C   UNL     1       1.646   8.866  17.723  0.00  0.00    +0.000 C 
BRANCH  19  20
ATOM     20  C   UNL     1       1.235   9.988  18.652  0.00  0.00    +0.000 C 
ATOM     21  O   UNL     1       1.750  11.100  18.577  0.00  0.00    +0.000 OA
ATOM     22  N   UNL     1       0.242   9.617  19.549  0.00  0.00    +0.000 N 
ATOM     23  H   UNL     1       0.040   8.630  19.639  0.00  0.00    +0.000 HD
BRANCH  22  24
ATOM     24  C   UNL     1      -0.420  10.491  20.438  0.00  0.00    +0.000 A 
ATOM     25  C   UNL     1      -1.341  11.450  20.008  0.00  0.00    +0.000 A 
ATOM     26  C   UNL     1      -1.976  12.297  20.918  0.00  0.00    +0.000 A 
ATOM     27  C   UNL     1      -1.707  12.199  22.285  0.00  0.00    +0.000 A 
ATOM     28  C   UNL     1      -0.787  11.234  22.722  0.00  0.00    +0.000 A 
ATOM     29  C   UNL     1      -0.157  10.379  21.806  0.00  0.00    +0.000 A 
BRANCH  27  30
ATOM     30  C   UNL     1      -2.406  13.106  23.267  0.00  0.00    +0.000 C 
ATOM     31  F   UNL     1      -1.551  13.778  24.090  0.00  0.00    +0.000 F 
ATOM     32  F   UNL     1      -3.152  14.061  22.648  0.00  0.00    +0.000 F 
ATOM     33  F   UNL     1      -3.260  12.433  24.087  0.00  0.00    +0.000 F 
ENDBRANCH  27  30
ENDBRANCH  22  24
ENDBRANCH  19  20
ENDBRANCH  18  19
ENDBRANCH   5  18
TORSDOF 9
ENDMDL
MODEL 3
REMARK VINA RESULT:      -8.2      2.805      3.146
REMARK  Name = 
REMARK  10 active torsions:
REMARK  status: ('A' for Active; 'I' for Inactive)
REMARK    1  A    between atoms: C_1  and  O_2
REMARK    2  A    between atoms: O_2  and  C_3
REMARK    3  A    between atoms: C_7  and  C_8
REMARK    4  A    between atoms: C_8  and  N_9
REMARK    5  A    between atoms: C_13  and  C_14
REMARK    6  A    between atoms: C_14  and  C_15
REMARK    7  A    between atoms: C_15  and  C_16
REMARK    8  A    between atoms: N_18  and  C_19
REMARK    9  A    between atoms: C_22  and  C_23
REMARK   10  A    between atoms: C_30  and  O_31
REMARK                            x       y       z     vdW  Elec       q    Type
REMARK                         _______ _______ _______ _____ _____    ______ ____
ROOT
ATOM      1  N   UNL     1       2.276   4.183  18.107  0.00  0.00    +0.000 NA
ATOM      2  C   UNL     1       2.031   3.770  19.487  0.00  0.00    +0.000 C 
ATOM      3  C   UNL     1       1.349   4.797  20.389  0.00  0.00    +0.000 C 
ATOM      4  C   UNL     1       2.008   6.158  20.266  0.00  0.00    +0.000 C 
ATOM      5  C   UNL     1       1.947   6.625  18.812  0.00  0.00    +0.000 C 
ATOM      6  C   UNL     1       2.598   5.590  17.879  0.00  0.00    +0.000 C 
ENDROOT
BRANCH   1   7
ATOM      7  C   UNL     1       3.192   3.293  17.355  0.00  0.00    +0.000 C 
BRANCH   7  12
ATOM      8  C   UNL     1       6.833   4.557  17.772  0.00  0.00    +0.000 A 
ATOM      9  C   UNL     1       7.188   4.727  16.435  0.00  0.00    +0.000 A 
ATOM     10  C   UNL     1       6.281   4.466  15.416  0.00  0.00    +0.000 A 
ATOM     11  C   UNL     1       4.996   4.015  15.733  0.00  0.00    +0.000 A 
ATOM     12  C   UNL     1       4.601   3.809  17.069  0.00  0.00    +0.000 A 
ATOM     13  C   UNL     1       5.548   4.075  18.086  0.00  0.00    +0.000 A 
BRANCH   8  15
ATOM     14  C   UNL     1       8.060   6.219  18.949  0.00  0.00    +0.000 C 
ATOM     15  O   UNL     1       7.843   4.845  18.654  0.00  0.00    +0.000 OA
ENDBRANCH   8  15
BRANCH  13  16
ATOM     16  O   UNL     1       5.247   3.844  19.402  0.00  0.00    +0.000 OA
ATOM     17  H   UNL     1       5.829   4.361  19.978  0.00  0.00    +0.000 HD
ENDBRANCH  13  16
ENDBRANCH   7  12
ENDBRANCH   1   7
BRANCH   5  18
ATOM     18  C   UNL     1       2.656   7.984  18.689  0.00  0.00    +0.000 C 
BRANCH  18  19
ATOM     19  C   UNL     1       1.951   9.001  17.777  0.00  0.00    +0.000 C 
BRANCH  19  20
ATOM     20  C   UNL     1       0.726   9.554  18.472  0.00  0.00    +0.000 C 
ATOM     21  O   UNL     1       0.733   9.802  19.675  0.00  0.00    +0.000 OA
ATOM     22  N   UNL     1      -0.348   9.745  17.614  0.00  0.00    +0.000 N 
ATOM     23  H   UNL     1      -0.291   9.325  16.695  0.00  0.00    +0.000 HD
BRANCH  22  24
ATOM     24  C   UNL     1      -1.567  10.367  17.961  0.00  0.00    +0.000 A 
ATOM     25  C   UNL     1      -2.796   9.968  17.431  0.00  0.00    +0.000 A 
ATOM     26  C   UNL     1      -3.981  10.608  17.799  0.00  0.00    +0.000 A 
ATOM     27  C   UNL     1      -3.962  11.662  18.715  0.00  0.00    +0.000 A 
ATOM     28  C   UNL     1      -2.731  12.063  19.254  0.00  0.00    +0.000 A 
ATOM     29  C   UNL     1      -1.544  11.413  18.889  0.00  0.00    +0.000 A 
BRANCH  27  30
ATOM     30  C   UNL     1      -5.246  12.342  19.122  0.00  0.00    +0.000 C 
ATOM     31  F   UNL     1      -6.206  12.314  18.155  0.00  0.00    +0.000 F 
ATOM     32  F   UNL     1      -5.808  11.769  20.221  0.00  0.00    +0.000 F 
ATOM     33  F   UNL     1      -5.068  13.656  19.432  0.00  0.00    +0.000 F 
ENDBRANCH  27  30
ENDBRANCH  22  24
ENDBRANCH  19  20
ENDBRANCH  18  19
ENDBRANCH   5  18
TORSDOF 9
ENDMDL
MODEL 4
REMARK VINA RESULT:      -8.1      1.144      1.753
REMARK  Name = 
REMARK  10 active torsions:
REMARK  status: ('A' for Active; 'I' for Inactive)
REMARK    1  A    between atoms: C_1  and  O_2
REMARK    2  A    between atoms: O_2  and  C_3
REMARK    3  A    between atoms: C_7  and  C_8
REMARK    4  A    between atoms: C_8  and  N_9
REMARK    5  A    between atoms: C_13  and  C_14
REMARK    6  A    between atoms: C_14  and  C_15
REMARK    7  A    between atoms: C_15  and  C_16
REMARK    8  A    between atoms: N_18  and  C_19
REMARK    9  A    between atoms: C_22  and  C_23
REMARK   10  A    between atoms: C_30  and  O_31
REMARK                            x       y       z     vdW  Elec       q    Type
REMARK                         _______ _______ _______ _____ _____    ______ ____
ROOT
ATOM      1  N   UNL     1       2.304   4.333  18.242  0.00  0.00    +0.000 NA
ATOM      2  C   UNL     1       2.314   4.109  19.687  0.00  0.00    +0.000 C 
ATOM      3  C   UNL     1       1.715   5.220  20.546  0.00  0.00    +0.000 C 
ATOM      4  C   UNL     1       2.246   6.580  20.134  0.00  0.00    +0.000 C 
ATOM      5  C   UNL     1       1.918   6.831  18.662  0.00  0.00    +0.000 C 
ATOM      6  C   UNL     1       2.482   5.707  17.778  0.00  0.00    +0.000 C 
ENDROOT
BRANCH   1   7
ATOM      7  C   UNL     1       3.147   3.390  17.470  0.00  0.00    +0.000 C 
BRANCH   7  12
ATOM      8  C   UNL     1       6.876   4.438  17.653  0.00  0.00    +0.000 A 
ATOM      9  C   UNL     1       7.134   4.663  16.303  0.00  0.00    +0.000 A 
ATOM     10  C   UNL     1       6.135   4.507  15.349  0.00  0.00    +0.000 A 
ATOM     11  C   UNL     1       4.856   4.106  15.745  0.00  0.00    +0.000 A 
ATOM     12  C   UNL     1       4.556   3.847  17.097  0.00  0.00    +0.000 A 
ATOM     13  C   UNL     1       5.594   4.007  18.046  0.00  0.00    +0.000 A 
BRANCH   8  15
ATOM     14  C   UNL     1       7.995   5.823  19.228  0.00  0.00    +0.000 C 
ATOM     15  O   UNL     1       7.966   4.624  18.464  0.00  0.00    +0.000 OA
ENDBRANCH   8  15
BRANCH  13  16
ATOM     16  O   UNL     1       5.385   3.719  19.368  0.00  0.00    +0.000 OA
ATOM     17  H   UNL     1       6.164   3.287  19.748  0.00  0.00    +0.000 HD
ENDBRANCH  13  16
ENDBRANCH   7  12
ENDBRANCH   1   7
BRANCH   5  18
ATOM     18  C   UNL     1       2.499   8.192  18.242  0.00  0.00    +0.000 C 
BRANCH  18  19
ATOM     19  C   UNL     1       1.465   9.202  17.720  0.00  0.00    +0.000 C 
BRANCH  19  20
ATOM     20  C   UNL     1       1.125  10.199  18.808  0.00  0.00    +0.000 C 
ATOM     21  O   UNL     1       1.827  11.187  19.010  0.00  0.00    +0.000 OA
ATOM     22  N   UNL     1      -0.031   9.873  19.504  0.00  0.00    +0.000 N 
ATOM     23  H   UNL     1      -0.408   8.944  19.373  0.00  0.00    +0.000 HD
BRANCH  22  24
ATOM     24  C   UNL     1      -0.652  10.687  20.476  0.00  0.00    +0.000 A 
ATOM     25  C   UNL     1      -0.383  10.569  21.842  0.00  0.00    +0.000 A 
ATOM     26  C   UNL     1      -1.018  11.393  22.774  0.00  0.00    +0.000 A 
ATOM     27  C   UNL     1      -1.935  12.360  22.357  0.00  0.00    +0.000 A 
ATOM     28  C   UNL     1      -2.205  12.485  20.986  0.00  0.00    +0.000 A 
ATOM     29  C   UNL     1      -1.559  11.662  20.052  0.00  0.00    +0.000 A 
BRANCH  27  30
ATOM     30  C   UNL     1      -2.609  13.258  23.365  0.00  0.00    +0.000 C 
ATOM     31  F   UNL     1      -3.539  12.618  24.127  0.00  0.00    +0.000 F 
ATOM     32  F   UNL     1      -1.723  13.805  24.243  0.00  0.00    +0.000 F 
ATOM     33  F   UNL     1      -3.258  14.304  22.785  0.00  0.00    +0.000 F 
ENDBRANCH  27  30
ENDBRANCH  22  24
ENDBRANCH  19  20
ENDBRANCH  18  19
ENDBRANCH   5  18
TORSDOF 9
ENDMDL
MODEL 5
REMARK VINA RESULT:      -8.1      6.680     10.675
REMARK  Name = 
REMARK  10 active torsions:
REMARK  status: ('A' for Active; 'I' for Inactive)
REMARK    1  A    between atoms: C_1  and  O_2
REMARK    2  A    between atoms: O_2  and  C_3
REMARK    3  A    between atoms: C_7  and  C_8
REMARK    4  A    between atoms: C_8  and  N_9
REMARK    5  A    between atoms: C_13  and  C_14
REMARK    6  A    between atoms: C_14  and  C_15
REMARK    7  A    between atoms: C_15  and  C_16
REMARK    8  A    between atoms: N_18  and  C_19
REMARK    9  A    between atoms: C_22  and  C_23
REMARK   10  A    between atoms: C_30  and  O_31
REMARK                            x       y       z     vdW  Elec       q    Type
REMARK                         _______ _______ _______ _____ _____    ______ ____
ROOT
ATOM      1  N   UNL     1       9.431  12.675  20.207  0.00  0.00    +0.000 NA
ATOM      2  C   UNL     1      10.538  13.100  19.353  0.00  0.00    +0.000 C 
ATOM      3  C   UNL     1      10.556  12.529  17.937  0.00  0.00    +0.000 C 
ATOM      4  C   UNL     1      10.332  11.028  17.947  0.00  0.00    +0.000 C 
ATOM      5  C   UNL     1       8.993  10.716  18.613  0.00  0.00    +0.000 C 
ATOM      6  C   UNL     1       8.936  11.311  20.030  0.00  0.00    +0.000 C 
ENDROOT
BRANCH   1   7
ATOM      7  C   UNL     1       9.603  13.003  21.642  0.00  0.00    +0.000 C 
BRANCH   7  12
ATOM      8  C   UNL     1       6.083  13.285  23.243  0.00  0.00    +0.000 A 
ATOM      9  C   UNL     1       6.215  12.372  24.288  0.00  0.00    +0.000 A 
ATOM     10  C   UNL     1       7.409  11.692  24.496  0.00  0.00    +0.000 A 
ATOM     11  C   UNL     1       8.491  11.916  23.639  0.00  0.00    +0.000 A 
ATOM     12  C   UNL     1       8.396  12.814  22.559  0.00  0.00    +0.000 A 
ATOM     13  C   UNL     1       7.166  13.487  22.366  0.00  0.00    +0.000 A 
BRANCH   8  15
ATOM     14  C   UNL     1       4.727  15.194  23.653  0.00  0.00    +0.000 C 
ATOM     15  O   UNL     1       4.842  13.863  23.166  0.00  0.00    +0.000 OA
ENDBRANCH   8  15
BRANCH  13  16
ATOM     16  O   UNL     1       6.988  14.332  21.303  0.00  0.00    +0.000 OA
ATOM     17  H   UNL     1       7.348  13.939  20.494  0.00  0.00    +0.000 HD
ENDBRANCH  13  16
ENDBRANCH   7  12
ENDBRANCH   1   7
BRANCH   5  18
ATOM     18  C   UNL     1       8.795   9.192  18.658  0.00  0.00    +0.000 C 
BRANCH  18  19
ATOM     19  C   UNL     1       7.956   8.614  17.508  0.00  0.00    +0.000 C 
BRANCH  19  20
ATOM     20  C   UNL     1       7.451   7.237  17.880  0.00  0.00    +0.000 C 
ATOM     21  O   UNL     1       8.062   6.526  18.673  0.00  0.00    +0.000 OA
ATOM     22  N   UNL     1       6.260   6.905  17.249  0.00  0.00    +0.000 N 
ATOM     23  H   UNL     1       5.960   7.490  16.480  0.00  0.00    +0.000 HD
BRANCH  22  24
ATOM     24  C   UNL     1       5.498   5.745  17.507  0.00  0.00    +0.000 A 
ATOM     25  C   UNL     1       4.974   4.944  16.490  0.00  0.00    +0.000 A 
ATOM     26  C   UNL     1       4.225   3.803  16.785  0.00  0.00    +0.000 A 
ATOM     27  C   UNL     1       3.987   3.434  18.112  0.00  0.00    +0.000 A 
ATOM     28  C   UNL     1       4.516   4.233  19.137  0.00  0.00    +0.000 A 
ATOM     29  C   UNL     1       5.275   5.373  18.837  0.00  0.00    +0.000 A 
BRANCH  27  30
ATOM     30  C   UNL     1       3.190   2.194  18.428  0.00  0.00    +0.000 C 
ATOM     31  F   UNL     1       2.343   2.346  19.484  0.00  0.00    +0.000 F 
ATOM     32  F   UNL     1       2.412   1.799  17.383  0.00  0.00    +0.000 F 
ATOM     33  F   UNL     1       3.978   1.127  18.734  0.00  0.00    +0.000 F 
ENDBRANCH  27  30
ENDBRANCH  22  24
ENDBRANCH  19  20
ENDBRANCH  18  19
ENDBRANCH   5  18
TORSDOF 9
ENDMDL
MODEL 6
REMARK VINA RESULT:      -8.0      1.640      2.384
REMARK  Name = 
REMARK  10 active torsions:
REMARK  status: ('A' for Active; 'I' for Inactive)
REMARK    1  A    between atoms: C_1  and  O_2
REMARK    2  A    between atoms: O_2  and  C_3
REMARK    3  A    between atoms: C_7  and  C_8
REMARK    4  A    between atoms: C_8  and  N_9
REMARK    5  A    between atoms: C_13  and  C_14
REMARK    6  A    between atoms: C_14  and  C_15
REMARK    7  A    between atoms: C_15  and  C_16
REMARK    8  A    between atoms: N_18  and  C_19
REMARK    9  A    between atoms: C_22  and  C_23
REMARK   10  A    between atoms: C_30  and  O_31
REMARK                            x       y       z     vdW  Elec       q    Type
REMARK                         _______ _______ _______ _____ _____    ______ ____
ROOT
ATOM      1  N   UNL     1       3.586   3.753  19.287  0.00  0.00    +0.000 NA
ATOM      2  C   UNL     1       2.897   2.535  19.710  0.00  0.00    +0.000 C 
ATOM      3  C   UNL     1       1.396   2.661  19.960  0.00  0.00    +0.000 C 
ATOM      4  C   UNL     1       1.081   3.872  20.818  0.00  0.00    +0.000 C 
ATOM      5  C   UNL     1       1.598   5.134  20.129  0.00  0.00    +0.000 C 
ATOM      6  C   UNL     1       3.103   5.018  19.836  0.00  0.00    +0.000 C 
ENDROOT
BRANCH   1   7
ATOM      7  C   UNL     1       5.065   3.671  19.342  0.00  0.00    +0.000 C 
BRANCH   7  12
ATOM      8  C   UNL     1       6.437   5.588  16.264  0.00  0.00    +0.000 A 
ATOM      9  C   UNL     1       7.349   6.436  16.890  0.00  0.00    +0.000 A 
ATOM     10  C   UNL     1       7.543   6.387  18.265  0.00  0.00    +0.000 A 
ATOM     11  C   UNL     1       6.805   5.483  19.036  0.00  0.00    +0.000 A 
ATOM     12  C   UNL     1       5.858   4.622  18.448  0.00  0.00    +0.000 A 
ATOM     13  C   UNL     1       5.676   4.699  17.047  0.00  0.00    +0.000 A 
BRANCH   8  15
ATOM     14  C   UNL     1       7.219   4.973  14.105  0.00  0.00    +0.000 C 
ATOM     15  O   UNL     1       6.355   5.768  14.907  0.00  0.00    +0.000 OA
ENDBRANCH   8  15
BRANCH  13  16
ATOM     16  O   UNL     1       4.732   3.930  16.420  0.00  0.00    +0.000 OA
ATOM     17  H   UNL     1       5.055   3.024  16.305  0.00  0.00    +0.000 HD
ENDBRANCH  13  16
ENDBRANCH   7  12
ENDBRANCH   1   7
BRANCH   5  18
ATOM     18  C   UNL     1       1.315   6.350  21.027  0.00  0.00    +0.000 C 
BRANCH  18  19
ATOM     19  C   UNL     1       1.606   7.713  20.379  0.00  0.00    +0.000 C 
BRANCH  19  20
ATOM     20  C   UNL     1       1.262   8.826  21.345  0.00  0.00    +0.000 C 
ATOM     21  O   UNL     1       1.837   8.934  22.425  0.00  0.00    +0.000 OA
ATOM     22  N   UNL     1       0.270   9.673  20.871  0.00  0.00    +0.000 N 
ATOM     23  H   UNL     1      -0.255   9.369  20.061  0.00  0.00    +0.000 HD
BRANCH  22  24
ATOM     24  C   UNL     1      -0.154  10.863  21.500  0.00  0.00    +0.000 A 
ATOM     25  C   UNL     1      -1.083  10.876  22.544  0.00  0.00    +0.000 A 
ATOM     26  C   UNL     1      -1.478  12.074  23.142  0.00  0.00    +0.000 A 
ATOM     27  C   UNL     1      -0.945  13.291  22.710  0.00  0.00    +0.000 A 
ATOM     28  C   UNL     1      -0.008  13.283  21.666  0.00  0.00    +0.000 A 
ATOM     29  C   UNL     1       0.392  12.077  21.073  0.00  0.00    +0.000 A 
BRANCH  27  30
ATOM     30  C   UNL     1      -1.363  14.583  23.368  0.00  0.00    +0.000 C 
ATOM     31  F   UNL     1      -2.709  14.795  23.344  0.00  0.00    +0.000 F 
ATOM     32  F   UNL     1      -1.002  14.635  24.679  0.00  0.00    +0.000 F 
ATOM     33  F   UNL     1      -0.803  15.676  22.780  0.00  0.00    +0.000 F 
ENDBRANCH  27  30
ENDBRANCH  22  24
ENDBRANCH  19  20
ENDBRANCH  18  19
ENDBRANCH   5  18
TORSDOF 9
ENDMDL
MODEL 7
REMARK VINA RESULT:      -7.9      3.702      4.498
REMARK  Name = 
REMARK  10 active torsions:
REMARK  status: ('A' for Active; 'I' for Inactive)
REMARK    1  A    between atoms: C_1  and  O_2
REMARK    2  A    between atoms: O_2  and  C_3
REMARK    3  A    between atoms: C_7  and  C_8
REMARK    4  A    between atoms: C_8  and  N_9
REMARK    5  A    between atoms: C_13  and  C_14
REMARK    6  A    between atoms: C_14  and  C_15
REMARK    7  A    between atoms: C_15  and  C_16
REMARK    8  A    between atoms: N_18  and  C_19
REMARK    9  A    between atoms: C_22  and  C_23
REMARK   10  A    between atoms: C_30  and  O_31
REMARK                            x       y       z     vdW  Elec       q    Type
REMARK                         _______ _______ _______ _____ _____    ______ ____
ROOT
ATOM      1  N   UNL     1       4.042   5.580  18.364  0.00  0.00    +0.000 NA
ATOM      2  C   UNL     1       3.663   5.333  19.755  0.00  0.00    +0.000 C 
ATOM      3  C   UNL     1       2.280   5.825  20.174  0.00  0.00    +0.000 C 
ATOM      4  C   UNL     1       2.042   7.253  19.719  0.00  0.00    +0.000 C 
ATOM      5  C   UNL     1       2.180   7.333  18.199  0.00  0.00    +0.000 C 
ATOM      6  C   UNL     1       3.554   6.811  17.747  0.00  0.00    +0.000 C 
ENDROOT
BRANCH   1   7
ATOM      7  C   UNL     1       5.479   5.364  18.074  0.00  0.00    +0.000 C 
BRANCH   7  12
ATOM      8  C   UNL     1       7.212   5.181  14.610  0.00  0.00    +0.000 A 
ATOM      9  C   UNL     1       6.503   4.127  14.037  0.00  0.00    +0.000 A 
ATOM     10  C   UNL     1       5.477   3.496  14.729  0.00  0.00    +0.000 A 
ATOM     11  C   UNL     1       5.155   3.915  16.023  0.00  0.00    +0.000 A 
ATOM     12  C   UNL     1       5.858   4.963  16.649  0.00  0.00    +0.000 A 
ATOM     13  C   UNL     1       6.904   5.581  15.924  0.00  0.00    +0.000 A 
BRANCH   8  15
ATOM     14  C   UNL     1       7.996   5.578  12.401  0.00  0.00    +0.000 C 
ATOM     15  O   UNL     1       8.200   5.687  13.804  0.00  0.00    +0.000 OA
ENDBRANCH   8  15
BRANCH  13  16
ATOM     16  O   UNL     1       7.664   6.568  16.494  0.00  0.00    +0.000 OA
ATOM     17  H   UNL     1       7.511   6.605  17.450  0.00  0.00    +0.000 HD
ENDBRANCH  13  16
ENDBRANCH   7  12
ENDBRANCH   1   7
BRANCH   5  18
ATOM     18  C   UNL     1       1.982   8.791  17.751  0.00  0.00    +0.000 C 
BRANCH  18  19
ATOM     19  C   UNL     1       1.794   9.799  18.896  0.00  0.00    +0.000 C 
BRANCH  19  20
ATOM     20  C   UNL     1       0.319  10.010  19.159  0.00  0.00    +0.000 C 
ATOM     21  O   UNL     1      -0.135   9.990  20.301  0.00  0.00    +0.000 OA
ATOM     22  N   UNL     1      -0.416  10.229  18.002  0.00  0.00    +0.000 N 
ATOM     23  H   UNL     1       0.036  10.031  17.119  0.00  0.00    +0.000 HD
BRANCH  22  24
ATOM     24  C   UNL     1      -1.781  10.583  17.959  0.00  0.00    +0.000 A 
ATOM     25  C   UNL     1      -2.706   9.926  17.143  0.00  0.00    +0.000 A 
ATOM     26  C   UNL     1      -4.050  10.305  17.128  0.00  0.00    +0.000 A 
ATOM     27  C   UNL     1      -4.501  11.350  17.937  0.00  0.00    +0.000 A 
ATOM     28  C   UNL     1      -3.577  12.010  18.762  0.00  0.00    +0.000 A 
ATOM     29  C   UNL     1      -2.230  11.621  18.781  0.00  0.00    +0.000 A 
BRANCH  27  30
ATOM     30  C   UNL     1      -5.956  11.748  17.930  0.00  0.00    +0.000 C 
ATOM     31  F   UNL     1      -6.296  12.587  18.949  0.00  0.00    +0.000 F 
ATOM     32  F   UNL     1      -6.309  12.394  16.784  0.00  0.00    +0.000 F 
ATOM     33  F   UNL     1      -6.793  10.680  18.033  0.00  0.00    +0.000 F 
ENDBRANCH  27  30
ENDBRANCH  22  24
ENDBRANCH  19  20
ENDBRANCH  18  19
ENDBRANCH   5  18
TORSDOF 9
ENDMDL
MODEL 8
REMARK VINA RESULT:      -7.9      1.624      2.168
REMARK  Name = 
REMARK  10 active torsions:
REMARK  status: ('A' for Active; 'I' for Inactive)
REMARK    1  A    between atoms: C_1  and  O_2
REMARK    2  A    between atoms: O_2  and  C_3
REMARK    3  A    between atoms: C_7  and  C_8
REMARK    4  A    between atoms: C_8  and  N_9
REMARK    5  A    between atoms: C_13  and  C_14
REMARK    6  A    between atoms: C_14  and  C_15
REMARK    7  A    between atoms: C_15  and  C_16
REMARK    8  A    between atoms: N_18  and  C_19
REMARK    9  A    between atoms: C_22  and  C_23
REMARK   10  A    between atoms: C_30  and  O_31
REMARK                            x       y       z     vdW  Elec       q    Type
REMARK                         _______ _______ _______ _____ _____    ______ ____
ROOT
ATOM      1  N   UNL     1       3.507   3.788  19.170  0.00  0.00    +0.000 NA
ATOM      2  C   UNL     1       2.788   2.558  19.500  0.00  0.00    +0.000 C 
ATOM      3  C   UNL     1       1.278   2.689  19.686  0.00  0.00    +0.000 C 
ATOM      4  C   UNL     1       0.934   3.859  20.587  0.00  0.00    +0.000 C 
ATOM      5  C   UNL     1       1.495   5.148  19.987  0.00  0.00    +0.000 C 
ATOM      6  C   UNL     1       3.011   5.030  19.758  0.00  0.00    +0.000 C 
ENDROOT
BRANCH   1   7
ATOM      7  C   UNL     1       4.981   3.686  19.291  0.00  0.00    +0.000 C 
BRANCH   7  12
ATOM      8  C   UNL     1       6.493   5.684  16.332  0.00  0.00    +0.000 A 
ATOM      9  C   UNL     1       7.407   6.482  17.016  0.00  0.00    +0.000 A 
ATOM     10  C   UNL     1       7.559   6.374  18.393  0.00  0.00    +0.000 A 
ATOM     11  C   UNL     1       6.776   5.461  19.106  0.00  0.00    +0.000 A 
ATOM     12  C   UNL     1       5.825   4.650  18.458  0.00  0.00    +0.000 A 
ATOM     13  C   UNL     1       5.686   4.786  17.057  0.00  0.00    +0.000 A 
BRANCH   8  15
ATOM     14  C   UNL     1       6.909   4.867  14.138  0.00  0.00    +0.000 C 
ATOM     15  O   UNL     1       6.455   5.919  14.981  0.00  0.00    +0.000 OA
ENDBRANCH   8  15
BRANCH  13  16
ATOM     16  O   UNL     1       4.742   4.068  16.373  0.00  0.00    +0.000 OA
ATOM     17  H   UNL     1       4.129   3.640  16.989  0.00  0.00    +0.000 HD
ENDBRANCH  13  16
ENDBRANCH   7  12
ENDBRANCH   1   7
BRANCH   5  18
ATOM     18  C   UNL     1       1.180   6.322  20.929  0.00  0.00    +0.000 C 
BRANCH  18  19
ATOM     19  C   UNL     1       1.881   7.642  20.573  0.00  0.00    +0.000 C 
BRANCH  19  20
ATOM     20  C   UNL     1       1.301   8.772  21.397  0.00  0.00    +0.000 C 
ATOM     21  O   UNL     1       1.873   9.188  22.400  0.00  0.00    +0.000 OA
ATOM     22  N   UNL     1       0.103   9.258  20.889  0.00  0.00    +0.000 N 
ATOM     23  H   UNL     1      -0.358   8.709  20.175  0.00  0.00    +0.000 HD
BRANCH  22  24
ATOM     24  C   UNL     1      -0.588  10.388  21.376  0.00  0.00    +0.000 A 
ATOM     25  C   UNL     1      -0.983  11.445  20.551  0.00  0.00    +0.000 A 
ATOM     26  C   UNL     1      -1.666  12.546  21.070  0.00  0.00    +0.000 A 
ATOM     27  C   UNL     1      -1.976  12.612  22.431  0.00  0.00    +0.000 A 
ATOM     28  C   UNL     1      -1.586  11.550  23.262  0.00  0.00    +0.000 A 
ATOM     29  C   UNL     1      -0.908  10.442  22.736  0.00  0.00    +0.000 A 
BRANCH  27  30
ATOM     30  C   UNL     1      -2.727  13.797  22.986  0.00  0.00    +0.000 C 
ATOM     31  F   UNL     1      -3.805  14.158  22.235  0.00  0.00    +0.000 F 
ATOM     32  F   UNL     1      -3.207  13.563  24.238  0.00  0.00    +0.000 F 
ATOM     33  F   UNL     1      -1.951  14.911  23.083  0.00  0.00    +0.000 F 
ENDBRANCH  27  30
ENDBRANCH  22  24
ENDBRANCH  19  20
ENDBRANCH  18  19
ENDBRANCH   5  18
TORSDOF 9
ENDMDL
MODEL 9
REMARK VINA RESULT:      -7.8      1.884      2.507
REMARK  Name = 
REMARK  10 active torsions:
REMARK  status: ('A' for Active; 'I' for Inactive)
REMARK    1  A    between atoms: C_1  and  O_2
REMARK    2  A    between atoms: O_2  and  C_3
REMARK    3  A    between atoms: C_7  and  C_8
REMARK    4  A    between atoms: C_8  and  N_9
REMARK    5  A    between atoms: C_13  and  C_14
REMARK    6  A    between atoms: C_14  and  C_15
REMARK    7  A    between atoms: C_15  and  C_16
REMARK    8  A    between atoms: N_18  and  C_19
REMARK    9  A    between atoms: C_22  and  C_23
REMARK   10  A    between atoms: C_30  and  O_31
REMARK                            x       y       z     vdW  Elec       q    Type
REMARK                         _______ _______ _______ _____ _____    ______ ____
ROOT
ATOM      1  N   UNL     1       3.745   3.746  17.189  0.00  0.00    +0.000 NA
ATOM      2  C   UNL     1       3.655   2.404  17.762  0.00  0.00    +0.000 C 
ATOM      3  C   UNL     1       2.512   2.166  18.746  0.00  0.00    +0.000 C 
ATOM      4  C   UNL     1       2.432   3.277  19.775  0.00  0.00    +0.000 C 
ATOM      5  C   UNL     1       2.233   4.616  19.066  0.00  0.00    +0.000 C 
ATOM      6  C   UNL     1       3.355   4.865  18.044  0.00  0.00    +0.000 C 
ENDROOT
BRANCH   1   7
ATOM      7  C   UNL     1       5.018   4.026  16.483  0.00  0.00    +0.000 C 
BRANCH   7  12
ATOM      8  C   UNL     1       7.162   7.128  17.385  0.00  0.00    +0.000 A 
ATOM      9  C   UNL     1       7.835   6.643  18.505  0.00  0.00    +0.000 A 
ATOM     10  C   UNL     1       7.628   5.346  18.957  0.00  0.00    +0.000 A 
ATOM     11  C   UNL     1       6.725   4.515  18.287  0.00  0.00    +0.000 A 
ATOM     12  C   UNL     1       6.008   4.970  17.162  0.00  0.00    +0.000 A 
ATOM     13  C   UNL     1       6.233   6.298  16.729  0.00  0.00    +0.000 A 
BRANCH   8  15
ATOM     14  C   UNL     1       8.228   9.151  18.036  0.00  0.00    +0.000 C 
ATOM     15  O   UNL     1       7.467   8.429  17.076  0.00  0.00    +0.000 OA
ENDBRANCH   8  15
BRANCH  13  16
ATOM     16  O   UNL     1       5.528   6.821  15.677  0.00  0.00    +0.000 OA
ATOM     17  H   UNL     1       4.869   7.456  15.993  0.00  0.00    +0.000 HD
ENDBRANCH  13  16
ENDBRANCH   7  12
ENDBRANCH   1   7
BRANCH   5  18
ATOM     18  C   UNL     1       2.198   5.741  20.114  0.00  0.00    +0.000 C 
BRANCH  18  19
ATOM     19  C   UNL     1       2.422   7.154  19.554  0.00  0.00    +0.000 C 
BRANCH  19  20
ATOM     20  C   UNL     1       1.500   8.135  20.247  0.00  0.00    +0.000 C 
ATOM     21  O   UNL     1       1.141   7.961  21.408  0.00  0.00    +0.000 OA
ATOM     22  N   UNL     1       1.141   9.208  19.442  0.00  0.00    +0.000 N 
ATOM     23  H   UNL     1       1.344   9.137  18.453  0.00  0.00    +0.000 HD
BRANCH  22  24
ATOM     24  C   UNL     1       0.403  10.333  19.867  0.00  0.00    +0.000 A 
ATOM     25  C   UNL     1       0.818  11.156  20.917  0.00  0.00    +0.000 A 
ATOM     26  C   UNL     1       0.060  12.261  21.309  0.00  0.00    +0.000 A 
ATOM     27  C   UNL     1      -1.132  12.571  20.652  0.00  0.00    +0.000 A 
ATOM     28  C   UNL     1      -1.551  11.751  19.594  0.00  0.00    +0.000 A 
ATOM     29  C   UNL     1      -0.783  10.647  19.197  0.00  0.00    +0.000 A 
BRANCH  27  30
ATOM     30  C   UNL     1      -1.942  13.774  21.069  0.00  0.00    +0.000 C 
ATOM     31  F   UNL     1      -1.806  14.838  20.228  0.00  0.00    +0.000 F 
ATOM     32  F   UNL     1      -3.276  13.507  21.117  0.00  0.00    +0.000 F 
ATOM     33  F   UNL     1      -1.605  14.231  22.306  0.00  0.00    +0.000 F 
ENDBRANCH  27  30
ENDBRANCH  22  24
ENDBRANCH  19  20
ENDBRANCH  18  19
ENDBRANCH   5  18
TORSDOF 9
ENDMDL
