MODEL 1
REMARK VINA RESULT:      -7.9      0.000      0.000
REMARK  Name = 
REMARK  17 active torsions:
REMARK  status: ('A' for Active; 'I' for Inactive)
REMARK    1  A    between atoms: C_1  and  O_2
REMARK    2  A    between atoms: O_2  and  C_3
REMARK    3  A    between atoms: N_6  and  C_7
REMARK    4  A    between atoms: C_10  and  C_11
REMARK    5  A    between atoms: C_14  and  C_15
REMARK    6  A    between atoms: C_15  and  C_16
REMARK    7  A    between atoms: C_16  and  N_17
REMARK    8  A    between atoms: C_16  and  C_26
REMARK    9  A    between atoms: N_20  and  C_21
REMARK   10  A    between atoms: N_20  and  C_22
REMARK   11  A    between atoms: C_22  and  C_23
REMARK   12  A    between atoms: C_23  and  C_24
REMARK   13  A    between atoms: C_23  and  C_25
REMARK   14  A    between atoms: C_26  and  O_28
REMARK   15  A    between atoms: O_28  and  C_29
REMARK   16  A    between atoms: C_29  and  C_30
REMARK   17  A    between atoms: C_30  and  O_31
REMARK                            x       y       z     vdW  Elec       q    Type
REMARK                         _______ _______ _______ _____ _____    ______ ____
ROOT
ATOM      1  C   UNL     1       2.906   4.679  18.900  0.00  0.00    +0.000 C 
ENDROOT
BRANCH   1   2
ATOM      2  N   UNL     1       3.751   5.142  17.776  0.00  0.00    +0.000 N 
ATOM      3  C   UNL     1       4.530   4.281  17.041  0.00  0.00    +0.000 C 
ATOM      4  O   UNL     1       4.568   3.080  17.284  0.00  0.00    +0.000 OA
ATOM      5  N   UNL     1       5.248   4.868  16.001  0.00  0.00    +0.000 N 
ATOM      6  C   UNL     1       5.135   6.269  15.614  0.00  0.00    +0.000 C 
ATOM      7  H   UNL     1       4.156   6.057  17.908  0.00  0.00    +0.000 HD
BRANCH   5   8
ATOM      8  C   UNL     1       6.051   4.000  15.122  0.00  0.00    +0.000 C 
BRANCH   8   9
ATOM      9  C   UNL     1       6.225   4.491  13.670  0.00  0.00    +0.000 C 
ATOM     10  C   UNL     1       7.661   4.923  13.374  0.00  0.00    +0.000 C 
ATOM     11  C   UNL     1       5.822   3.376  12.698  0.00  0.00    +0.000 C 
ENDBRANCH   8   9
ENDBRANCH   5   8
ENDBRANCH   1   2
BRANCH   1  12
ATOM     12  C   UNL     1       1.570   4.178  18.347  0.00  0.00    +0.000 C 
ATOM     13  O   UNL     1       1.162   4.486  17.231  0.00  0.00    +0.000 OA
BRANCH  12  14
ATOM     14  O   UNL     1       0.840   3.504  19.274  0.00  0.00    +0.000 OA
BRANCH  14  15
ATOM     15  C   UNL     1       1.548   2.460  19.967  0.00  0.00    +0.000 C 
BRANCH  15  16
ATOM     16  C   UNL     1       1.433   2.634  21.475  0.00  0.00    +0.000 C 
BRANCH  16  17
ATOM     17  O   UNL     1       2.719   2.523  22.082  0.00  0.00    +0.000 OA
ATOM     18  H   UNL     1       2.641   2.919  22.971  0.00  0.00    +0.000 HD
ENDBRANCH  16  17
ENDBRANCH  15  16
ENDBRANCH  14  15
ENDBRANCH  12  14
ENDBRANCH   1  12
BRANCH   1  19
ATOM     19  C   UNL     1       2.822   5.660  20.083  0.00  0.00    +0.000 C 
BRANCH  19  23
ATOM     20  C   UNL     1       1.095   9.545  19.122  0.00  0.00    +0.000 A 
ATOM     21  C   UNL     1       1.854   8.855  18.171  0.00  0.00    +0.000 A 
ATOM     22  C   UNL     1       2.440   7.616  18.477  0.00  0.00    +0.000 A 
ATOM     23  C   UNL     1       2.286   7.046  19.750  0.00  0.00    +0.000 A 
ATOM     24  C   UNL     1       1.541   7.754  20.706  0.00  0.00    +0.000 A 
ATOM     25  C   UNL     1       0.953   8.987  20.399  0.00  0.00    +0.000 A 
BRANCH  20  33
ATOM     26  C   UNL     1      -0.852  10.812  18.341  0.00  0.00    +0.000 A 
ATOM     27  C   UNL     1      -1.438  12.140  18.053  0.00  0.00    +0.000 A 
ATOM     28  N   UNL     1      -0.852  13.284  18.174  0.00  0.00    +0.000 NA
ATOM     29  N   UNL     1       0.443  13.266  18.615  0.00  0.00    +0.000 N 
ATOM     30  C   UNL     1       1.080  14.559  18.792  0.00  0.00    +0.000 C 
ATOM     31  C   UNL     1       1.151  12.114  18.937  0.00  0.00    +0.000 A 
ATOM     32  O   UNL     1       2.316  12.135  19.334  0.00  0.00    +0.000 OA
ATOM     33  C   UNL     1       0.424  10.815  18.778  0.00  0.00    +0.000 A 
BRANCH  26  35
ATOM     34  C   UNL     1      -2.853   9.738  17.598  0.00  0.00    +0.000 C 
ATOM     35  O   UNL     1      -1.576   9.637  18.212  0.00  0.00    +0.000 OA
ENDBRANCH  26  35
ENDBRANCH  20  33
ENDBRANCH  19  23
ENDBRANCH   1  19
TORSDOF 12
ENDMDL
MODEL 2
REMARK VINA RESULT:      -7.4      0.924      1.385
REMARK  Name = 
REMARK  17 active torsions:
REMARK  status: ('A' for Active; 'I' for Inactive)
REMARK    1  A    between atoms: C_1  and  O_2
REMARK    2  A    between atoms: O_2  and  C_3
REMARK    3  A    between atoms: N_6  and  C_7
REMARK    4  A    between atoms: C_10  and  C_11
REMARK    5  A    between atoms: C_14  and  C_15
REMARK    6  A    between atoms: C_15  and  C_16
REMARK    7  A    between atoms: C_16  and  N_17
REMARK    8  A    between atoms: C_16  and  C_26
REMARK    9  A    between atoms: N_20  and  C_21
REMARK   10  A    between atoms: N_20  and  C_22
REMARK   11  A    between atoms: C_22  and  C_23
REMARK   12  A    between atoms: C_23  and  C_24
REMARK   13  A    between atoms: C_23  and  C_25
REMARK   14  A    between atoms: C_26  and  O_28
REMARK   15  A    between atoms: O_28  and  C_29
REMARK   16  A    between atoms: C_29  and  C_30
REMARK   17  A    between atoms: C_30  and  O_31
REMARK                            x       y       z     vdW  Elec       q    Type
REMARK                         _______ _______ _______ _____ _____    ______ ____
ROOT
ATOM      1  C   UNL     1       3.043   4.873  19.005  0.00  0.00    +0.000 C 
ENDROOT
BRANCH   1   2
ATOM      2  N   UNL     1       3.805   5.475  17.888  0.00  0.00    +0.000 N 
ATOM      3  C   UNL     1       5.048   5.021  17.520  0.00  0.00    +0.000 C 
ATOM      4  O   UNL     1       5.594   4.092  18.105  0.00  0.00    +0.000 OA
ATOM      5  N   UNL     1       5.624   5.676  16.435  0.00  0.00    +0.000 N 
ATOM      6  C   UNL     1       4.955   6.705  15.647  0.00  0.00    +0.000 C 
ATOM      7  H   UNL     1       3.682   6.472  17.789  0.00  0.00    +0.000 HD
BRANCH   5   8
ATOM      8  C   UNL     1       6.926   5.200  15.934  0.00  0.00    +0.000 C 
BRANCH   8   9
ATOM      9  C   UNL     1       6.883   4.365  14.638  0.00  0.00    +0.000 C 
ATOM     10  C   UNL     1       5.453   4.039  14.207  0.00  0.00    +0.000 C 
ATOM     11  C   UNL     1       7.588   5.128  13.510  0.00  0.00    +0.000 C 
ENDBRANCH   8   9
ENDBRANCH   5   8
ENDBRANCH   1   2
BRANCH   1  12
ATOM     12  C   UNL     1       1.747   4.270  18.458  0.00  0.00    +0.000 C 
ATOM     13  O   UNL     1       1.419   4.372  17.279  0.00  0.00    +0.000 OA
BRANCH  12  14
ATOM     14  O   UNL     1       0.951   3.765  19.436  0.00  0.00    +0.000 OA
BRANCH  14  15
ATOM     15  C   UNL     1       1.416   2.539  20.029  0.00  0.00    +0.000 C 
BRANCH  15  16
ATOM     16  C   UNL     1       1.440   2.645  21.548  0.00  0.00    +0.000 C 
BRANCH  16  17
ATOM     17  O   UNL     1       2.776   2.515  22.029  0.00  0.00    +0.000 OA
ATOM     18  H   UNL     1       2.760   1.816  22.709  0.00  0.00    +0.000 HD
ENDBRANCH  16  17
ENDBRANCH  15  16
ENDBRANCH  14  15
ENDBRANCH  12  14
ENDBRANCH   1  12
BRANCH   1  19
ATOM     19  C   UNL     1       2.897   5.778  20.241  0.00  0.00    +0.000 C 
BRANCH  19  23
ATOM     20  C   UNL     1       0.807   9.559  19.661  0.00  0.00    +0.000 A 
ATOM     21  C   UNL     1       0.586   8.800  20.816  0.00  0.00    +0.000 A 
ATOM     22  C   UNL     1       1.231   7.566  21.001  0.00  0.00    +0.000 A 
ATOM     23  C   UNL     1       2.105   7.061  20.026  0.00  0.00    +0.000 A 
ATOM     24  C   UNL     1       2.305   7.818  18.862  0.00  0.00    +0.000 A 
ATOM     25  C   UNL     1       1.665   9.050  18.679  0.00  0.00    +0.000 A 
BRANCH  20  33
ATOM     26  C   UNL     1      -0.840  11.053  18.632  0.00  0.00    +0.000 A 
ATOM     27  C   UNL     1      -1.415  12.415  18.567  0.00  0.00    +0.000 A 
ATOM     28  N   UNL     1      -1.036  13.445  19.247  0.00  0.00    +0.000 NA
ATOM     29  N   UNL     1       0.002  13.257  20.118  0.00  0.00    +0.000 N 
ATOM     30  C   UNL     1       0.392  14.408  20.912  0.00  0.00    +0.000 C 
ATOM     31  C   UNL     1       0.660  12.047  20.313  0.00  0.00    +0.000 A 
ATOM     32  O   UNL     1       1.590  11.913  21.107  0.00  0.00    +0.000 OA
ATOM     33  C   UNL     1       0.180  10.886  19.498  0.00  0.00    +0.000 A 
BRANCH  26  35
ATOM     34  C   UNL     1      -2.723  10.047  17.556  0.00  0.00    +0.000 C 
ATOM     35  O   UNL     1      -1.340   9.999  17.882  0.00  0.00    +0.000 OA
ENDBRANCH  26  35
ENDBRANCH  20  33
ENDBRANCH  19  23
ENDBRANCH   1  19
TORSDOF 12
ENDMDL
MODEL 3
REMARK VINA RESULT:      -7.4      1.056      1.469
REMARK  Name = 
REMARK  17 active torsions:
REMARK  status: ('A' for Active; 'I' for Inactive)
REMARK    1  A    between atoms: C_1  and  O_2
REMARK    2  A    between atoms: O_2  and  C_3
REMARK    3  A    between atoms: N_6  and  C_7
REMARK    4  A    between atoms: C_10  and  C_11
REMARK    5  A    between atoms: C_14  and  C_15
REMARK    6  A    between atoms: C_15  and  C_16
REMARK    7  A    between atoms: C_16  and  N_17
REMARK    8  A    between atoms: C_16  and  C_26
REMARK    9  A    between atoms: N_20  and  C_21
REMARK   10  A    between atoms: N_20  and  C_22
REMARK   11  A    between atoms: C_22  and  C_23
REMARK   12  A    between atoms: C_23  and  C_24
REMARK   13  A    between atoms: C_23  and  C_25
REMARK   14  A    between atoms: C_26  and  O_28
REMARK   15  A    between atoms: O_28  and  C_29
REMARK   16  A    between atoms: C_29  and  C_30
REMARK   17  A    between atoms: C_30  and  O_31
REMARK                            x       y       z     vdW  Elec       q    Type
REMARK                         _______ _______ _______ _____ _____    ______ ____
ROOT
ATOM      1  C   UNL     1       3.191   4.827  18.805  0.00  0.00    +0.000 C 
ENDROOT
BRANCH   1   2
ATOM      2  N   UNL     1       3.978   5.301  17.644  0.00  0.00    +0.000 N 
ATOM      3  C   UNL     1       4.811   4.469  16.935  0.00  0.00    +0.000 C 
ATOM      4  O   UNL     1       4.949   3.288  17.235  0.00  0.00    +0.000 OA
ATOM      5  N   UNL     1       5.463   5.059  15.855  0.00  0.00    +0.000 N 
ATOM      6  C   UNL     1       5.232   6.426  15.404  0.00  0.00    +0.000 C 
ATOM      7  H   UNL     1       4.311   6.249  17.724  0.00  0.00    +0.000 HD
BRANCH   5   8
ATOM      8  C   UNL     1       6.318   4.215  15.002  0.00  0.00    +0.000 C 
BRANCH   8   9
ATOM      9  C   UNL     1       6.378   4.609  13.512  0.00  0.00    +0.000 C 
ATOM     10  C   UNL     1       7.758   5.127  13.105  0.00  0.00    +0.000 C 
ATOM     11  C   UNL     1       6.018   3.397  12.645  0.00  0.00    +0.000 C 
ENDBRANCH   8   9
ENDBRANCH   5   8
ENDBRANCH   1   2
BRANCH   1  12
ATOM     12  C   UNL     1       1.828   4.332  18.318  0.00  0.00    +0.000 C 
ATOM     13  O   UNL     1       1.272   4.803  17.329  0.00  0.00    +0.000 OA
BRANCH  12  14
ATOM     14  O   UNL     1       1.253   3.450  19.176  0.00  0.00    +0.000 OA
BRANCH  14  15
ATOM     15  C   UNL     1       2.119   2.397  19.639  0.00  0.00    +0.000 C 
BRANCH  15  16
ATOM     16  C   UNL     1       2.467   1.444  18.505  0.00  0.00    +0.000 C 
BRANCH  16  17
ATOM     17  O   UNL     1       3.855   1.119  18.544  0.00  0.00    +0.000 OA
ATOM     18  H   UNL     1       3.911   0.155  18.688  0.00  0.00    +0.000 HD
ENDBRANCH  16  17
ENDBRANCH  15  16
ENDBRANCH  14  15
ENDBRANCH  12  14
ENDBRANCH   1  12
BRANCH   1  19
ATOM     19  C   UNL     1       3.169   5.797  20.000  0.00  0.00    +0.000 C 
BRANCH  19  23
ATOM     20  C   UNL     1       0.872   9.471  19.521  0.00  0.00    +0.000 A 
ATOM     21  C   UNL     1       0.720   8.688  20.671  0.00  0.00    +0.000 A 
ATOM     22  C   UNL     1       1.432   7.487  20.825  0.00  0.00    +0.000 A 
ATOM     23  C   UNL     1       2.307   7.040  19.822  0.00  0.00    +0.000 A 
ATOM     24  C   UNL     1       2.437   7.820  18.662  0.00  0.00    +0.000 A 
ATOM     25  C   UNL     1       1.730   9.019  18.511  0.00  0.00    +0.000 A 
BRANCH  20  33
ATOM     26  C   UNL     1      -0.812  10.917  18.481  0.00  0.00    +0.000 A 
ATOM     27  C   UNL     1      -1.465  12.244  18.454  0.00  0.00    +0.000 A 
ATOM     28  N   UNL     1      -1.185  13.258  19.202  0.00  0.00    +0.000 NA
ATOM     29  N   UNL     1      -0.181  13.086  20.116  0.00  0.00    +0.000 N 
ATOM     30  C   UNL     1       0.097  14.215  20.986  0.00  0.00    +0.000 C 
ATOM     31  C   UNL     1       0.539  11.908  20.286  0.00  0.00    +0.000 A 
ATOM     32  O   UNL     1       1.435  11.788  21.120  0.00  0.00    +0.000 OA
ATOM     33  C   UNL     1       0.173  10.766  19.390  0.00  0.00    +0.000 A 
BRANCH  26  35
ATOM     34  C   UNL     1      -2.217  10.169  16.699  0.00  0.00    +0.000 C 
ATOM     35  O   UNL     1      -1.207   9.876  17.655  0.00  0.00    +0.000 OA
ENDBRANCH  26  35
ENDBRANCH  20  33
ENDBRANCH  19  23
ENDBRANCH   1  19
TORSDOF 12
ENDMDL
MODEL 4
REMARK VINA RESULT:      -7.3      2.111      8.954
REMARK  Name = 
REMARK  17 active torsions:
REMARK  status: ('A' for Active; 'I' for Inactive)
REMARK    1  A    between atoms: C_1  and  O_2
REMARK    2  A    between atoms: O_2  and  C_3
REMARK    3  A    between atoms: N_6  and  C_7
REMARK    4  A    between atoms: C_10  and  C_11
REMARK    5  A    between atoms: C_14  and  C_15
REMARK    6  A    between atoms: C_15  and  C_16
REMARK    7  A    between atoms: C_16  and  N_17
REMARK    8  A    between atoms: C_16  and  C_26
REMARK    9  A    between atoms: N_20  and  C_21
REMARK   10  A    between atoms: N_20  and  C_22
REMARK   11  A    between atoms: C_22  and  C_23
REMARK   12  A    between atoms: C_23  and  C_24
REMARK   13  A    between atoms: C_23  and  C_25
REMARK   14  A    between atoms: C_26  and  O_28
REMARK   15  A    between atoms: O_28  and  C_29
REMARK   16  A    between atoms: C_29  and  C_30
REMARK   17  A    between atoms: C_30  and  O_31
REMARK                            x       y       z     vdW  Elec       q    Type
REMARK                         _______ _______ _______ _____ _____    ______ ____
ROOT
ATOM      1  C   UNL     1      -0.411  11.395  18.989  0.00  0.00    +0.000 C 
ENDROOT
BRANCH   1   2
ATOM      2  N   UNL     1      -0.078  12.834  19.080  0.00  0.00    +0.000 N 
ATOM      3  C   UNL     1       1.220  13.286  19.099  0.00  0.00    +0.000 C 
ATOM      4  O   UNL     1       2.172  12.515  19.046  0.00  0.00    +0.000 OA
ATOM      5  N   UNL     1       1.368  14.670  19.163  0.00  0.00    +0.000 N 
ATOM      6  C   UNL     1       0.260  15.617  19.110  0.00  0.00    +0.000 C 
ATOM      7  H   UNL     1      -0.712  13.375  19.649  0.00  0.00    +0.000 HD
BRANCH   5   8
ATOM      8  C   UNL     1       2.727  15.236  19.114  0.00  0.00    +0.000 C 
BRANCH   8   9
ATOM      9  C   UNL     1       3.345  15.380  17.708  0.00  0.00    +0.000 C 
ATOM     10  C   UNL     1       3.168  16.788  17.139  0.00  0.00    +0.000 C 
ATOM     11  C   UNL     1       4.840  15.044  17.767  0.00  0.00    +0.000 C 
ENDBRANCH   8   9
ENDBRANCH   5   8
ENDBRANCH   1   2
BRANCH   1  12
ATOM     12  C   UNL     1      -1.923  11.242  18.815  0.00  0.00    +0.000 C 
ATOM     13  O   UNL     1      -2.726  12.030  19.308  0.00  0.00    +0.000 OA
BRANCH  12  14
ATOM     14  O   UNL     1      -2.265  10.078  18.204  0.00  0.00    +0.000 OA
BRANCH  14  15
ATOM     15  C   UNL     1      -1.883   9.980  16.820  0.00  0.00    +0.000 C 
BRANCH  15  16
ATOM     16  C   UNL     1      -3.032  10.391  15.910  0.00  0.00    +0.000 C 
BRANCH  16  17
ATOM     17  O   UNL     1      -3.601  11.618  16.360  0.00  0.00    +0.000 OA
ATOM     18  H   UNL     1      -3.199  12.326  15.822  0.00  0.00    +0.000 HD
ENDBRANCH  16  17
ENDBRANCH  15  16
ENDBRANCH  14  15
ENDBRANCH  12  14
ENDBRANCH   1  12
BRANCH   1  19
ATOM     19  C   UNL     1       0.235  10.519  20.078  0.00  0.00    +0.000 C 
BRANCH  19  23
ATOM     20  C   UNL     1       2.466   7.101  18.549  0.00  0.00    +0.000 A 
ATOM     21  C   UNL     1       2.235   7.236  19.922  0.00  0.00    +0.000 A 
ATOM     22  C   UNL     1       1.542   8.347  20.430  0.00  0.00    +0.000 A 
ATOM     23  C   UNL     1       1.075   9.354  19.571  0.00  0.00    +0.000 A 
ATOM     24  C   UNL     1       1.330   9.222  18.198  0.00  0.00    +0.000 A 
ATOM     25  C   UNL     1       2.016   8.112  17.691  0.00  0.00    +0.000 A 
BRANCH  20  33
ATOM     26  C   UNL     1       4.369   5.993  17.472  0.00  0.00    +0.000 A 
ATOM     27  C   UNL     1       4.959   4.726  16.989  0.00  0.00    +0.000 A 
ATOM     28  N   UNL     1       4.413   3.556  17.027  0.00  0.00    +0.000 NA
ATOM     29  N   UNL     1       3.161   3.482  17.572  0.00  0.00    +0.000 N 
ATOM     30  C   UNL     1       2.572   2.157  17.654  0.00  0.00    +0.000 C 
ATOM     31  C   UNL     1       2.455   4.568  18.080  0.00  0.00    +0.000 A 
ATOM     32  O   UNL     1       1.329   4.464  18.566  0.00  0.00    +0.000 OA
ATOM     33  C   UNL     1       3.135   5.900  18.009  0.00  0.00    +0.000 A 
BRANCH  26  35
ATOM     34  C   UNL     1       6.464   7.129  17.292  0.00  0.00    +0.000 C 
ATOM     35  O   UNL     1       5.050   7.199  17.417  0.00  0.00    +0.000 OA
ENDBRANCH  26  35
ENDBRANCH  20  33
ENDBRANCH  19  23
ENDBRANCH   1  19
TORSDOF 12
ENDMDL
MODEL 5
REMARK VINA RESULT:      -7.3      1.974      8.798
REMARK  Name = 
REMARK  17 active torsions:
REMARK  status: ('A' for Active; 'I' for Inactive)
REMARK    1  A    between atoms: C_1  and  O_2
REMARK    2  A    between atoms: O_2  and  C_3
REMARK    3  A    between atoms: N_6  and  C_7
REMARK    4  A    between atoms: C_10  and  C_11
REMARK    5  A    between atoms: C_14  and  C_15
REMARK    6  A    between atoms: C_15  and  C_16
REMARK    7  A    between atoms: C_16  and  N_17
REMARK    8  A    between atoms: C_16  and  C_26
REMARK    9  A    between atoms: N_20  and  C_21
REMARK   10  A    between atoms: N_20  and  C_22
REMARK   11  A    between atoms: C_22  and  C_23
REMARK   12  A    between atoms: C_23  and  C_24
REMARK   13  A    between atoms: C_23  and  C_25
REMARK   14  A    between atoms: C_26  and  O_28
REMARK   15  A    between atoms: O_28  and  C_29
REMARK   16  A    between atoms: C_29  and  C_30
REMARK   17  A    between atoms: C_30  and  O_31
REMARK                            x       y       z     vdW  Elec       q    Type
REMARK                         _______ _______ _______ _____ _____    ______ ____
ROOT
ATOM      1  C   UNL     1       0.040  11.314  19.303  0.00  0.00    +0.000 C 
ENDROOT
BRANCH   1   2
ATOM      2  N   UNL     1       0.771  12.532  19.720  0.00  0.00    +0.000 N 
ATOM      3  C   UNL     1       1.923  12.945  19.095  0.00  0.00    +0.000 C 
ATOM      4  O   UNL     1       2.408  12.319  18.158  0.00  0.00    +0.000 OA
ATOM      5  N   UNL     1       2.478  14.123  19.588  0.00  0.00    +0.000 N 
ATOM      6  C   UNL     1       1.865  14.950  20.620  0.00  0.00    +0.000 C 
ATOM      7  H   UNL     1       0.752  12.711  20.712  0.00  0.00    +0.000 HD
BRANCH   5   8
ATOM      8  C   UNL     1       3.675  14.670  18.924  0.00  0.00    +0.000 C 
BRANCH   8   9
ATOM      9  C   UNL     1       3.656  16.188  18.651  0.00  0.00    +0.000 C 
ATOM     10  C   UNL     1       5.019  16.837  18.897  0.00  0.00    +0.000 C 
ATOM     11  C   UNL     1       3.229  16.445  17.201  0.00  0.00    +0.000 C 
ENDBRANCH   8   9
ENDBRANCH   5   8
ENDBRANCH   1   2
BRANCH   1  12
ATOM     12  C   UNL     1      -1.416  11.682  19.007  0.00  0.00    +0.000 C 
ATOM     13  O   UNL     1      -1.935  12.709  19.435  0.00  0.00    +0.000 OA
BRANCH  12  14
ATOM     14  O   UNL     1      -2.088  10.687  18.370  0.00  0.00    +0.000 OA
BRANCH  14  15
ATOM     15  C   UNL     1      -3.114  11.129  17.462  0.00  0.00    +0.000 C 
BRANCH  15  16
ATOM     16  C   UNL     1      -2.680  10.931  16.016  0.00  0.00    +0.000 C 
BRANCH  16  17
ATOM     17  O   UNL     1      -3.010   9.614  15.579  0.00  0.00    +0.000 OA
ATOM     18  H   UNL     1      -2.194   9.085  15.653  0.00  0.00    +0.000 HD
ENDBRANCH  16  17
ENDBRANCH  15  16
ENDBRANCH  14  15
ENDBRANCH  12  14
ENDBRANCH   1  12
BRANCH   1  19
ATOM     19  C   UNL     1       0.256  10.095  20.217  0.00  0.00    +0.000 C 
BRANCH  19  23
ATOM     20  C   UNL     1       2.693   6.905  18.518  0.00  0.00    +0.000 A 
ATOM     21  C   UNL     1       2.356   6.889  19.876  0.00  0.00    +0.000 A 
ATOM     22  C   UNL     1       1.595   7.925  20.442  0.00  0.00    +0.000 A 
ATOM     23  C   UNL     1       1.165   9.008  19.658  0.00  0.00    +0.000 A 
ATOM     24  C   UNL     1       1.526   9.028  18.303  0.00  0.00    +0.000 A 
ATOM     25  C   UNL     1       2.280   7.992  17.738  0.00  0.00    +0.000 A 
BRANCH  20  33
ATOM     26  C   UNL     1       2.880   4.554  17.850  0.00  0.00    +0.000 A 
ATOM     27  C   UNL     1       3.696   3.509  17.194  0.00  0.00    +0.000 A 
ATOM     28  N   UNL     1       4.874   3.655  16.686  0.00  0.00    +0.000 NA
ATOM     29  N   UNL     1       5.422   4.907  16.759  0.00  0.00    +0.000 N 
ATOM     30  C   UNL     1       6.727   5.075  16.144  0.00  0.00    +0.000 C 
ATOM     31  C   UNL     1       4.799   6.009  17.335  0.00  0.00    +0.000 A 
ATOM     32  O   UNL     1       5.321   7.123  17.382  0.00  0.00    +0.000 OA
ATOM     33  C   UNL     1       3.436   5.782  17.910  0.00  0.00    +0.000 A 
BRANCH  26  35
ATOM     34  C   UNL     1       1.237   2.942  18.492  0.00  0.00    +0.000 C 
ATOM     35  O   UNL     1       1.607   4.306  18.338  0.00  0.00    +0.000 OA
ENDBRANCH  26  35
ENDBRANCH  20  33
ENDBRANCH  19  23
ENDBRANCH   1  19
TORSDOF 12
ENDMDL
MODEL 6
REMARK VINA RESULT:      -7.2      1.907      2.306
REMARK  Name = 
REMARK  17 active torsions:
REMARK  status: ('A' for Active; 'I' for Inactive)
REMARK    1  A    between atoms: C_1  and  O_2
REMARK    2  A    between atoms: O_2  and  C_3
REMARK    3  A    between atoms: N_6  and  C_7
REMARK    4  A    between atoms: C_10  and  C_11
REMARK    5  A    between atoms: C_14  and  C_15
REMARK    6  A    between atoms: C_15  and  C_16
REMARK    7  A    between atoms: C_16  and  N_17
REMARK    8  A    between atoms: C_16  and  C_26
REMARK    9  A    between atoms: N_20  and  C_21
REMARK   10  A    between atoms: N_20  and  C_22
REMARK   11  A    between atoms: C_22  and  C_23
REMARK   12  A    between atoms: C_23  and  C_24
REMARK   13  A    between atoms: C_23  and  C_25
REMARK   14  A    between atoms: C_26  and  O_28
REMARK   15  A    between atoms: O_28  and  C_29
REMARK   16  A    between atoms: C_29  and  C_30
REMARK   17  A    between atoms: C_30  and  O_31
REMARK                            x       y       z     vdW  Elec       q    Type
REMARK                         _______ _______ _______ _____ _____    ______ ____
ROOT
ATOM      1  C   UNL     1       4.846   6.119  18.092  0.00  0.00    +0.000 C 
ENDROOT
BRANCH   1   2
ATOM      2  N   UNL     1       5.613   5.742  16.884  0.00  0.00    +0.000 N 
ATOM      3  C   UNL     1       5.238   4.697  16.074  0.00  0.00    +0.000 C 
ATOM      4  O   UNL     1       4.246   4.018  16.317  0.00  0.00    +0.000 OA
ATOM      5  N   UNL     1       6.049   4.483  14.963  0.00  0.00    +0.000 N 
ATOM      6  C   UNL     1       7.165   5.342  14.584  0.00  0.00    +0.000 C 
ATOM      7  H   UNL     1       6.611   5.861  16.969  0.00  0.00    +0.000 HD
BRANCH   5   8
ATOM      8  C   UNL     1       5.672   3.427  14.007  0.00  0.00    +0.000 C 
BRANCH   8   9
ATOM      9  C   UNL     1       5.802   3.794  12.514  0.00  0.00    +0.000 C 
ATOM     10  C   UNL     1       7.004   3.119  11.854  0.00  0.00    +0.000 C 
ATOM     11  C   UNL     1       4.524   3.386  11.772  0.00  0.00    +0.000 C 
ENDBRANCH   8   9
ENDBRANCH   5   8
ENDBRANCH   1   2
BRANCH   1  12
ATOM     12  C   UNL     1       5.379   5.329  19.290  0.00  0.00    +0.000 C 
ATOM     13  O   UNL     1       6.557   5.370  19.634  0.00  0.00    +0.000 OA
BRANCH  12  14
ATOM     14  O   UNL     1       4.455   4.479  19.809  0.00  0.00    +0.000 OA
BRANCH  14  15
ATOM     15  C   UNL     1       4.535   3.124  19.330  0.00  0.00    +0.000 C 
BRANCH  15  16
ATOM     16  C   UNL     1       4.300   2.134  20.462  0.00  0.00    +0.000 C 
BRANCH  16  17
ATOM     17  O   UNL     1       5.436   1.286  20.618  0.00  0.00    +0.000 OA
ATOM     18  H   UNL     1       6.219   1.829  20.409  0.00  0.00    +0.000 HD
ENDBRANCH  16  17
ENDBRANCH  15  16
ENDBRANCH  14  15
ENDBRANCH  12  14
ENDBRANCH   1  12
BRANCH   1  19
ATOM     19  C   UNL     1       3.318   6.115  17.906  0.00  0.00    +0.000 C 
BRANCH  19  23
ATOM     20  C   UNL     1       1.078   9.634  19.171  0.00  0.00    +0.000 A 
ATOM     21  C   UNL     1       1.656   9.585  17.898  0.00  0.00    +0.000 A 
ATOM     22  C   UNL     1       2.405   8.469  17.489  0.00  0.00    +0.000 A 
ATOM     23  C   UNL     1       2.598   7.381  18.354  0.00  0.00    +0.000 A 
ATOM     24  C   UNL     1       2.034   7.446  19.636  0.00  0.00    +0.000 A 
ATOM     25  C   UNL     1       1.284   8.557  20.042  0.00  0.00    +0.000 A 
BRANCH  20  33
ATOM     26  C   UNL     1      -1.013  10.910  19.082  0.00  0.00    +0.000 A 
ATOM     27  C   UNL     1      -1.781  12.074  19.575  0.00  0.00    +0.000 A 
ATOM     28  N   UNL     1      -1.376  12.966  20.417  0.00  0.00    +0.000 NA
ATOM     29  N   UNL     1      -0.106  12.816  20.904  0.00  0.00    +0.000 N 
ATOM     30  C   UNL     1       0.326  13.796  21.885  0.00  0.00    +0.000 C 
ATOM     31  C   UNL     1       0.757  11.782  20.556  0.00  0.00    +0.000 A 
ATOM     32  O   UNL     1       1.893  11.677  21.016  0.00  0.00    +0.000 OA
ATOM     33  C   UNL     1       0.236  10.778  19.576  0.00  0.00    +0.000 A 
BRANCH  26  35
ATOM     34  C   UNL     1      -2.928  10.127  17.886  0.00  0.00    +0.000 C 
ATOM     35  O   UNL     1      -1.549   9.986  18.199  0.00  0.00    +0.000 OA
ENDBRANCH  26  35
ENDBRANCH  20  33
ENDBRANCH  19  23
ENDBRANCH   1  19
TORSDOF 12
ENDMDL
MODEL 7
REMARK VINA RESULT:      -7.2      1.934      9.261
REMARK  Name = 
REMARK  17 active torsions:
REMARK  status: ('A' for Active; 'I' for Inactive)
REMARK    1  A    between atoms: C_1  and  O_2
REMARK    2  A    between atoms: O_2  and  C_3
REMARK    3  A    between atoms: N_6  and  C_7
REMARK    4  A    between atoms: C_10  and  C_11
REMARK    5  A    between atoms: C_14  and  C_15
REMARK    6  A    between atoms: C_15  and  C_16
REMARK    7  A    between atoms: C_16  and  N_17
REMARK    8  A    between atoms: C_16  and  C_26
REMARK    9  A    between atoms: N_20  and  C_21
REMARK   10  A    between atoms: N_20  and  C_22
REMARK   11  A    between atoms: C_22  and  C_23
REMARK   12  A    between atoms: C_23  and  C_24
REMARK   13  A    between atoms: C_23  and  C_25
REMARK   14  A    between atoms: C_26  and  O_28
REMARK   15  A    between atoms: O_28  and  C_29
REMARK   16  A    between atoms: C_29  and  C_30
REMARK   17  A    between atoms: C_30  and  O_31
REMARK                            x       y       z     vdW  Elec       q    Type
REMARK                         _______ _______ _______ _____ _____    ______ ____
ROOT
ATOM      1  C   UNL     1      -0.223  11.147  18.809  0.00  0.00    +0.000 C 
ENDROOT
BRANCH   1   2
ATOM      2  N   UNL     1      -0.406  12.560  19.210  0.00  0.00    +0.000 N 
ATOM      3  C   UNL     1       0.442  13.557  18.792  0.00  0.00    +0.000 C 
ATOM      4  O   UNL     1       1.403  13.323  18.067  0.00  0.00    +0.000 OA
ATOM      5  N   UNL     1       0.121  14.837  19.236  0.00  0.00    +0.000 N 
ATOM      6  C   UNL     1      -1.075  15.165  20.002  0.00  0.00    +0.000 C 
ATOM      7  H   UNL     1      -0.763  12.686  20.145  0.00  0.00    +0.000 HD
BRANCH   5   8
ATOM      8  C   UNL     1       0.942  15.970  18.772  0.00  0.00    +0.000 C 
BRANCH   8   9
ATOM      9  C   UNL     1       2.155  16.327  19.656  0.00  0.00    +0.000 C 
ATOM     10  C   UNL     1       3.469  16.297  18.876  0.00  0.00    +0.000 C 
ATOM     11  C   UNL     1       1.958  17.722  20.261  0.00  0.00    +0.000 C 
ENDBRANCH   8   9
ENDBRANCH   5   8
ENDBRANCH   1   2
BRANCH   1  12
ATOM     12  C   UNL     1      -1.507  10.645  18.146  0.00  0.00    +0.000 C 
ATOM     13  O   UNL     1      -1.502   9.788  17.266  0.00  0.00    +0.000 OA
BRANCH  12  14
ATOM     14  O   UNL     1      -2.603  11.354  18.522  0.00  0.00    +0.000 OA
BRANCH  14  15
ATOM     15  C   UNL     1      -3.858  10.836  18.046  0.00  0.00    +0.000 C 
BRANCH  15  16
ATOM     16  C   UNL     1      -4.401  11.687  16.907  0.00  0.00    +0.000 C 
BRANCH  16  17
ATOM     17  O   UNL     1      -3.595  11.522  15.742  0.00  0.00    +0.000 OA
ATOM     18  H   UNL     1      -3.303  12.414  15.477  0.00  0.00    +0.000 HD
ENDBRANCH  16  17
ENDBRANCH  15  16
ENDBRANCH  14  15
ENDBRANCH  12  14
ENDBRANCH   1  12
BRANCH   1  19
ATOM     19  C   UNL     1       0.368  10.243  19.906  0.00  0.00    +0.000 C 
BRANCH  19  23
ATOM     20  C   UNL     1       2.804   6.960  18.393  0.00  0.00    +0.000 A 
ATOM     21  C   UNL     1       2.396   6.978  19.731  0.00  0.00    +0.000 A 
ATOM     22  C   UNL     1       1.635   8.044  20.238  0.00  0.00    +0.000 A 
ATOM     23  C   UNL     1       1.276   9.123  19.415  0.00  0.00    +0.000 A 
ATOM     24  C   UNL     1       1.707   9.108  18.080  0.00  0.00    +0.000 A 
ATOM     25  C   UNL     1       2.462   8.043  17.574  0.00  0.00    +0.000 A 
BRANCH  20  33
ATOM     26  C   UNL     1       2.928   4.621  17.671  0.00  0.00    +0.000 A 
ATOM     27  C   UNL     1       3.754   3.542  17.088  0.00  0.00    +0.000 A 
ATOM     28  N   UNL     1       4.995   3.623  16.738  0.00  0.00    +0.000 NA
ATOM     29  N   UNL     1       5.606   4.833  16.924  0.00  0.00    +0.000 N 
ATOM     30  C   UNL     1       6.987   4.930  16.486  0.00  0.00    +0.000 C 
ATOM     31  C   UNL     1       4.984   5.958  17.456  0.00  0.00    +0.000 A 
ATOM     32  O   UNL     1       5.565   7.032  17.608  0.00  0.00    +0.000 OA
ATOM     33  C   UNL     1       3.547   5.807  17.845  0.00  0.00    +0.000 A 
BRANCH  26  35
ATOM     34  C   UNL     1       1.233   3.212  18.596  0.00  0.00    +0.000 C 
ATOM     35  O   UNL     1       1.589   4.445  17.985  0.00  0.00    +0.000 OA
ENDBRANCH  26  35
ENDBRANCH  20  33
ENDBRANCH  19  23
ENDBRANCH   1  19
TORSDOF 12
ENDMDL
MODEL 8
REMARK VINA RESULT:      -7.1      2.288      9.146
REMARK  Name = 
REMARK  17 active torsions:
REMARK  status: ('A' for Active; 'I' for Inactive)
REMARK    1  A    between atoms: C_1  and  O_2
REMARK    2  A    between atoms: O_2  and  C_3
REMARK    3  A    between atoms: N_6  and  C_7
REMARK    4  A    between atoms: C_10  and  C_11
REMARK    5  A    between atoms: C_14  and  C_15
REMARK    6  A    between atoms: C_15  and  C_16
REMARK    7  A    between atoms: C_16  and  N_17
REMARK    8  A    between atoms: C_16  and  C_26
REMARK    9  A    between atoms: N_20  and  C_21
REMARK   10  A    between atoms: N_20  and  C_22
REMARK   11  A    between atoms: C_22  and  C_23
REMARK   12  A    between atoms: C_23  and  C_24
REMARK   13  A    between atoms: C_23  and  C_25
REMARK   14  A    between atoms: C_26  and  O_28
REMARK   15  A    between atoms: O_28  and  C_29
REMARK   16  A    between atoms: C_29  and  C_30
REMARK   17  A    between atoms: C_30  and  O_31
REMARK                            x       y       z     vdW  Elec       q    Type
REMARK                         _______ _______ _______ _____ _____    ______ ____
ROOT
ATOM      1  C   UNL     1       0.511  11.739  19.195  0.00  0.00    +0.000 C 
ENDROOT
BRANCH   1   2
ATOM      2  N   UNL     1       1.340  12.774  19.851  0.00  0.00    +0.000 N 
ATOM      3  C   UNL     1       2.497  13.254  19.284  0.00  0.00    +0.000 C 
ATOM      4  O   UNL     1       2.904  12.841  18.203  0.00  0.00    +0.000 OA
ATOM      5  N   UNL     1       3.151  14.243  20.013  0.00  0.00    +0.000 N 
ATOM      6  C   UNL     1       2.634  14.836  21.241  0.00  0.00    +0.000 C 
ATOM      7  H   UNL     1       1.368  12.712  20.857  0.00  0.00    +0.000 HD
BRANCH   5   8
ATOM      8  C   UNL     1       4.361  14.859  19.438  0.00  0.00    +0.000 C 
BRANCH   8   9
ATOM      9  C   UNL     1       4.242  16.351  19.066  0.00  0.00    +0.000 C 
ATOM     10  C   UNL     1       5.608  17.026  18.937  0.00  0.00    +0.000 C 
ATOM     11  C   UNL     1       3.482  16.492  17.741  0.00  0.00    +0.000 C 
ENDBRANCH   8   9
ENDBRANCH   5   8
ENDBRANCH   1   2
BRANCH   1  12
ATOM     12  C   UNL     1      -0.784  12.380  18.691  0.00  0.00    +0.000 C 
ATOM     13  O   UNL     1      -0.810  13.498  18.183  0.00  0.00    +0.000 OA
BRANCH  12  14
ATOM     14  O   UNL     1      -1.887  11.654  19.010  0.00  0.00    +0.000 OA
BRANCH  14  15
ATOM     15  C   UNL     1      -2.366  10.784  17.969  0.00  0.00    +0.000 C 
BRANCH  15  16
ATOM     16  C   UNL     1      -3.520  11.427  17.213  0.00  0.00    +0.000 C 
BRANCH  16  17
ATOM     17  O   UNL     1      -4.299  12.232  18.095  0.00  0.00    +0.000 OA
ATOM     18  H   UNL     1      -3.688  12.880  18.493  0.00  0.00    +0.000 HD
ENDBRANCH  16  17
ENDBRANCH  15  16
ENDBRANCH  14  15
ENDBRANCH  12  14
ENDBRANCH   1  12
BRANCH   1  19
ATOM     19  C   UNL     1       0.349  10.441  20.007  0.00  0.00    +0.000 C 
BRANCH  19  23
ATOM     20  C   UNL     1       2.554   6.976  18.547  0.00  0.00    +0.000 A 
ATOM     21  C   UNL     1       2.276   7.111  19.911  0.00  0.00    +0.000 A 
ATOM     22  C   UNL     1       1.591   8.237  20.398  0.00  0.00    +0.000 A 
ATOM     23  C   UNL     1       1.180   9.258  19.526  0.00  0.00    +0.000 A 
ATOM     24  C   UNL     1       1.482   9.124  18.163  0.00  0.00    +0.000 A 
ATOM     25  C   UNL     1       2.160   8.000  17.677  0.00  0.00    +0.000 A 
BRANCH  20  33
ATOM     26  C   UNL     1       4.457   5.832  17.508  0.00  0.00    +0.000 A 
ATOM     27  C   UNL     1       5.037   4.553  17.044  0.00  0.00    +0.000 A 
ATOM     28  N   UNL     1       4.475   3.392  17.083  0.00  0.00    +0.000 NA
ATOM     29  N   UNL     1       3.213   3.340  17.610  0.00  0.00    +0.000 N 
ATOM     30  C   UNL     1       2.604   2.023  17.693  0.00  0.00    +0.000 C 
ATOM     31  C   UNL     1       2.515   4.439  18.098  0.00  0.00    +0.000 A 
ATOM     32  O   UNL     1       1.380   4.355  18.567  0.00  0.00    +0.000 OA
ATOM     33  C   UNL     1       3.215   5.761  18.027  0.00  0.00    +0.000 A 
BRANCH  26  35
ATOM     34  C   UNL     1       6.565   6.938  17.283  0.00  0.00    +0.000 C 
ATOM     35  O   UNL     1       5.157   7.028  17.454  0.00  0.00    +0.000 OA
ENDBRANCH  26  35
ENDBRANCH  20  33
ENDBRANCH  19  23
ENDBRANCH   1  19
TORSDOF 12
ENDMDL
MODEL 9
REMARK VINA RESULT:      -7.1      2.154      9.092
REMARK  Name = 
REMARK  17 active torsions:
REMARK  status: ('A' for Active; 'I' for Inactive)
REMARK    1  A    between atoms: C_1  and  O_2
REMARK    2  A    between atoms: O_2  and  C_3
REMARK    3  A    between atoms: N_6  and  C_7
REMARK    4  A    between atoms: C_10  and  C_11
REMARK    5  A    between atoms: C_14  and  C_15
REMARK    6  A    between atoms: C_15  and  C_16
REMARK    7  A    between atoms: C_16  and  N_17
REMARK    8  A    between atoms: C_16  and  C_26
REMARK    9  A    between atoms: N_20  and  C_21
REMARK   10  A    between atoms: N_20  and  C_22
REMARK   11  A    between atoms: C_22  and  C_23
REMARK   12  A    between atoms: C_23  and  C_24
REMARK   13  A    between atoms: C_23  and  C_25
REMARK   14  A    between atoms: C_26  and  O_28
REMARK   15  A    between atoms: O_28  and  C_29
REMARK   16  A    between atoms: C_29  and  C_30
REMARK   17  A    between atoms: C_30  and  O_31
REMARK                            x       y       z     vdW  Elec       q    Type
REMARK                         _______ _______ _______ _____ _____    ______ ____
ROOT
ATOM      1  C   UNL     1       0.101  11.677  18.894  0.00  0.00    +0.000 C 
ENDROOT
BRANCH   1   2
ATOM      2  N   UNL     1       0.611  13.060  19.025  0.00  0.00    +0.000 N 
ATOM      3  C   UNL     1       1.883  13.412  18.645  0.00  0.00    +0.000 C 
ATOM      4  O   UNL     1       2.667  12.591  18.181  0.00  0.00    +0.000 OA
ATOM      5  N   UNL     1       2.204  14.757  18.809  0.00  0.00    +0.000 N 
ATOM      6  C   UNL     1       1.260  15.778  19.249  0.00  0.00    +0.000 C 
ATOM      7  H   UNL     1       0.269  13.556  19.834  0.00  0.00    +0.000 HD
BRANCH   5   8
ATOM      8  C   UNL     1       3.526  15.227  18.358  0.00  0.00    +0.000 C 
BRANCH   8   9
ATOM      9  C   UNL     1       4.372  15.967  19.414  0.00  0.00    +0.000 C 
ATOM     10  C   UNL     1       5.018  15.008  20.414  0.00  0.00    +0.000 C 
ATOM     11  C   UNL     1       5.467  16.783  18.716  0.00  0.00    +0.000 C 
ENDBRANCH   8   9
ENDBRANCH   5   8
ENDBRANCH   1   2
BRANCH   1  12
ATOM     12  C   UNL     1      -1.420  11.717  18.731  0.00  0.00    +0.000 C 
ATOM     13  O   UNL     1      -2.178  11.912  19.678  0.00  0.00    +0.000 OA
BRANCH  12  14
ATOM     14  O   UNL     1      -1.822  11.361  17.484  0.00  0.00    +0.000 OA
BRANCH  14  15
ATOM     15  C   UNL     1      -3.248  11.338  17.286  0.00  0.00    +0.000 C 
BRANCH  15  16
ATOM     16  C   UNL     1      -3.590  11.053  15.831  0.00  0.00    +0.000 C 
BRANCH  16  17
ATOM     17  O   UNL     1      -2.418  10.660  15.118  0.00  0.00    +0.000 OA
ATOM     18  H   UNL     1      -1.868  10.154  15.745  0.00  0.00    +0.000 HD
ENDBRANCH  16  17
ENDBRANCH  15  16
ENDBRANCH  14  15
ENDBRANCH  12  14
ENDBRANCH   1  12
BRANCH   1  19
ATOM     19  C   UNL     1       0.642  10.694  19.948  0.00  0.00    +0.000 C 
BRANCH  19  23
ATOM     20  C   UNL     1       2.475   7.032  18.456  0.00  0.00    +0.000 A 
ATOM     21  C   UNL     1       2.084   8.038  17.567  0.00  0.00    +0.000 A 
ATOM     22  C   UNL     1       1.466   9.211  18.032  0.00  0.00    +0.000 A 
ATOM     23  C   UNL     1       1.217   9.394  19.401  0.00  0.00    +0.000 A 
ATOM     24  C   UNL     1       1.593   8.371  20.285  0.00  0.00    +0.000 A 
ATOM     25  C   UNL     1       2.213   7.204  19.821  0.00  0.00    +0.000 A 
BRANCH  20  33
ATOM     26  C   UNL     1       4.430   5.934  17.466  0.00  0.00    +0.000 A 
ATOM     27  C   UNL     1       5.061   4.666  17.039  0.00  0.00    +0.000 A 
ATOM     28  N   UNL     1       4.540   3.486  17.099  0.00  0.00    +0.000 NA
ATOM     29  N   UNL     1       3.275   3.401  17.614  0.00  0.00    +0.000 N 
ATOM     30  C   UNL     1       2.714   2.066  17.722  0.00  0.00    +0.000 C 
ATOM     31  C   UNL     1       2.532   4.486  18.068  0.00  0.00    +0.000 A 
ATOM     32  O   UNL     1       1.396   4.372  18.527  0.00  0.00    +0.000 OA
ATOM     33  C   UNL     1       3.185   5.830  17.973  0.00  0.00    +0.000 A 
BRANCH  26  35
ATOM     34  C   UNL     1       6.507   7.113  17.352  0.00  0.00    +0.000 C 
ATOM     35  O   UNL     1       5.087   7.153  17.391  0.00  0.00    +0.000 OA
ENDBRANCH  26  35
ENDBRANCH  20  33
ENDBRANCH  19  23
ENDBRANCH   1  19
TORSDOF 12
ENDMDL
