MODEL 1
REMARK VINA RESULT:      -9.0      0.000      0.000
REMARK  Name = 
REMARK  7 active torsions:
REMARK  status: ('A' for Active; 'I' for Inactive)
REMARK    1  A    between atoms: C_1  and  C_2
REMARK    2  A    between atoms: N_4  and  C_5
REMARK    3  A    between atoms: C_8  and  S_9
REMARK    4  A    between atoms: S_9  and  N_12
REMARK    5  A    between atoms: N_12  and  C_13
REMARK    6  A    between atoms: C_17  and  C_18
REMARK    7  A    between atoms: C_22  and  C_23
REMARK                            x       y       z     vdW  Elec       q    Type
REMARK                         _______ _______ _______ _____ _____    ______ ____
ROOT
ATOM      1  N   UNL     1       2.321   5.990  21.082  0.00  0.00    +0.000 N 
ATOM      2  H   UNL     1       2.723   6.135  22.006  0.00  0.00    +0.000 HD
ENDROOT
BRANCH   1   3
ATOM      3  C   UNL     1       1.925   7.087  20.287  0.00  0.00    +0.000 A 
ATOM      4  C   UNL     1       2.477   7.244  19.015  0.00  0.00    +0.000 A 
ATOM      5  C   UNL     1       2.164   8.364  18.254  0.00  0.00    +0.000 A 
ATOM      6  C   UNL     1       1.338   9.347  18.792  0.00  0.00    +0.000 A 
ATOM      7  C   UNL     1       0.816   9.227  20.093  0.00  0.00    +0.000 A 
ATOM      8  C   UNL     1       1.089   8.067  20.827  0.00  0.00    +0.000 A 
BRANCH   7   9
ATOM      9  C   UNL     1       0.129  10.382  20.661  0.00  0.00    +0.000 A 
ATOM     10  N   UNL     1       0.206  10.806  21.912  0.00  0.00    +0.000 NA
ATOM     11  C   UNL     1      -0.809  11.712  22.003  0.00  0.00    +0.000 A 
ATOM     12  C   UNL     1      -1.284  12.422  23.109  0.00  0.00    +0.000 A 
ATOM     13  C   UNL     1      -2.390  13.272  22.940  0.00  0.00    +0.000 A 
ATOM     14  C   UNL     1      -2.938  14.009  24.126  0.00  0.00    +0.000 C 
ATOM     15  C   UNL     1      -2.980  13.415  21.669  0.00  0.00    +0.000 A 
ATOM     16  C   UNL     1      -2.510  12.711  20.548  0.00  0.00    +0.000 A 
ATOM     17  C   UNL     1      -1.434  11.863  20.776  0.00  0.00    +0.000 A 
ATOM     18  O   UNL     1      -0.823  11.012  19.894  0.00  0.00    +0.000 OA
ENDBRANCH   7   9
ENDBRANCH   1   3
BRANCH   1  19
ATOM     19  S   UNL     1       1.975   4.417  20.635  0.00  0.00    +0.000 S 
ATOM     20  O   UNL     1       0.607   4.354  20.169  0.00  0.00    +0.000 OA
ATOM     21  O   UNL     1       2.447   3.569  21.709  0.00  0.00    +0.000 OA
BRANCH  19  25
ATOM     22  C   UNL     1       4.802   3.833  17.085  0.00  0.00    +0.000 A 
ATOM     23  C   UNL     1       5.291   4.180  18.348  0.00  0.00    +0.000 A 
ATOM     24  C   UNL     1       4.428   4.329  19.433  0.00  0.00    +0.000 A 
ATOM     25  C   UNL     1       3.057   4.155  19.252  0.00  0.00    +0.000 A 
ATOM     26  C   UNL     1       2.545   3.814  17.999  0.00  0.00    +0.000 A 
ATOM     27  C   UNL     1       3.420   3.660  16.915  0.00  0.00    +0.000 A 
BRANCH  22  31
ATOM     28  C   UNL     1       6.795   4.127  13.894  0.00  0.00    +0.000 C 
ATOM     29  C   UNL     1       5.972   4.648  15.041  0.00  0.00    +0.000 C 
ATOM     30  O   UNL     1       5.657   5.832  15.086  0.00  0.00    +0.000 OA
ATOM     31  N   UNL     1       5.640   3.667  15.960  0.00  0.00    +0.000 N 
ATOM     32  H   UNL     1       6.099   2.770  15.866  0.00  0.00    +0.000 HD
ENDBRANCH  22  31
ENDBRANCH  19  25
ENDBRANCH   1  19
TORSDOF 5
ENDMDL
MODEL 2
REMARK VINA RESULT:      -8.8      3.666      5.654
REMARK  Name = 
REMARK  7 active torsions:
REMARK  status: ('A' for Active; 'I' for Inactive)
REMARK    1  A    between atoms: C_1  and  C_2
REMARK    2  A    between atoms: N_4  and  C_5
REMARK    3  A    between atoms: C_8  and  S_9
REMARK    4  A    between atoms: S_9  and  N_12
REMARK    5  A    between atoms: N_12  and  C_13
REMARK    6  A    between atoms: C_17  and  C_18
REMARK    7  A    between atoms: C_22  and  C_23
REMARK                            x       y       z     vdW  Elec       q    Type
REMARK                         _______ _______ _______ _____ _____    ______ ____
ROOT
ATOM      1  N   UNL     1       5.686   3.920  17.161  0.00  0.00    +0.000 N 
ATOM      2  H   UNL     1       6.229   3.078  17.342  0.00  0.00    +0.000 HD
ENDROOT
BRANCH   1   3
ATOM      3  C   UNL     1       4.391   4.073  17.703  0.00  0.00    +0.000 A 
ATOM      4  C   UNL     1       3.390   3.168  17.348  0.00  0.00    +0.000 A 
ATOM      5  C   UNL     1       2.090   3.354  17.803  0.00  0.00    +0.000 A 
ATOM      6  C   UNL     1       1.789   4.475  18.572  0.00  0.00    +0.000 A 
ATOM      7  C   UNL     1       2.778   5.423  18.895  0.00  0.00    +0.000 A 
ATOM      8  C   UNL     1       4.095   5.194  18.482  0.00  0.00    +0.000 A 
BRANCH   7   9
ATOM      9  C   UNL     1       2.348   6.666  19.527  0.00  0.00    +0.000 A 
ATOM     10  N   UNL     1       1.879   6.801  20.757  0.00  0.00    +0.000 NA
ATOM     11  C   UNL     1       1.368   8.065  20.764  0.00  0.00    +0.000 A 
ATOM     12  C   UNL     1       0.656   8.740  21.759  0.00  0.00    +0.000 A 
ATOM     13  C   UNL     1       0.196  10.041  21.492  0.00  0.00    +0.000 A 
ATOM     14  C   UNL     1      -0.607  10.765  22.533  0.00  0.00    +0.000 C 
ATOM     15  C   UNL     1       0.481  10.648  20.254  0.00  0.00    +0.000 A 
ATOM     16  C   UNL     1       1.200   9.982  19.247  0.00  0.00    +0.000 A 
ATOM     17  C   UNL     1       1.606   8.689  19.552  0.00  0.00    +0.000 A 
ATOM     18  O   UNL     1       2.253   7.792  18.745  0.00  0.00    +0.000 OA
ENDBRANCH   7   9
ENDBRANCH   1   3
BRANCH   1  19
ATOM     19  S   UNL     1       6.304   5.008  16.053  0.00  0.00    +0.000 S 
ATOM     20  O   UNL     1       5.206   5.621  15.338  0.00  0.00    +0.000 OA
ATOM     21  O   UNL     1       7.371   4.325  15.355  0.00  0.00    +0.000 OA
BRANCH  19  25
ATOM     22  C   UNL     1       8.312   8.200  18.644  0.00  0.00    +0.000 A 
ATOM     23  C   UNL     1       7.659   8.541  17.455  0.00  0.00    +0.000 A 
ATOM     24  C   UNL     1       7.024   7.568  16.683  0.00  0.00    +0.000 A 
ATOM     25  C   UNL     1       7.062   6.235  17.089  0.00  0.00    +0.000 A 
ATOM     26  C   UNL     1       7.712   5.870  18.268  0.00  0.00    +0.000 A 
ATOM     27  C   UNL     1       8.343   6.855  19.041  0.00  0.00    +0.000 A 
BRANCH  22  31
ATOM     28  C   UNL     1      10.105  11.165  20.140  0.00  0.00    +0.000 C 
ATOM     29  C   UNL     1       9.328  10.434  19.078  0.00  0.00    +0.000 C 
ATOM     30  O   UNL     1       9.086  10.978  18.006  0.00  0.00    +0.000 OA
ATOM     31  N   UNL     1       8.963   9.153  19.458  0.00  0.00    +0.000 N 
ATOM     32  H   UNL     1       9.102   8.901  20.428  0.00  0.00    +0.000 HD
ENDBRANCH  22  31
ENDBRANCH  19  25
ENDBRANCH   1  19
TORSDOF 5
ENDMDL
MODEL 3
REMARK VINA RESULT:      -8.7      5.815      8.365
REMARK  Name = 
REMARK  7 active torsions:
REMARK  status: ('A' for Active; 'I' for Inactive)
REMARK    1  A    between atoms: C_1  and  C_2
REMARK    2  A    between atoms: N_4  and  C_5
REMARK    3  A    between atoms: C_8  and  S_9
REMARK    4  A    between atoms: S_9  and  N_12
REMARK    5  A    between atoms: N_12  and  C_13
REMARK    6  A    between atoms: C_17  and  C_18
REMARK    7  A    between atoms: C_22  and  C_23
REMARK                            x       y       z     vdW  Elec       q    Type
REMARK                         _______ _______ _______ _____ _____    ______ ____
ROOT
ATOM      1  N   UNL     1       6.976   5.181  15.763  0.00  0.00    +0.000 N 
ATOM      2  H   UNL     1       7.526   4.515  15.225  0.00  0.00    +0.000 HD
ENDROOT
BRANCH   1   3
ATOM      3  C   UNL     1       7.461   5.698  16.984  0.00  0.00    +0.000 A 
ATOM      4  C   UNL     1       7.408   4.904  18.131  0.00  0.00    +0.000 A 
ATOM      5  C   UNL     1       7.800   5.427  19.357  0.00  0.00    +0.000 A 
ATOM      6  C   UNL     1       8.196   6.760  19.438  0.00  0.00    +0.000 A 
ATOM      7  C   UNL     1       8.204   7.586  18.299  0.00  0.00    +0.000 A 
ATOM      8  C   UNL     1       7.866   7.033  17.059  0.00  0.00    +0.000 A 
BRANCH   7   9
ATOM      9  C   UNL     1       8.434   9.014  18.495  0.00  0.00    +0.000 A 
ATOM     10  N   UNL     1       8.128   9.983  17.648  0.00  0.00    +0.000 NA
ATOM     11  C   UNL     1       8.785  11.065  18.154  0.00  0.00    +0.000 A 
ATOM     12  C   UNL     1       8.917  12.358  17.639  0.00  0.00    +0.000 A 
ATOM     13  C   UNL     1       9.698  13.287  18.346  0.00  0.00    +0.000 A 
ATOM     14  C   UNL     1       9.885  14.667  17.786  0.00  0.00    +0.000 C 
ATOM     15  C   UNL     1      10.306  12.917  19.561  0.00  0.00    +0.000 A 
ATOM     16  C   UNL     1      10.177  11.623  20.092  0.00  0.00    +0.000 A 
ATOM     17  C   UNL     1       9.419  10.735  19.340  0.00  0.00    +0.000 A 
ATOM     18  O   UNL     1       9.187   9.407  19.577  0.00  0.00    +0.000 OA
ENDBRANCH   7   9
ENDBRANCH   1   3
BRANCH   1  19
ATOM     19  S   UNL     1       5.415   5.483  15.244  0.00  0.00    +0.000 S 
ATOM     20  O   UNL     1       5.124   4.625  14.116  0.00  0.00    +0.000 OA
ATOM     21  O   UNL     1       5.281   6.921  15.154  0.00  0.00    +0.000 OA
BRANCH  19  25
ATOM     22  C   UNL     1       2.948   4.172  18.867  0.00  0.00    +0.000 A 
ATOM     23  C   UNL     1       3.223   5.522  18.631  0.00  0.00    +0.000 A 
ATOM     24  C   UNL     1       3.951   5.919  17.510  0.00  0.00    +0.000 A 
ATOM     25  C   UNL     1       4.434   4.955  16.626  0.00  0.00    +0.000 A 
ATOM     26  C   UNL     1       4.177   3.601  16.844  0.00  0.00    +0.000 A 
ATOM     27  C   UNL     1       3.439   3.211  17.970  0.00  0.00    +0.000 A 
BRANCH  22  31
ATOM     28  C   UNL     1       1.609   2.509  21.979  0.00  0.00    +0.000 C 
ATOM     29  C   UNL     1       2.674   2.885  20.984  0.00  0.00    +0.000 C 
ATOM     30  O   UNL     1       3.813   2.447  21.104  0.00  0.00    +0.000 OA
ATOM     31  N   UNL     1       2.210   3.726  19.986  0.00  0.00    +0.000 N 
ATOM     32  H   UNL     1       1.286   4.122  20.106  0.00  0.00    +0.000 HD
ENDBRANCH  22  31
ENDBRANCH  19  25
ENDBRANCH   1  19
TORSDOF 5
ENDMDL
MODEL 4
REMARK VINA RESULT:      -8.6      2.761      3.640
REMARK  Name = 
REMARK  7 active torsions:
REMARK  status: ('A' for Active; 'I' for Inactive)
REMARK    1  A    between atoms: C_1  and  C_2
REMARK    2  A    between atoms: N_4  and  C_5
REMARK    3  A    between atoms: C_8  and  S_9
REMARK    4  A    between atoms: S_9  and  N_12
REMARK    5  A    between atoms: N_12  and  C_13
REMARK    6  A    between atoms: C_17  and  C_18
REMARK    7  A    between atoms: C_22  and  C_23
REMARK                            x       y       z     vdW  Elec       q    Type
REMARK                         _______ _______ _______ _____ _____    ______ ____
ROOT
ATOM      1  N   UNL     1       3.034   7.342  18.347  0.00  0.00    +0.000 N 
ATOM      2  H   UNL     1       3.678   7.813  17.714  0.00  0.00    +0.000 HD
ENDROOT
BRANCH   1   3
ATOM      3  C   UNL     1       2.098   8.080  19.105  0.00  0.00    +0.000 A 
ATOM      4  C   UNL     1       2.007   7.861  20.480  0.00  0.00    +0.000 A 
ATOM      5  C   UNL     1       1.033   8.515  21.226  0.00  0.00    +0.000 A 
ATOM      6  C   UNL     1       0.123   9.347  20.581  0.00  0.00    +0.000 A 
ATOM      7  C   UNL     1       0.171   9.538  19.187  0.00  0.00    +0.000 A 
ATOM      8  C   UNL     1       1.192   8.922  18.456  0.00  0.00    +0.000 A 
BRANCH   7   9
ATOM      9  C   UNL     1      -0.932  10.258  18.560  0.00  0.00    +0.000 A 
ATOM     10  N   UNL     1      -1.825  11.018  19.174  0.00  0.00    +0.000 NA
ATOM     11  C   UNL     1      -2.779  11.220  18.221  0.00  0.00    +0.000 A 
ATOM     12  C   UNL     1      -4.014  11.868  18.309  0.00  0.00    +0.000 A 
ATOM     13  C   UNL     1      -4.841  11.897  17.173  0.00  0.00    +0.000 A 
ATOM     14  C   UNL     1      -6.188  12.552  17.262  0.00  0.00    +0.000 C 
ATOM     15  C   UNL     1      -4.407  11.306  15.971  0.00  0.00    +0.000 A 
ATOM     16  C   UNL     1      -3.166  10.655  15.868  0.00  0.00    +0.000 A 
ATOM     17  C   UNL     1      -2.401  10.630  17.027  0.00  0.00    +0.000 A 
ATOM     18  O   UNL     1      -1.197  10.013  17.233  0.00  0.00    +0.000 OA
ENDBRANCH   7   9
ENDBRANCH   1   3
BRANCH   1  19
ATOM     19  S   UNL     1       3.261   5.704  18.595  0.00  0.00    +0.000 S 
ATOM     20  O   UNL     1       1.983   5.035  18.488  0.00  0.00    +0.000 OA
ATOM     21  O   UNL     1       4.084   5.576  19.779  0.00  0.00    +0.000 OA
BRANCH  19  25
ATOM     22  C   UNL     1       5.793   4.545  14.965  0.00  0.00    +0.000 A 
ATOM     23  C   UNL     1       5.544   5.885  15.273  0.00  0.00    +0.000 A 
ATOM     24  C   UNL     1       4.796   6.235  16.397  0.00  0.00    +0.000 A 
ATOM     25  C   UNL     1       4.267   5.234  17.209  0.00  0.00    +0.000 A 
ATOM     26  C   UNL     1       4.497   3.888  16.919  0.00  0.00    +0.000 A 
ATOM     27  C   UNL     1       5.255   3.547  15.791  0.00  0.00    +0.000 A 
BRANCH  22  31
ATOM     28  C   UNL     1       7.117   3.197  11.698  0.00  0.00    +0.000 C 
ATOM     29  C   UNL     1       6.043   3.626  12.662  0.00  0.00    +0.000 C 
ATOM     30  O   UNL     1       4.861   3.490  12.369  0.00  0.00    +0.000 OA
ATOM     31  N   UNL     1       6.550   4.147  13.841  0.00  0.00    +0.000 N 
ATOM     32  H   UNL     1       7.544   4.334  13.875  0.00  0.00    +0.000 HD
ENDBRANCH  22  31
ENDBRANCH  19  25
ENDBRANCH   1  19
TORSDOF 5
ENDMDL
MODEL 5
REMARK VINA RESULT:      -8.6      3.484      5.296
REMARK  Name = 
REMARK  7 active torsions:
REMARK  status: ('A' for Active; 'I' for Inactive)
REMARK    1  A    between atoms: C_1  and  C_2
REMARK    2  A    between atoms: N_4  and  C_5
REMARK    3  A    between atoms: C_8  and  S_9
REMARK    4  A    between atoms: S_9  and  N_12
REMARK    5  A    between atoms: N_12  and  C_13
REMARK    6  A    between atoms: C_17  and  C_18
REMARK    7  A    between atoms: C_22  and  C_23
REMARK                            x       y       z     vdW  Elec       q    Type
REMARK                         _______ _______ _______ _____ _____    ______ ____
ROOT
ATOM      1  N   UNL     1       5.332   3.650  17.765  0.00  0.00    +0.000 N 
ATOM      2  H   UNL     1       5.889   2.856  18.072  0.00  0.00    +0.000 HD
ENDROOT
BRANCH   1   3
ATOM      3  C   UNL     1       4.049   3.884  18.306  0.00  0.00    +0.000 A 
ATOM      4  C   UNL     1       3.024   2.972  18.053  0.00  0.00    +0.000 A 
ATOM      5  C   UNL     1       1.735   3.231  18.505  0.00  0.00    +0.000 A 
ATOM      6  C   UNL     1       1.470   4.427  19.166  0.00  0.00    +0.000 A 
ATOM      7  C   UNL     1       2.483   5.379  19.383  0.00  0.00    +0.000 A 
ATOM      8  C   UNL     1       3.789   5.081  18.977  0.00  0.00    +0.000 A 
BRANCH   7   9
ATOM      9  C   UNL     1       2.090   6.686  19.898  0.00  0.00    +0.000 A 
ATOM     10  N   UNL     1       1.531   6.933  21.071  0.00  0.00    +0.000 NA
ATOM     11  C   UNL     1       1.111   8.226  20.957  0.00  0.00    +0.000 A 
ATOM     12  C   UNL     1       0.366   9.010  21.841  0.00  0.00    +0.000 A 
ATOM     13  C   UNL     1       0.022  10.317  21.456  0.00  0.00    +0.000 A 
ATOM     14  C   UNL     1      -0.813  11.158  22.377  0.00  0.00    +0.000 C 
ATOM     15  C   UNL     1       0.449  10.820  20.212  0.00  0.00    +0.000 A 
ATOM     16  C   UNL     1       1.202  10.043  19.315  0.00  0.00    +0.000 A 
ATOM     17  C   UNL     1       1.490   8.751  19.733  0.00  0.00    +0.000 A 
ATOM     18  O   UNL     1       2.138   7.762  19.042  0.00  0.00    +0.000 OA
ENDBRANCH   7   9
ENDBRANCH   1   3
BRANCH   1  19
ATOM     19  S   UNL     1       5.910   4.538  16.472  0.00  0.00    +0.000 S 
ATOM     20  O   UNL     1       4.792   5.152  15.789  0.00  0.00    +0.000 OA
ATOM     21  O   UNL     1       6.847   3.686  15.771  0.00  0.00    +0.000 OA
BRANCH  19  25
ATOM     22  C   UNL     1       8.301   7.810  18.595  0.00  0.00    +0.000 A 
ATOM     23  C   UNL     1       8.165   6.537  19.155  0.00  0.00    +0.000 A 
ATOM     24  C   UNL     1       7.459   5.534  18.491  0.00  0.00    +0.000 A 
ATOM     25  C   UNL     1       6.860   5.813  17.264  0.00  0.00    +0.000 A 
ATOM     26  C   UNL     1       6.977   7.078  16.687  0.00  0.00    +0.000 A 
ATOM     27  C   UNL     1       7.693   8.078  17.359  0.00  0.00    +0.000 A 
BRANCH  22  31
ATOM     28  C   UNL     1       9.961  11.027  19.664  0.00  0.00    +0.000 C 
ATOM     29  C   UNL     1       9.016  10.184  18.850  0.00  0.00    +0.000 C 
ATOM     30  O   UNL     1       8.355  10.692  17.951  0.00  0.00    +0.000 OA
ATOM     31  N   UNL     1       9.012   8.853  19.231  0.00  0.00    +0.000 N 
ATOM     32  H   UNL     1       9.497   8.614  20.087  0.00  0.00    +0.000 HD
ENDBRANCH  22  31
ENDBRANCH  19  25
ENDBRANCH   1  19
TORSDOF 5
ENDMDL
MODEL 6
REMARK VINA RESULT:      -8.5      0.876      1.287
REMARK  Name = 
REMARK  7 active torsions:
REMARK  status: ('A' for Active; 'I' for Inactive)
REMARK    1  A    between atoms: C_1  and  C_2
REMARK    2  A    between atoms: N_4  and  C_5
REMARK    3  A    between atoms: C_8  and  S_9
REMARK    4  A    between atoms: S_9  and  N_12
REMARK    5  A    between atoms: N_12  and  C_13
REMARK    6  A    between atoms: C_17  and  C_18
REMARK    7  A    between atoms: C_22  and  C_23
REMARK                            x       y       z     vdW  Elec       q    Type
REMARK                         _______ _______ _______ _____ _____    ______ ____
ROOT
ATOM      1  N   UNL     1       2.348   6.454  20.936  0.00  0.00    +0.000 N 
ATOM      2  H   UNL     1       2.838   6.679  21.800  0.00  0.00    +0.000 HD
ENDROOT
BRANCH   1   3
ATOM      3  C   UNL     1       1.835   7.477  20.110  0.00  0.00    +0.000 A 
ATOM      4  C   UNL     1       2.375   7.663  18.836  0.00  0.00    +0.000 A 
ATOM      5  C   UNL     1       1.942   8.719  18.044  0.00  0.00    +0.000 A 
ATOM      6  C   UNL     1       1.004   9.615  18.551  0.00  0.00    +0.000 A 
ATOM      7  C   UNL     1       0.488   9.469  19.852  0.00  0.00    +0.000 A 
ATOM      8  C   UNL     1       0.887   8.368  20.619  0.00  0.00    +0.000 A 
BRANCH   7   9
ATOM      9  C   UNL     1      -0.331  10.553  20.385  0.00  0.00    +0.000 A 
ATOM     10  N   UNL     1      -0.900  11.523  19.689  0.00  0.00    +0.000 NA
ATOM     11  C   UNL     1      -1.297  12.409  20.646  0.00  0.00    +0.000 A 
ATOM     12  C   UNL     1      -1.873  13.676  20.515  0.00  0.00    +0.000 A 
ATOM     13  C   UNL     1      -2.149  14.414  21.678  0.00  0.00    +0.000 A 
ATOM     14  C   UNL     1      -2.729  15.793  21.553  0.00  0.00    +0.000 C 
ATOM     15  C   UNL     1      -1.871  13.863  22.944  0.00  0.00    +0.000 A 
ATOM     16  C   UNL     1      -1.296  12.590  23.090  0.00  0.00    +0.000 A 
ATOM     17  C   UNL     1      -1.017  11.915  21.909  0.00  0.00    +0.000 A 
ATOM     18  O   UNL     1      -0.400  10.703  21.750  0.00  0.00    +0.000 OA
ENDBRANCH   7   9
ENDBRANCH   1   3
BRANCH   1  19
ATOM     19  S   UNL     1       2.012   4.843  20.642  0.00  0.00    +0.000 S 
ATOM     20  O   UNL     1       0.633   4.723  20.221  0.00  0.00    +0.000 OA
ATOM     21  O   UNL     1       2.522   4.102  21.776  0.00  0.00    +0.000 OA
BRANCH  19  25
ATOM     22  C   UNL     1       4.758   3.969  17.089  0.00  0.00    +0.000 A 
ATOM     23  C   UNL     1       5.276   4.405  18.312  0.00  0.00    +0.000 A 
ATOM     24  C   UNL     1       4.438   4.643  19.401  0.00  0.00    +0.000 A 
ATOM     25  C   UNL     1       3.062   4.468  19.261  0.00  0.00    +0.000 A 
ATOM     26  C   UNL     1       2.521   4.038  18.048  0.00  0.00    +0.000 A 
ATOM     27  C   UNL     1       3.372   3.796  16.962  0.00  0.00    +0.000 A 
BRANCH  22  31
ATOM     28  C   UNL     1       6.725   4.023  13.869  0.00  0.00    +0.000 C 
ATOM     29  C   UNL     1       5.948   4.635  15.003  0.00  0.00    +0.000 C 
ATOM     30  O   UNL     1       5.704   5.837  15.006  0.00  0.00    +0.000 OA
ATOM     31  N   UNL     1       5.571   3.711  15.963  0.00  0.00    +0.000 N 
ATOM     32  H   UNL     1       5.975   2.785  15.899  0.00  0.00    +0.000 HD
ENDBRANCH  22  31
ENDBRANCH  19  25
ENDBRANCH   1  19
TORSDOF 5
ENDMDL
MODEL 7
REMARK VINA RESULT:      -8.4      4.059      5.573
REMARK  Name = 
REMARK  7 active torsions:
REMARK  status: ('A' for Active; 'I' for Inactive)
REMARK    1  A    between atoms: C_1  and  C_2
REMARK    2  A    between atoms: N_4  and  C_5
REMARK    3  A    between atoms: C_8  and  S_9
REMARK    4  A    between atoms: S_9  and  N_12
REMARK    5  A    between atoms: N_12  and  C_13
REMARK    6  A    between atoms: C_17  and  C_18
REMARK    7  A    between atoms: C_22  and  C_23
REMARK                            x       y       z     vdW  Elec       q    Type
REMARK                         _______ _______ _______ _____ _____    ______ ____
ROOT
ATOM      1  N   UNL     1       5.442   5.373  16.496  0.00  0.00    +0.000 N 
ATOM      2  H   UNL     1       5.402   5.805  15.575  0.00  0.00    +0.000 HD
ENDROOT
BRANCH   1   3
ATOM      3  C   UNL     1       4.278   5.250  17.286  0.00  0.00    +0.000 A 
ATOM      4  C   UNL     1       3.442   4.147  17.104  0.00  0.00    +0.000 A 
ATOM      5  C   UNL     1       2.249   4.054  17.811  0.00  0.00    +0.000 A 
ATOM      6  C   UNL     1       1.876   5.091  18.661  0.00  0.00    +0.000 A 
ATOM      7  C   UNL     1       2.684   6.233  18.816  0.00  0.00    +0.000 A 
ATOM      8  C   UNL     1       3.911   6.288  18.145  0.00  0.00    +0.000 A 
BRANCH   7   9
ATOM      9  C   UNL     1       2.135   7.360  19.561  0.00  0.00    +0.000 A 
ATOM     10  N   UNL     1       1.758   7.355  20.829  0.00  0.00    +0.000 NA
ATOM     11  C   UNL     1       1.072   8.527  20.961  0.00  0.00    +0.000 A 
ATOM     12  C   UNL     1       0.356   9.032  22.049  0.00  0.00    +0.000 A 
ATOM     13  C   UNL     1      -0.308  10.262  21.906  0.00  0.00    +0.000 A 
ATOM     14  C   UNL     1      -1.116  10.798  23.052  0.00  0.00    +0.000 C 
ATOM     15  C   UNL     1      -0.221  10.972  20.694  0.00  0.00    +0.000 A 
ATOM     16  C   UNL     1       0.499  10.478  19.593  0.00  0.00    +0.000 A 
ATOM     17  C   UNL     1       1.112   9.246  19.778  0.00  0.00    +0.000 A 
ATOM     18  O   UNL     1       1.811   8.502  18.866  0.00  0.00    +0.000 OA
ENDBRANCH   7   9
ENDBRANCH   1   3
BRANCH   1  19
ATOM     19  S   UNL     1       6.954   5.000  17.104  0.00  0.00    +0.000 S 
ATOM     20  O   UNL     1       7.814   4.608  16.008  0.00  0.00    +0.000 OA
ATOM     21  O   UNL     1       6.738   4.132  18.242  0.00  0.00    +0.000 OA
BRANCH  19  25
ATOM     22  C   UNL     1       8.452   9.037  18.651  0.00  0.00    +0.000 A 
ATOM     23  C   UNL     1       7.710   8.946  17.470  0.00  0.00    +0.000 A 
ATOM     24  C   UNL     1       7.231   7.717  17.017  0.00  0.00    +0.000 A 
ATOM     25  C   UNL     1       7.518   6.560  17.738  0.00  0.00    +0.000 A 
ATOM     26  C   UNL     1       8.261   6.624  18.918  0.00  0.00    +0.000 A 
ATOM     27  C   UNL     1       8.733   7.864  19.368  0.00  0.00    +0.000 A 
BRANCH  22  31
ATOM     28  C   UNL     1      10.298  12.248  19.370  0.00  0.00    +0.000 C 
ATOM     29  C   UNL     1       9.895  11.065  18.532  0.00  0.00    +0.000 C 
ATOM     30  O   UNL     1      10.399  10.890  17.428  0.00  0.00    +0.000 OA
ATOM     31  N   UNL     1       8.951  10.261  19.149  0.00  0.00    +0.000 N 
ATOM     32  H   UNL     1       8.520  10.616  19.993  0.00  0.00    +0.000 HD
ENDBRANCH  22  31
ENDBRANCH  19  25
ENDBRANCH   1  19
TORSDOF 5
ENDMDL
MODEL 8
REMARK VINA RESULT:      -8.4      1.288      1.480
REMARK  Name = 
REMARK  7 active torsions:
REMARK  status: ('A' for Active; 'I' for Inactive)
REMARK    1  A    between atoms: C_1  and  C_2
REMARK    2  A    between atoms: N_4  and  C_5
REMARK    3  A    between atoms: C_8  and  S_9
REMARK    4  A    between atoms: S_9  and  N_12
REMARK    5  A    between atoms: N_12  and  C_13
REMARK    6  A    between atoms: C_17  and  C_18
REMARK    7  A    between atoms: C_22  and  C_23
REMARK                            x       y       z     vdW  Elec       q    Type
REMARK                         _______ _______ _______ _____ _____    ______ ____
ROOT
ATOM      1  N   UNL     1       3.099   5.942  20.198  0.00  0.00    +0.000 N 
ATOM      2  H   UNL     1       3.423   5.990  21.162  0.00  0.00    +0.000 HD
ENDROOT
BRANCH   1   3
ATOM      3  C   UNL     1       2.471   7.052  19.592  0.00  0.00    +0.000 A 
ATOM      4  C   UNL     1       2.838   7.423  18.297  0.00  0.00    +0.000 A 
ATOM      5  C   UNL     1       2.293   8.563  17.719  0.00  0.00    +0.000 A 
ATOM      6  C   UNL     1       1.420   9.355  18.460  0.00  0.00    +0.000 A 
ATOM      7  C   UNL     1       1.080   9.021  19.784  0.00  0.00    +0.000 A 
ATOM      8  C   UNL     1       1.588   7.839  20.335  0.00  0.00    +0.000 A 
BRANCH   7   9
ATOM      9  C   UNL     1       0.325   9.999  20.561  0.00  0.00    +0.000 A 
ATOM     10  N   UNL     1       0.038   9.926  21.850  0.00  0.00    +0.000 NA
ATOM     11  C   UNL     1      -0.897  10.904  22.023  0.00  0.00    +0.000 A 
ATOM     12  C   UNL     1      -1.645  11.242  23.153  0.00  0.00    +0.000 A 
ATOM     13  C   UNL     1      -2.589  12.278  23.050  0.00  0.00    +0.000 A 
ATOM     14  C   UNL     1      -3.430  12.627  24.244  0.00  0.00    +0.000 C 
ATOM     15  C   UNL     1      -2.746  12.969  21.834  0.00  0.00    +0.000 A 
ATOM     16  C   UNL     1      -1.998  12.641  20.691  0.00  0.00    +0.000 A 
ATOM     17  C   UNL     1      -1.100  11.592  20.839  0.00  0.00    +0.000 A 
ATOM     18  O   UNL     1      -0.301  11.020  19.885  0.00  0.00    +0.000 OA
ENDBRANCH   7   9
ENDBRANCH   1   3
BRANCH   1  19
ATOM     19  S   UNL     1       3.165   4.454  19.439  0.00  0.00    +0.000 S 
ATOM     20  O   UNL     1       1.879   4.179  18.838  0.00  0.00    +0.000 OA
ATOM     21  O   UNL     1       3.771   3.537  20.381  0.00  0.00    +0.000 OA
BRANCH  19  25
ATOM     22  C   UNL     1       6.221   5.251  16.128  0.00  0.00    +0.000 A 
ATOM     23  C   UNL     1       6.490   5.594  17.457  0.00  0.00    +0.000 A 
ATOM     24  C   UNL     1       5.567   5.323  18.467  0.00  0.00    +0.000 A 
ATOM     25  C   UNL     1       4.350   4.726  18.144  0.00  0.00    +0.000 A 
ATOM     26  C   UNL     1       4.057   4.380  16.824  0.00  0.00    +0.000 A 
ATOM     27  C   UNL     1       4.993   4.650  15.817  0.00  0.00    +0.000 A 
BRANCH  22  31
ATOM     28  C   UNL     1       8.321   5.268  12.992  0.00  0.00    +0.000 C 
ATOM     29  C   UNL     1       7.163   4.846  13.857  0.00  0.00    +0.000 C 
ATOM     30  O   UNL     1       6.375   3.995  13.460  0.00  0.00    +0.000 OA
ATOM     31  N   UNL     1       7.129   5.502  15.076  0.00  0.00    +0.000 N 
ATOM     32  H   UNL     1       7.759   6.286  15.198  0.00  0.00    +0.000 HD
ENDBRANCH  22  31
ENDBRANCH  19  25
ENDBRANCH   1  19
TORSDOF 5
ENDMDL
MODEL 9
REMARK VINA RESULT:      -8.4      2.996     10.688
REMARK  Name = 
REMARK  7 active torsions:
REMARK  status: ('A' for Active; 'I' for Inactive)
REMARK    1  A    between atoms: C_1  and  C_2
REMARK    2  A    between atoms: N_4  and  C_5
REMARK    3  A    between atoms: C_8  and  S_9
REMARK    4  A    between atoms: S_9  and  N_12
REMARK    5  A    between atoms: N_12  and  C_13
REMARK    6  A    between atoms: C_17  and  C_18
REMARK    7  A    between atoms: C_22  and  C_23
REMARK                            x       y       z     vdW  Elec       q    Type
REMARK                         _______ _______ _______ _____ _____    ______ ____
ROOT
ATOM      1  N   UNL     1      -0.398  11.029  18.249  0.00  0.00    +0.000 N 
ATOM      2  H   UNL     1       0.122  11.855  17.961  0.00  0.00    +0.000 HD
ENDROOT
BRANCH   1   3
ATOM      3  C   UNL     1       0.242   9.977  18.939  0.00  0.00    +0.000 A 
ATOM      4  C   UNL     1       0.140   9.910  20.329  0.00  0.00    +0.000 A 
ATOM      5  C   UNL     1       0.835   8.933  21.032  0.00  0.00    +0.000 A 
ATOM      6  C   UNL     1       1.669   8.057  20.342  0.00  0.00    +0.000 A 
ATOM      7  C   UNL     1       1.821   8.145  18.945  0.00  0.00    +0.000 A 
ATOM      8  C   UNL     1       1.071   9.094  18.242  0.00  0.00    +0.000 A 
BRANCH   7   9
ATOM      9  C   UNL     1       2.859   7.332  18.320  0.00  0.00    +0.000 A 
ATOM     10  N   UNL     1       3.736   7.736  17.417  0.00  0.00    +0.000 NA
ATOM     11  C   UNL     1       4.278   6.572  16.957  0.00  0.00    +0.000 A 
ATOM     12  C   UNL     1       5.194   6.353  15.925  0.00  0.00    +0.000 A 
ATOM     13  C   UNL     1       5.559   5.031  15.619  0.00  0.00    +0.000 A 
ATOM     14  C   UNL     1       6.510   4.776  14.485  0.00  0.00    +0.000 C 
ATOM     15  C   UNL     1       5.026   3.962  16.364  0.00  0.00    +0.000 A 
ATOM     16  C   UNL     1       4.107   4.169  17.407  0.00  0.00    +0.000 A 
ATOM     17  C   UNL     1       3.758   5.491  17.649  0.00  0.00    +0.000 A 
ATOM     18  O   UNL     1       2.844   5.976  18.546  0.00  0.00    +0.000 OA
ENDBRANCH   7   9
ENDBRANCH   1   3
BRANCH   1  19
ATOM     19  S   UNL     1      -1.973  10.886  17.705  0.00  0.00    +0.000 S 
ATOM     20  O   UNL     1      -2.386   9.505  17.828  0.00  0.00    +0.000 OA
ATOM     21  O   UNL     1      -2.036  11.583  16.438  0.00  0.00    +0.000 OA
BRANCH  19  25
ATOM     22  C   UNL     1      -4.271  13.344  20.804  0.00  0.00    +0.000 A 
ATOM     23  C   UNL     1      -2.873  13.322  20.792  0.00  0.00    +0.000 A 
ATOM     24  C   UNL     1      -2.177  12.594  19.828  0.00  0.00    +0.000 A 
ATOM     25  C   UNL     1      -2.883  11.858  18.879  0.00  0.00    +0.000 A 
ATOM     26  C   UNL     1      -4.279  11.859  18.874  0.00  0.00    +0.000 A 
ATOM     27  C   UNL     1      -4.970  12.599  19.844  0.00  0.00    +0.000 A 
BRANCH  22  31
ATOM     28  C   UNL     1      -6.388  14.569  23.678  0.00  0.00    +0.000 C 
ATOM     29  C   UNL     1      -5.554  13.564  22.929  0.00  0.00    +0.000 C 
ATOM     30  O   UNL     1      -5.417  12.427  23.367  0.00  0.00    +0.000 OA
ATOM     31  N   UNL     1      -5.015  14.072  21.759  0.00  0.00    +0.000 N 
ATOM     32  H   UNL     1      -5.092  15.070  21.608  0.00  0.00    +0.000 HD
ENDBRANCH  22  31
ENDBRANCH  19  25
ENDBRANCH   1  19
TORSDOF 5
ENDMDL
