MODEL 1
REMARK VINA RESULT:      -9.3      0.000      0.000
REMARK  Name = 
REMARK  5 active torsions:
REMARK  status: ('A' for Active; 'I' for Inactive)
REMARK    1  A    between atoms: C_9  and  C_10
REMARK    2  A    between atoms: N_12  and  C_13
REMARK    3  A    between atoms: C_17  and  C_18
REMARK    4  A    between atoms: C_18  and  N_19
REMARK    5  A    between atoms: N_22  and  C_23
REMARK                            x       y       z     vdW  Elec       q    Type
REMARK                         _______ _______ _______ _____ _____    ______ ____
ROOT
ATOM      1  C   UNL     1       3.049   6.303  18.836  0.00  0.00    +0.000 A 
ATOM      2  C   UNL     1       2.504   5.093  18.399  0.00  0.00    +0.000 A 
ATOM      3  C   UNL     1       3.206   4.263  17.523  0.00  0.00    +0.000 A 
ATOM      4  C   UNL     1       4.477   4.620  17.093  0.00  0.00    +0.000 A 
ATOM      5  C   UNL     1       5.064   5.805  17.551  0.00  0.00    +0.000 A 
ATOM      6  C   UNL     1       4.336   6.650  18.406  0.00  0.00    +0.000 A 
ENDROOT
BRANCH   1   9
ATOM      7  C   UNL     1       1.814   8.398  19.395  0.00  0.00    +0.000 C 
ATOM      8  O   UNL     1       1.945   8.958  18.308  0.00  0.00    +0.000 OA
ATOM      9  N   UNL     1       2.391   7.189  19.724  0.00  0.00    +0.000 N 
ATOM     10  H   UNL     1       2.375   6.911  20.702  0.00  0.00    +0.000 HD
BRANCH   7  19
ATOM     11  N   UNL     1      -0.280  10.652  17.777  0.00  0.00    +0.000 N 
ATOM     12  C   UNL     1      -0.609  10.783  19.086  0.00  0.00    +0.000 A 
ATOM     13  N   UNL     1      -1.568  11.616  19.491  0.00  0.00    +0.000 NA
ATOM     14  O   UNL     1      -1.581  11.532  20.866  0.00  0.00    +0.000 OA
ATOM     15  C   UNL     1      -0.660  10.623  21.273  0.00  0.00    +0.000 A 
ATOM     16  C   UNL     1      -0.416  10.292  22.605  0.00  0.00    +0.000 A 
ATOM     17  C   UNL     1       0.551   9.324  22.837  0.00  0.00    +0.000 A 
ATOM     18  C   UNL     1       1.227   8.735  21.769  0.00  0.00    +0.000 A 
ATOM     19  C   UNL     1       0.978   9.091  20.415  0.00  0.00    +0.000 A 
ATOM     20  C   UNL     1      -0.002  10.083  20.171  0.00  0.00    +0.000 A 
ATOM     21  H   UNL     1      -0.947  11.154  17.187  0.00  0.00    +0.000 HD
ATOM     22  H   UNL     1       0.634  11.047  17.545  0.00  0.00    +0.000 HD
ENDBRANCH   7  19
ENDBRANCH   1   9
BRANCH   5  23
ATOM     23  C   UNL     1       6.468   6.151  17.149  0.00  0.00    +0.000 C 
BRANCH  23  24
ATOM     24  N   UNL     1       6.696   7.578  17.088  0.00  0.00    +0.000 N 
ATOM     25  C   UNL     1       7.728   8.059  17.862  0.00  0.00    +0.000 C 
ATOM     26  O   UNL     1       8.371   7.324  18.605  0.00  0.00    +0.000 OA
ATOM     27  N   UNL     1       7.904   9.417  17.715  0.00  0.00    +0.000 N 
ATOM     28  H   UNL     1       6.589   8.012  16.185  0.00  0.00    +0.000 HD
ATOM     29  H   UNL     1       7.101   9.922  17.374  0.00  0.00    +0.000 HD
BRANCH  27  30
ATOM     30  C   UNL     1       8.949  10.166  18.302  0.00  0.00    +0.000 A 
ATOM     31  C   UNL     1       9.144  10.237  19.686  0.00  0.00    +0.000 A 
ATOM     32  C   UNL     1      10.183  11.000  20.225  0.00  0.00    +0.000 A 
ATOM     33  C   UNL     1      11.042  11.689  19.380  0.00  0.00    +0.000 A 
ATOM     34 CL   UNL     1      12.321  12.628  20.044  0.00  0.00    +0.000 Cl
ATOM     35  C   UNL     1      10.873  11.617  17.998  0.00  0.00    +0.000 A 
ATOM     36  C   UNL     1       9.832  10.850  17.460  0.00  0.00    +0.000 A 
ENDBRANCH  27  30
ENDBRANCH  23  24
ENDBRANCH   5  23
TORSDOF 5
ENDMDL
MODEL 2
REMARK VINA RESULT:      -8.7      1.440      1.725
REMARK  Name = 
REMARK  5 active torsions:
REMARK  status: ('A' for Active; 'I' for Inactive)
REMARK    1  A    between atoms: C_9  and  C_10
REMARK    2  A    between atoms: N_12  and  C_13
REMARK    3  A    between atoms: C_17  and  C_18
REMARK    4  A    between atoms: C_18  and  N_19
REMARK    5  A    between atoms: N_22  and  C_23
REMARK                            x       y       z     vdW  Elec       q    Type
REMARK                         _______ _______ _______ _____ _____    ______ ____
ROOT
ATOM      1  C   UNL     1       3.270   6.409  18.454  0.00  0.00    +0.000 A 
ATOM      2  C   UNL     1       2.656   5.202  18.114  0.00  0.00    +0.000 A 
ATOM      3  C   UNL     1       3.358   4.203  17.437  0.00  0.00    +0.000 A 
ATOM      4  C   UNL     1       4.697   4.389  17.114  0.00  0.00    +0.000 A 
ATOM      5  C   UNL     1       5.348   5.571  17.483  0.00  0.00    +0.000 A 
ATOM      6  C   UNL     1       4.623   6.584  18.136  0.00  0.00    +0.000 A 
ENDROOT
BRANCH   1   9
ATOM      7  C   UNL     1       2.045   8.579  18.570  0.00  0.00    +0.000 C 
ATOM      8  O   UNL     1       2.180   8.905  17.393  0.00  0.00    +0.000 OA
ATOM      9  N   UNL     1       2.616   7.460  19.141  0.00  0.00    +0.000 N 
ATOM     10  H   UNL     1       2.596   7.387  20.155  0.00  0.00    +0.000 HD
BRANCH   7  19
ATOM     11  N   UNL     1       2.480  11.864  17.519  0.00  0.00    +0.000 N 
ATOM     12  C   UNL     1       1.589  11.963  18.537  0.00  0.00    +0.000 A 
ATOM     13  N   UNL     1       1.069  13.133  18.906  0.00  0.00    +0.000 NA
ATOM     14  O   UNL     1       0.267  12.861  19.993  0.00  0.00    +0.000 OA
ATOM     15  C   UNL     1       0.281  11.528  20.242  0.00  0.00    +0.000 A 
ATOM     16  C   UNL     1      -0.429  10.913  21.272  0.00  0.00    +0.000 A 
ATOM     17  C   UNL     1      -0.314   9.532  21.368  0.00  0.00    +0.000 A 
ATOM     18  C   UNL     1       0.481   8.829  20.464  0.00  0.00    +0.000 A 
ATOM     19  C   UNL     1       1.210   9.470  19.425  0.00  0.00    +0.000 A 
ATOM     20  C   UNL     1       1.104  10.878  19.326  0.00  0.00    +0.000 A 
ATOM     21  H   UNL     1       2.562  12.756  17.025  0.00  0.00    +0.000 HD
ATOM     22  H   UNL     1       3.428  11.640  17.828  0.00  0.00    +0.000 HD
ENDBRANCH   7  19
ENDBRANCH   1   9
BRANCH   5  23
ATOM     23  C   UNL     1       6.813   5.739  17.206  0.00  0.00    +0.000 C 
BRANCH  23  24
ATOM     24  N   UNL     1       7.500   6.465  18.251  0.00  0.00    +0.000 N 
ATOM     25  C   UNL     1       7.915   7.738  17.931  0.00  0.00    +0.000 C 
ATOM     26  O   UNL     1       7.763   8.199  16.805  0.00  0.00    +0.000 OA
ATOM     27  N   UNL     1       8.521   8.373  18.993  0.00  0.00    +0.000 N 
ATOM     28  H   UNL     1       7.149   6.342  19.188  0.00  0.00    +0.000 HD
ATOM     29  H   UNL     1       8.890   7.765  19.707  0.00  0.00    +0.000 HD
BRANCH  27  30
ATOM     30  C   UNL     1       8.951   9.719  18.991  0.00  0.00    +0.000 A 
ATOM     31  C   UNL     1       8.840  10.548  17.869  0.00  0.00    +0.000 A 
ATOM     32  C   UNL     1       9.290  11.870  17.907  0.00  0.00    +0.000 A 
ATOM     33  C   UNL     1       9.846  12.376  19.075  0.00  0.00    +0.000 A 
ATOM     34 CL   UNL     1      10.399  14.003  19.122  0.00  0.00    +0.000 Cl
ATOM     35  C   UNL     1       9.951  11.569  20.207  0.00  0.00    +0.000 A 
ATOM     36  C   UNL     1       9.497  10.245  20.168  0.00  0.00    +0.000 A 
ENDBRANCH  27  30
ENDBRANCH  23  24
ENDBRANCH   5  23
TORSDOF 5
ENDMDL
MODEL 3
REMARK VINA RESULT:      -8.6      1.292      1.311
REMARK  Name = 
REMARK  5 active torsions:
REMARK  status: ('A' for Active; 'I' for Inactive)
REMARK    1  A    between atoms: C_9  and  C_10
REMARK    2  A    between atoms: N_12  and  C_13
REMARK    3  A    between atoms: C_17  and  C_18
REMARK    4  A    between atoms: C_18  and  N_19
REMARK    5  A    between atoms: N_22  and  C_23
REMARK                            x       y       z     vdW  Elec       q    Type
REMARK                         _______ _______ _______ _____ _____    ______ ____
ROOT
ATOM      1  C   UNL     1       3.403   6.100  18.724  0.00  0.00    +0.000 A 
ATOM      2  C   UNL     1       2.832   4.880  18.353  0.00  0.00    +0.000 A 
ATOM      3  C   UNL     1       3.539   3.962  17.574  0.00  0.00    +0.000 A 
ATOM      4  C   UNL     1       4.841   4.242  17.176  0.00  0.00    +0.000 A 
ATOM      5  C   UNL     1       5.452   5.438  17.572  0.00  0.00    +0.000 A 
ATOM      6  C   UNL     1       4.720   6.369  18.329  0.00  0.00    +0.000 A 
ENDROOT
BRANCH   1   9
ATOM      7  C   UNL     1       2.029   8.156  19.047  0.00  0.00    +0.000 C 
ATOM      8  O   UNL     1       2.015   8.528  17.876  0.00  0.00    +0.000 OA
ATOM      9  N   UNL     1       2.742   7.071  19.514  0.00  0.00    +0.000 N 
ATOM     10  H   UNL     1       2.833   6.966  20.521  0.00  0.00    +0.000 HD
BRANCH   7  19
ATOM     11  N   UNL     1       1.936  11.464  17.983  0.00  0.00    +0.000 N 
ATOM     12  C   UNL     1       1.184  11.464  19.111  0.00  0.00    +0.000 A 
ATOM     13  N   UNL     1       0.587  12.568  19.560  0.00  0.00    +0.000 NA
ATOM     14  O   UNL     1      -0.025  12.210  20.741  0.00  0.00    +0.000 OA
ATOM     15  C   UNL     1       0.176  10.888  20.972  0.00  0.00    +0.000 A 
ATOM     16  C   UNL     1      -0.313  10.200  22.081  0.00  0.00    +0.000 A 
ATOM     17  C   UNL     1      -0.028   8.843  22.146  0.00  0.00    +0.000 A 
ATOM     18  C   UNL     1       0.715   8.232  21.136  0.00  0.00    +0.000 A 
ATOM     19  C   UNL     1       1.219   8.948  20.016  0.00  0.00    +0.000 A 
ATOM     20  C   UNL     1       0.938  10.333  19.947  0.00  0.00    +0.000 A 
ATOM     21  H   UNL     1       1.847  12.357  17.492  0.00  0.00    +0.000 HD
ATOM     22  H   UNL     1       2.937  11.353  18.159  0.00  0.00    +0.000 HD
ENDBRANCH   7  19
ENDBRANCH   1   9
BRANCH   5  23
ATOM     23  C   UNL     1       6.883   5.704  17.210  0.00  0.00    +0.000 C 
BRANCH  23  24
ATOM     24  N   UNL     1       7.595   6.425  18.241  0.00  0.00    +0.000 N 
ATOM     25  C   UNL     1       7.936   7.726  17.944  0.00  0.00    +0.000 C 
ATOM     26  O   UNL     1       7.702   8.216  16.845  0.00  0.00    +0.000 OA
ATOM     27  N   UNL     1       8.572   8.353  18.993  0.00  0.00    +0.000 N 
ATOM     28  H   UNL     1       7.302   6.257  19.191  0.00  0.00    +0.000 HD
ATOM     29  H   UNL     1       9.006   7.739  19.664  0.00  0.00    +0.000 HD
BRANCH  27  30
ATOM     30  C   UNL     1       8.943   9.716  19.016  0.00  0.00    +0.000 A 
ATOM     31  C   UNL     1       9.501  10.330  20.142  0.00  0.00    +0.000 A 
ATOM     32  C   UNL     1       9.842  11.685  20.126  0.00  0.00    +0.000 A 
ATOM     33  C   UNL     1       9.635  12.433  18.974  0.00  0.00    +0.000 A 
ATOM     34 CL   UNL     1      10.055  14.101  18.954  0.00  0.00    +0.000 Cl
ATOM     35  C   UNL     1       9.094  11.835  17.838  0.00  0.00    +0.000 A 
ATOM     36  C   UNL     1       8.756  10.476  17.856  0.00  0.00    +0.000 A 
ENDBRANCH  27  30
ENDBRANCH  23  24
ENDBRANCH   5  23
TORSDOF 5
ENDMDL
MODEL 4
REMARK VINA RESULT:      -8.6      1.505      2.156
REMARK  Name = 
REMARK  5 active torsions:
REMARK  status: ('A' for Active; 'I' for Inactive)
REMARK    1  A    between atoms: C_9  and  C_10
REMARK    2  A    between atoms: N_12  and  C_13
REMARK    3  A    between atoms: C_17  and  C_18
REMARK    4  A    between atoms: C_18  and  N_19
REMARK    5  A    between atoms: N_22  and  C_23
REMARK                            x       y       z     vdW  Elec       q    Type
REMARK                         _______ _______ _______ _____ _____    ______ ____
ROOT
ATOM      1  C   UNL     1       3.549   6.325  17.931  0.00  0.00    +0.000 A 
ATOM      2  C   UNL     1       3.316   4.969  18.170  0.00  0.00    +0.000 A 
ATOM      3  C   UNL     1       4.328   4.023  17.996  0.00  0.00    +0.000 A 
ATOM      4  C   UNL     1       5.599   4.427  17.605  0.00  0.00    +0.000 A 
ATOM      5  C   UNL     1       5.871   5.785  17.403  0.00  0.00    +0.000 A 
ATOM      6  C   UNL     1       4.836   6.725  17.549  0.00  0.00    +0.000 A 
ENDROOT
BRANCH   1   9
ATOM      7  C   UNL     1       1.998   7.738  19.281  0.00  0.00    +0.000 C 
ATOM      8  O   UNL     1       2.140   7.156  20.354  0.00  0.00    +0.000 OA
ATOM      9  N   UNL     1       2.568   7.333  18.091  0.00  0.00    +0.000 N 
ATOM     10  H   UNL     1       2.236   7.774  17.237  0.00  0.00    +0.000 HD
BRANCH   7  19
ATOM     11  N   UNL     1       1.690   8.876  22.551  0.00  0.00    +0.000 N 
ATOM     12  C   UNL     1       0.979   9.774  21.826  0.00  0.00    +0.000 A 
ATOM     13  N   UNL     1       0.380  10.822  22.392  0.00  0.00    +0.000 NA
ATOM     14  O   UNL     1      -0.288  11.468  21.375  0.00  0.00    +0.000 OA
ATOM     15  C   UNL     1      -0.054  10.827  20.202  0.00  0.00    +0.000 A 
ATOM     16  C   UNL     1      -0.578  11.222  18.972  0.00  0.00    +0.000 A 
ATOM     17  C   UNL     1      -0.216  10.460  17.870  0.00  0.00    +0.000 A 
ATOM     18  C   UNL     1       0.627   9.360  18.022  0.00  0.00    +0.000 A 
ATOM     19  C   UNL     1       1.144   8.960  19.284  0.00  0.00    +0.000 A 
ATOM     20  C   UNL     1       0.775   9.728  20.414  0.00  0.00    +0.000 A 
ATOM     21  H   UNL     1       1.803   9.202  23.514  0.00  0.00    +0.000 HD
ATOM     22  H   UNL     1       1.236   7.963  22.628  0.00  0.00    +0.000 HD
ENDBRANCH   7  19
ENDBRANCH   1   9
BRANCH   5  23
ATOM     23  C   UNL     1       7.262   6.228  17.058  0.00  0.00    +0.000 C 
BRANCH  23  24
ATOM     24  N   UNL     1       7.361   7.657  16.862  0.00  0.00    +0.000 N 
ATOM     25  C   UNL     1       8.039   8.356  17.834  0.00  0.00    +0.000 C 
ATOM     26  O   UNL     1       8.477   7.802  18.837  0.00  0.00    +0.000 OA
ATOM     27  N   UNL     1       8.123   9.702  17.550  0.00  0.00    +0.000 N 
ATOM     28  H   UNL     1       7.508   7.972  15.915  0.00  0.00    +0.000 HD
ATOM     29  H   UNL     1       7.428  10.052  16.910  0.00  0.00    +0.000 HD
BRANCH  27  30
ATOM     30  C   UNL     1       8.848  10.646  18.311  0.00  0.00    +0.000 A 
ATOM     31  C   UNL     1       9.418  10.340  19.552  0.00  0.00    +0.000 A 
ATOM     32  C   UNL     1      10.117  11.308  20.279  0.00  0.00    +0.000 A 
ATOM     33  C   UNL     1      10.259  12.589  19.761  0.00  0.00    +0.000 A 
ATOM     34 CL   UNL     1      11.119  13.780  20.654  0.00  0.00    +0.000 Cl
ATOM     35  C   UNL     1       9.711  12.907  18.519  0.00  0.00    +0.000 A 
ATOM     36  C   UNL     1       9.013  11.934  17.792  0.00  0.00    +0.000 A 
ENDBRANCH  27  30
ENDBRANCH  23  24
ENDBRANCH   5  23
TORSDOF 5
ENDMDL
MODEL 5
REMARK VINA RESULT:      -8.5      3.639      6.711
REMARK  Name = 
REMARK  5 active torsions:
REMARK  status: ('A' for Active; 'I' for Inactive)
REMARK    1  A    between atoms: C_9  and  C_10
REMARK    2  A    between atoms: N_12  and  C_13
REMARK    3  A    between atoms: C_17  and  C_18
REMARK    4  A    between atoms: C_18  and  N_19
REMARK    5  A    between atoms: N_22  and  C_23
REMARK                            x       y       z     vdW  Elec       q    Type
REMARK                         _______ _______ _______ _____ _____    ______ ____
ROOT
ATOM      1  C   UNL     1       1.428   9.832  18.097  0.00  0.00    +0.000 A 
ATOM      2  C   UNL     1       0.046   9.669  18.220  0.00  0.00    +0.000 A 
ATOM      3  C   UNL     1      -0.773  10.735  18.599  0.00  0.00    +0.000 A 
ATOM      4  C   UNL     1      -0.222  11.988  18.833  0.00  0.00    +0.000 A 
ATOM      5  C   UNL     1       1.154  12.189  18.673  0.00  0.00    +0.000 A 
ATOM      6  C   UNL     1       1.974  11.102  18.324  0.00  0.00    +0.000 A 
ENDROOT
BRANCH   1   9
ATOM      7  C   UNL     1       2.606   7.661  18.446  0.00  0.00    +0.000 C 
ATOM      8  O   UNL     1       2.270   7.480  19.614  0.00  0.00    +0.000 OA
ATOM      9  N   UNL     1       2.313   8.795  17.716  0.00  0.00    +0.000 N 
ATOM     10  H   UNL     1       2.796   8.922  16.831  0.00  0.00    +0.000 HD
BRANCH   7  19
ATOM     11  N   UNL     1       1.474   4.597  19.636  0.00  0.00    +0.000 N 
ATOM     12  C   UNL     1       2.443   4.264  18.748  0.00  0.00    +0.000 A 
ATOM     13  N   UNL     1       2.749   2.994  18.483  0.00  0.00    +0.000 NA
ATOM     14  O   UNL     1       3.802   3.039  17.596  0.00  0.00    +0.000 OA
ATOM     15  C   UNL     1       4.094   4.332  17.306  0.00  0.00    +0.000 A 
ATOM     16  C   UNL     1       5.107   4.733  16.437  0.00  0.00    +0.000 A 
ATOM     17  C   UNL     1       5.252   6.100  16.241  0.00  0.00    +0.000 A 
ATOM     18  C   UNL     1       4.411   6.997  16.899  0.00  0.00    +0.000 A 
ATOM     19  C   UNL     1       3.391   6.575  17.793  0.00  0.00    +0.000 A 
ATOM     20  C   UNL     1       3.241   5.183  18.003  0.00  0.00    +0.000 A 
ATOM     21  H   UNL     1       0.957   3.766  19.933  0.00  0.00    +0.000 HD
ATOM     22  H   UNL     1       1.836   5.011  20.499  0.00  0.00    +0.000 HD
ENDBRANCH   7  19
ENDBRANCH   1   9
BRANCH   5  23
ATOM     23  C   UNL     1       1.737  13.561  18.849  0.00  0.00    +0.000 C 
BRANCH  23  24
ATOM     24  N   UNL     1       2.838  13.819  17.948  0.00  0.00    +0.000 N 
ATOM     25  C   UNL     1       3.998  14.282  18.527  0.00  0.00    +0.000 C 
ATOM     26  O   UNL     1       4.066  14.520  19.728  0.00  0.00    +0.000 OA
ATOM     27  N   UNL     1       5.007  14.461  17.607  0.00  0.00    +0.000 N 
ATOM     28  H   UNL     1       2.960  13.166  17.189  0.00  0.00    +0.000 HD
ATOM     29  H   UNL     1       4.706  14.575  16.652  0.00  0.00    +0.000 HD
BRANCH  27  30
ATOM     30  C   UNL     1       6.335  14.826  17.924  0.00  0.00    +0.000 A 
ATOM     31  C   UNL     1       7.419  13.958  17.755  0.00  0.00    +0.000 A 
ATOM     32  C   UNL     1       8.716  14.354  18.093  0.00  0.00    +0.000 A 
ATOM     33  C   UNL     1       8.937  15.631  18.593  0.00  0.00    +0.000 A 
ATOM     34 CL   UNL     1      10.532  16.119  19.009  0.00  0.00    +0.000 Cl
ATOM     35  C   UNL     1       7.871  16.515  18.753  0.00  0.00    +0.000 A 
ATOM     36  C   UNL     1       6.573  16.116  18.411  0.00  0.00    +0.000 A 
ENDBRANCH  27  30
ENDBRANCH  23  24
ENDBRANCH   5  23
TORSDOF 5
ENDMDL
MODEL 6
REMARK VINA RESULT:      -8.5      3.998      7.198
REMARK  Name = 
REMARK  5 active torsions:
REMARK  status: ('A' for Active; 'I' for Inactive)
REMARK    1  A    between atoms: C_9  and  C_10
REMARK    2  A    between atoms: N_12  and  C_13
REMARK    3  A    between atoms: C_17  and  C_18
REMARK    4  A    between atoms: C_18  and  N_19
REMARK    5  A    between atoms: N_22  and  C_23
REMARK                            x       y       z     vdW  Elec       q    Type
REMARK                         _______ _______ _______ _____ _____    ______ ____
ROOT
ATOM      1  C   UNL     1       1.437   8.882  19.942  0.00  0.00    +0.000 A 
ATOM      2  C   UNL     1       1.024   8.816  21.275  0.00  0.00    +0.000 A 
ATOM      3  C   UNL     1       0.362   9.888  21.876  0.00  0.00    +0.000 A 
ATOM      4  C   UNL     1       0.080  11.034  21.142  0.00  0.00    +0.000 A 
ATOM      5  C   UNL     1       0.444  11.108  19.793  0.00  0.00    +0.000 A 
ATOM      6  C   UNL     1       1.139  10.036  19.206  0.00  0.00    +0.000 A 
ENDROOT
BRANCH   1   9
ATOM      7  C   UNL     1       2.142   6.506  19.656  0.00  0.00    +0.000 C 
ATOM      8  O   UNL     1       1.731   6.084  20.734  0.00  0.00    +0.000 OA
ATOM      9  N   UNL     1       2.110   7.831  19.273  0.00  0.00    +0.000 N 
ATOM     10  H   UNL     1       2.643   8.095  18.448  0.00  0.00    +0.000 HD
BRANCH   7  19
ATOM     11  N   UNL     1       0.546   3.459  20.158  0.00  0.00    +0.000 N 
ATOM     12  C   UNL     1       1.423   3.206  19.154  0.00  0.00    +0.000 A 
ATOM     13  N   UNL     1       1.506   2.008  18.576  0.00  0.00    +0.000 NA
ATOM     14  O   UNL     1       2.529   2.104  17.658  0.00  0.00    +0.000 OA
ATOM     15  C   UNL     1       3.024   3.367  17.664  0.00  0.00    +0.000 A 
ATOM     16  C   UNL     1       4.067   3.806  16.850  0.00  0.00    +0.000 A 
ATOM     17  C   UNL     1       4.432   5.140  16.975  0.00  0.00    +0.000 A 
ATOM     18  C   UNL     1       3.770   5.968  17.880  0.00  0.00    +0.000 A 
ATOM     19  C   UNL     1       2.717   5.504  18.714  0.00  0.00    +0.000 A 
ATOM     20  C   UNL     1       2.343   4.144  18.597  0.00  0.00    +0.000 A 
ATOM     21  H   UNL     1      -0.094   2.671  20.282  0.00  0.00    +0.000 HD
ATOM     22  H   UNL     1       0.995   3.587  21.068  0.00  0.00    +0.000 HD
ENDBRANCH   7  19
ENDBRANCH   1   9
BRANCH   5  23
ATOM     23  C   UNL     1       0.069  12.312  18.980  0.00  0.00    +0.000 C 
BRANCH  23  24
ATOM     24  N   UNL     1       1.137  12.753  18.110  0.00  0.00    +0.000 N 
ATOM     25  C   UNL     1       2.006  13.678  18.641  0.00  0.00    +0.000 C 
ATOM     26  O   UNL     1       1.842  14.144  19.764  0.00  0.00    +0.000 OA
ATOM     27  N   UNL     1       3.015  14.013  17.765  0.00  0.00    +0.000 N 
ATOM     28  H   UNL     1       1.554  12.050  17.520  0.00  0.00    +0.000 HD
ATOM     29  H   UNL     1       2.817  13.839  16.792  0.00  0.00    +0.000 HD
BRANCH  27  30
ATOM     30  C   UNL     1       4.107  14.855  18.072  0.00  0.00    +0.000 A 
ATOM     31  C   UNL     1       3.945  16.166  18.533  0.00  0.00    +0.000 A 
ATOM     32  C   UNL     1       5.053  16.970  18.813  0.00  0.00    +0.000 A 
ATOM     33  C   UNL     1       6.334  16.461  18.642  0.00  0.00    +0.000 A 
ATOM     34 CL   UNL     1       7.698  17.450  18.986  0.00  0.00    +0.000 Cl
ATOM     35  C   UNL     1       6.515  15.152  18.198  0.00  0.00    +0.000 A 
ATOM     36  C   UNL     1       5.402  14.348  17.920  0.00  0.00    +0.000 A 
ENDBRANCH  27  30
ENDBRANCH  23  24
ENDBRANCH   5  23
TORSDOF 5
ENDMDL
MODEL 7
REMARK VINA RESULT:      -8.3      4.673      5.275
REMARK  Name = 
REMARK  5 active torsions:
REMARK  status: ('A' for Active; 'I' for Inactive)
REMARK    1  A    between atoms: C_9  and  C_10
REMARK    2  A    between atoms: N_12  and  C_13
REMARK    3  A    between atoms: C_17  and  C_18
REMARK    4  A    between atoms: C_18  and  N_19
REMARK    5  A    between atoms: N_22  and  C_23
REMARK                            x       y       z     vdW  Elec       q    Type
REMARK                         _______ _______ _______ _____ _____    ______ ____
ROOT
ATOM      1  C   UNL     1       1.869   5.750  20.499  0.00  0.00    +0.000 A 
ATOM      2  C   UNL     1       1.049   4.626  20.376  0.00  0.00    +0.000 A 
ATOM      3  C   UNL     1       1.543   3.429  19.853  0.00  0.00    +0.000 A 
ATOM      4  C   UNL     1       2.875   3.334  19.470  0.00  0.00    +0.000 A 
ATOM      5  C   UNL     1       3.729   4.432  19.625  0.00  0.00    +0.000 A 
ATOM      6  C   UNL     1       3.213   5.642  20.122  0.00  0.00    +0.000 A 
ENDROOT
BRANCH   1   9
ATOM      7  C   UNL     1       1.343   8.183  20.335  0.00  0.00    +0.000 C 
ATOM      8  O   UNL     1       1.801   8.373  19.210  0.00  0.00    +0.000 OA
ATOM      9  N   UNL     1       1.431   6.990  21.023  0.00  0.00    +0.000 N 
ATOM     10  H   UNL     1       1.188   6.998  22.011  0.00  0.00    +0.000 HD
BRANCH   7  19
ATOM     11  N   UNL     1       1.654  10.974  18.286  0.00  0.00    +0.000 N 
ATOM     12  C   UNL     1       0.927  11.423  19.339  0.00  0.00    +0.000 A 
ATOM     13  N   UNL     1       0.481  12.677  19.404  0.00  0.00    +0.000 NA
ATOM     14  O   UNL     1      -0.153  12.787  20.622  0.00  0.00    +0.000 OA
ATOM     15  C   UNL     1      -0.117  11.591  21.260  0.00  0.00    +0.000 A 
ATOM     16  C   UNL     1      -0.673  11.353  22.516  0.00  0.00    +0.000 A 
ATOM     17  C   UNL     1      -0.561  10.060  23.010  0.00  0.00    +0.000 A 
ATOM     18  C   UNL     1       0.082   9.075  22.261  0.00  0.00    +0.000 A 
ATOM     19  C   UNL     1       0.655   9.335  20.986  0.00  0.00    +0.000 A 
ATOM     20  C   UNL     1       0.551  10.652  20.480  0.00  0.00    +0.000 A 
ATOM     21  H   UNL     1       1.672  11.672  17.538  0.00  0.00    +0.000 HD
ATOM     22  H   UNL     1       2.635  10.799  18.513  0.00  0.00    +0.000 HD
ENDBRANCH   7  19
ENDBRANCH   1   9
BRANCH   5  23
ATOM     23  C   UNL     1       5.185   4.305  19.286  0.00  0.00    +0.000 C 
BRANCH  23  24
ATOM     24  N   UNL     1       5.412   3.537  18.081  0.00  0.00    +0.000 N 
ATOM     25  C   UNL     1       5.672   4.263  16.941  0.00  0.00    +0.000 C 
ATOM     26  O   UNL     1       5.647   5.489  16.941  0.00  0.00    +0.000 OA
ATOM     27  N   UNL     1       5.918   3.457  15.852  0.00  0.00    +0.000 N 
ATOM     28  H   UNL     1       5.940   2.684  18.186  0.00  0.00    +0.000 HD
ATOM     29  H   UNL     1       5.553   2.519  15.917  0.00  0.00    +0.000 HD
BRANCH  27  30
ATOM     30  C   UNL     1       6.314   3.919  14.577  0.00  0.00    +0.000 A 
ATOM     31  C   UNL     1       5.728   3.464  13.391  0.00  0.00    +0.000 A 
ATOM     32  C   UNL     1       6.159   3.938  12.149  0.00  0.00    +0.000 A 
ATOM     33  C   UNL     1       7.177   4.881  12.088  0.00  0.00    +0.000 A 
ATOM     34 CL   UNL     1       7.708   5.465  10.560  0.00  0.00    +0.000 Cl
ATOM     35  C   UNL     1       7.762   5.357  13.259  0.00  0.00    +0.000 A 
ATOM     36  C   UNL     1       7.326   4.883  14.503  0.00  0.00    +0.000 A 
ENDBRANCH  27  30
ENDBRANCH  23  24
ENDBRANCH   5  23
TORSDOF 5
ENDMDL
MODEL 8
REMARK VINA RESULT:      -8.3      4.501      6.915
REMARK  Name = 
REMARK  5 active torsions:
REMARK  status: ('A' for Active; 'I' for Inactive)
REMARK    1  A    between atoms: C_9  and  C_10
REMARK    2  A    between atoms: N_12  and  C_13
REMARK    3  A    between atoms: C_17  and  C_18
REMARK    4  A    between atoms: C_18  and  N_19
REMARK    5  A    between atoms: N_22  and  C_23
REMARK                            x       y       z     vdW  Elec       q    Type
REMARK                         _______ _______ _______ _____ _____    ______ ____
ROOT
ATOM      1  C   UNL     1       0.732  10.828  20.992  0.00  0.00    +0.000 A 
ATOM      2  C   UNL     1      -0.159  10.947  22.062  0.00  0.00    +0.000 A 
ATOM      3  C   UNL     1      -0.673   9.815  22.699  0.00  0.00    +0.000 A 
ATOM      4  C   UNL     1      -0.281   8.547  22.289  0.00  0.00    +0.000 A 
ATOM      5  C   UNL     1       0.644   8.402  21.249  0.00  0.00    +0.000 A 
ATOM      6  C   UNL     1       1.130   9.546  20.593  0.00  0.00    +0.000 A 
ENDROOT
BRANCH   1   9
ATOM      7  C   UNL     1       0.659  12.710  19.355  0.00  0.00    +0.000 C 
ATOM      8  O   UNL     1      -0.425  12.438  18.844  0.00  0.00    +0.000 OA
ATOM      9  N   UNL     1       1.290  11.934  20.306  0.00  0.00    +0.000 N 
ATOM     10  H   UNL     1       2.260  12.149  20.520  0.00  0.00    +0.000 HD
BRANCH   7  19
ATOM     11  N   UNL     1      -1.555  15.360  19.753  0.00  0.00    +0.000 N 
ATOM     12  C   UNL     1      -0.435  15.943  19.259  0.00  0.00    +0.000 A 
ATOM     13  N   UNL     1      -0.355  17.258  19.057  0.00  0.00    +0.000 NA
ATOM     14  O   UNL     1       0.885  17.477  18.498  0.00  0.00    +0.000 OA
ATOM     15  C   UNL     1       1.553  16.301  18.405  0.00  0.00    +0.000 A 
ATOM     16  C   UNL     1       2.841  16.167  17.888  0.00  0.00    +0.000 A 
ATOM     17  C   UNL     1       3.380  14.888  17.888  0.00  0.00    +0.000 A 
ATOM     18  C   UNL     1       2.643  13.814  18.386  0.00  0.00    +0.000 A 
ATOM     19  C   UNL     1       1.326  13.963  18.900  0.00  0.00    +0.000 A 
ATOM     20  C   UNL     1       0.766  15.263  18.896  0.00  0.00    +0.000 A 
ATOM     21  H   UNL     1      -2.224  16.070  20.061  0.00  0.00    +0.000 HD
ATOM     22  H   UNL     1      -2.060  14.797  19.064  0.00  0.00    +0.000 HD
ENDBRANCH   7  19
ENDBRANCH   1   9
BRANCH   5  23
ATOM     23  C   UNL     1       1.127   7.035  20.860  0.00  0.00    +0.000 C 
BRANCH  23  24
ATOM     24  N   UNL     1       2.479   7.046  20.346  0.00  0.00    +0.000 N 
ATOM     25  C   UNL     1       2.716   6.250  19.249  0.00  0.00    +0.000 C 
ATOM     26  O   UNL     1       1.843   5.528  18.779  0.00  0.00    +0.000 OA
ATOM     27  N   UNL     1       4.014   6.350  18.799  0.00  0.00    +0.000 N 
ATOM     28  H   UNL     1       2.954   7.936  20.351  0.00  0.00    +0.000 HD
ATOM     29  H   UNL     1       4.682   6.681  19.478  0.00  0.00    +0.000 HD
BRANCH  27  30
ATOM     30  C   UNL     1       4.516   5.732  17.632  0.00  0.00    +0.000 A 
ATOM     31  C   UNL     1       4.691   4.348  17.524  0.00  0.00    +0.000 A 
ATOM     32  C   UNL     1       5.202   3.778  16.356  0.00  0.00    +0.000 A 
ATOM     33  C   UNL     1       5.533   4.592  15.280  0.00  0.00    +0.000 A 
ATOM     34 CL   UNL     1       6.162   3.891  13.842  0.00  0.00    +0.000 Cl
ATOM     35  C   UNL     1       5.351   5.971  15.364  0.00  0.00    +0.000 A 
ATOM     36  C   UNL     1       4.836   6.540  16.535  0.00  0.00    +0.000 A 
ENDBRANCH  27  30
ENDBRANCH  23  24
ENDBRANCH   5  23
TORSDOF 5
ENDMDL
MODEL 9
REMARK VINA RESULT:      -8.3      4.512      7.697
REMARK  Name = 
REMARK  5 active torsions:
REMARK  status: ('A' for Active; 'I' for Inactive)
REMARK    1  A    between atoms: C_9  and  C_10
REMARK    2  A    between atoms: N_12  and  C_13
REMARK    3  A    between atoms: C_17  and  C_18
REMARK    4  A    between atoms: C_18  and  N_19
REMARK    5  A    between atoms: N_22  and  C_23
REMARK                            x       y       z     vdW  Elec       q    Type
REMARK                         _______ _______ _______ _____ _____    ______ ____
ROOT
ATOM      1  C   UNL     1      -1.213  11.252  22.072  0.00  0.00    +0.000 A 
ATOM      2  C   UNL     1      -0.900  10.538  23.232  0.00  0.00    +0.000 A 
ATOM      3  C   UNL     1      -0.008   9.464  23.196  0.00  0.00    +0.000 A 
ATOM      4  C   UNL     1       0.604   9.106  22.001  0.00  0.00    +0.000 A 
ATOM      5  C   UNL     1       0.342   9.833  20.835  0.00  0.00    +0.000 A 
ATOM      6  C   UNL     1      -0.582  10.892  20.875  0.00  0.00    +0.000 A 
ENDROOT
BRANCH   1   9
ATOM      7  C   UNL     1      -3.130  12.597  22.931  0.00  0.00    +0.000 C 
ATOM      8  O   UNL     1      -3.521  11.799  23.780  0.00  0.00    +0.000 OA
ATOM      9  N   UNL     1      -2.105  12.351  22.041  0.00  0.00    +0.000 N 
ATOM     10  H   UNL     1      -1.990  12.998  21.266  0.00  0.00    +0.000 HD
BRANCH   7  19
ATOM     11  N   UNL     1      -6.386  12.189  24.080  0.00  0.00    +0.000 N 
ATOM     12  C   UNL     1      -6.307  13.511  23.788  0.00  0.00    +0.000 A 
ATOM     13  N   UNL     1      -7.333  14.339  23.985  0.00  0.00    +0.000 NA
ATOM     14  O   UNL     1      -6.916  15.569  23.524  0.00  0.00    +0.000 OA
ATOM     15  C   UNL     1      -5.634  15.479  23.092  0.00  0.00    +0.000 A 
ATOM     16  C   UNL     1      -4.905  16.545  22.567  0.00  0.00    +0.000 A 
ATOM     17  C   UNL     1      -3.595  16.277  22.192  0.00  0.00    +0.000 A 
ATOM     18  C   UNL     1      -3.069  14.995  22.346  0.00  0.00    +0.000 A 
ATOM     19  C   UNL     1      -3.827  13.913  22.871  0.00  0.00    +0.000 A 
ATOM     20  C   UNL     1      -5.165  14.178  23.249  0.00  0.00    +0.000 A 
ATOM     21  H   UNL     1      -7.254  11.984  24.579  0.00  0.00    +0.000 HD
ATOM     22  H   UNL     1      -6.403  11.590  23.252  0.00  0.00    +0.000 HD
ENDBRANCH   7  19
ENDBRANCH   1   9
BRANCH   5  23
ATOM     23  C   UNL     1       1.063   9.496  19.563  0.00  0.00    +0.000 C 
BRANCH  23  24
ATOM     24  N   UNL     1       1.806   8.259  19.653  0.00  0.00    +0.000 N 
ATOM     25  C   UNL     1       2.356   7.797  18.479  0.00  0.00    +0.000 C 
ATOM     26  O   UNL     1       2.170   8.372  17.412  0.00  0.00    +0.000 OA
ATOM     27  N   UNL     1       3.080   6.639  18.660  0.00  0.00    +0.000 N 
ATOM     28  H   UNL     1       2.370   8.133  20.479  0.00  0.00    +0.000 HD
ATOM     29  H   UNL     1       2.845   6.107  19.484  0.00  0.00    +0.000 HD
BRANCH  27  30
ATOM     30  C   UNL     1       3.841   5.995  17.659  0.00  0.00    +0.000 A 
ATOM     31  C   UNL     1       3.780   4.617  17.430  0.00  0.00    +0.000 A 
ATOM     32  C   UNL     1       4.559   4.018  16.437  0.00  0.00    +0.000 A 
ATOM     33  C   UNL     1       5.400   4.801  15.657  0.00  0.00    +0.000 A 
ATOM     34 CL   UNL     1       6.360   4.065  14.434  0.00  0.00    +0.000 Cl
ATOM     35  C   UNL     1       5.464   6.178  15.860  0.00  0.00    +0.000 A 
ATOM     36  C   UNL     1       4.679   6.776  16.855  0.00  0.00    +0.000 A 
ENDBRANCH  27  30
ENDBRANCH  23  24
ENDBRANCH   5  23
TORSDOF 5
ENDMDL
