MODEL 1
REMARK VINA RESULT:      -6.3      0.000      0.000
REMARK  Name = 
REMARK  8 active torsions:
REMARK  status: ('A' for Active; 'I' for Inactive)
REMARK    1  A    between atoms: C_1  and  C_2
REMARK    2  A    between atoms: C_2  and  C_3
REMARK    3  A    between atoms: C_5  and  O_6
REMARK    4  A    between atoms: C_7  and  C_8
REMARK    5  A    between atoms: N_11  and  C_12
REMARK    6  A    between atoms: C_12  and  C_13
REMARK    7  A    between atoms: C_13  and  C_14
REMARK    8  A    between atoms: C_14  and  O_15
REMARK                            x       y       z     vdW  Elec       q    Type
REMARK                         _______ _______ _______ _____ _____    ______ ____
ROOT
ATOM      1  C   UNL     1       0.584   2.536  18.882  0.00  0.00    +0.000 C 
ATOM      2  C   UNL     1       1.606   3.132  19.878  0.00  0.00    +0.000 C 
ATOM      3  C   UNL     1       0.989   3.019  21.291  0.00  0.00    +0.000 C 
ATOM      4  C   UNL     1       2.886   2.271  19.822  0.00  0.00    +0.000 C 
ATOM      5  C   UNL     1       4.194   2.971  19.640  0.00  0.00    +0.000 C 
ATOM      6  C   UNL     1       4.357   4.283  19.423  0.00  0.00    +0.000 C 
ATOM      7  C   UNL     1       3.189   5.200  19.366  0.00  0.00    +0.000 C 
ATOM      8  N   UNL     1       3.387   6.465  19.157  0.00  0.00    +0.000 NA
ATOM      9  C   UNL     1       1.788   4.625  19.535  0.00  0.00    +0.000 C 
ENDROOT
BRANCH   5  10
ATOM     10  O   UNL     1       5.307   2.139  19.688  0.00  0.00    +0.000 OA
ATOM     11  H   UNL     1       6.046   2.592  20.131  0.00  0.00    +0.000 HD
ENDBRANCH   5  10
BRANCH   6  12
ATOM     12  C   UNL     1       5.757   4.837  19.213  0.00  0.00    +0.000 C 
ATOM     13  N   UNL     1       6.918   5.296  19.040  0.00  0.00    +0.000 NA
ENDBRANCH   6  12
BRANCH   8  14
ATOM     14  C   UNL     1       2.240   7.372  19.094  0.00  0.00    +0.000 C 
BRANCH  14  15
ATOM     15  C   UNL     1       2.381   8.301  17.896  0.00  0.00    +0.000 C 
BRANCH  15  16
ATOM     16  C   UNL     1       1.451   9.502  17.980  0.00  0.00    +0.000 C 
BRANCH  16  17
ATOM     17  O   UNL     1       2.092  10.636  17.404  0.00  0.00    +0.000 OA
ATOM     18  H   UNL     1       1.435  11.068  16.832  0.00  0.00    +0.000 HD
ENDBRANCH  16  17
ENDBRANCH  15  16
ENDBRANCH  14  15
ENDBRANCH   8  14
TORSDOF 6
ENDMDL
MODEL 2
REMARK VINA RESULT:      -5.8      1.917      3.872
REMARK  Name = 
REMARK  8 active torsions:
REMARK  status: ('A' for Active; 'I' for Inactive)
REMARK    1  A    between atoms: C_1  and  C_2
REMARK    2  A    between atoms: C_2  and  C_3
REMARK    3  A    between atoms: C_5  and  O_6
REMARK    4  A    between atoms: C_7  and  C_8
REMARK    5  A    between atoms: N_11  and  C_12
REMARK    6  A    between atoms: C_12  and  C_13
REMARK    7  A    between atoms: C_13  and  C_14
REMARK    8  A    between atoms: C_14  and  O_15
REMARK                            x       y       z     vdW  Elec       q    Type
REMARK                         _______ _______ _______ _____ _____    ______ ____
ROOT
ATOM      1  C   UNL     1       7.045   6.676  17.187  0.00  0.00    +0.000 C 
ATOM      2  C   UNL     1       5.772   5.806  17.070  0.00  0.00    +0.000 C 
ATOM      3  C   UNL     1       5.621   5.410  15.583  0.00  0.00    +0.000 C 
ATOM      4  C   UNL     1       5.988   4.527  17.907  0.00  0.00    +0.000 C 
ATOM      5  C   UNL     1       4.926   4.142  18.886  0.00  0.00    +0.000 C 
ATOM      6  C   UNL     1       3.833   4.861  19.180  0.00  0.00    +0.000 C 
ATOM      7  C   UNL     1       3.564   6.155  18.501  0.00  0.00    +0.000 C 
ATOM      8  N   UNL     1       2.494   6.820  18.810  0.00  0.00    +0.000 NA
ATOM      9  C   UNL     1       4.563   6.675  17.476  0.00  0.00    +0.000 C 
ENDROOT
BRANCH   5  10
ATOM     10  O   UNL     1       5.149   2.935  19.538  0.00  0.00    +0.000 OA
ATOM     11  H   UNL     1       5.875   2.449  19.107  0.00  0.00    +0.000 HD
ENDBRANCH   5  10
BRANCH   6  12
ATOM     12  C   UNL     1       2.865   4.351  20.236  0.00  0.00    +0.000 C 
ATOM     13  N   UNL     1       2.063   3.929  21.112  0.00  0.00    +0.000 NA
ENDBRANCH   6  12
BRANCH   8  14
ATOM     14  C   UNL     1       2.226   8.099  18.149  0.00  0.00    +0.000 C 
BRANCH  14  15
ATOM     15  C   UNL     1       1.453   9.014  19.089  0.00  0.00    +0.000 C 
BRANCH  15  16
ATOM     16  C   UNL     1       1.346  10.436  18.558  0.00  0.00    +0.000 C 
BRANCH  16  17
ATOM     17  O   UNL     1       2.072  10.538  17.337  0.00  0.00    +0.000 OA
ATOM     18  H   UNL     1       1.664   9.909  16.717  0.00  0.00    +0.000 HD
ENDBRANCH  16  17
ENDBRANCH  15  16
ENDBRANCH  14  15
ENDBRANCH   8  14
TORSDOF 6
ENDMDL
MODEL 3
REMARK VINA RESULT:      -5.8      2.900      4.305
REMARK  Name = 
REMARK  8 active torsions:
REMARK  status: ('A' for Active; 'I' for Inactive)
REMARK    1  A    between atoms: C_1  and  C_2
REMARK    2  A    between atoms: C_2  and  C_3
REMARK    3  A    between atoms: C_5  and  O_6
REMARK    4  A    between atoms: C_7  and  C_8
REMARK    5  A    between atoms: N_11  and  C_12
REMARK    6  A    between atoms: C_12  and  C_13
REMARK    7  A    between atoms: C_13  and  C_14
REMARK    8  A    between atoms: C_14  and  O_15
REMARK                            x       y       z     vdW  Elec       q    Type
REMARK                         _______ _______ _______ _____ _____    ______ ____
ROOT
ATOM      1  C   UNL     1       1.204   4.512  17.470  0.00  0.00    +0.000 C 
ATOM      2  C   UNL     1       2.088   4.732  18.720  0.00  0.00    +0.000 C 
ATOM      3  C   UNL     1       1.839   6.178  19.208  0.00  0.00    +0.000 C 
ATOM      4  C   UNL     1       1.622   3.749  19.815  0.00  0.00    +0.000 C 
ATOM      5  C   UNL     1       2.659   2.909  20.489  0.00  0.00    +0.000 C 
ATOM      6  C   UNL     1       3.958   2.858  20.165  0.00  0.00    +0.000 C 
ATOM      7  C   UNL     1       4.506   3.694  19.067  0.00  0.00    +0.000 C 
ATOM      8  N   UNL     1       5.770   3.619  18.784  0.00  0.00    +0.000 NA
ATOM      9  C   UNL     1       3.563   4.603  18.288  0.00  0.00    +0.000 C 
ENDROOT
BRANCH   5  10
ATOM     10  O   UNL     1       2.177   2.114  21.522  0.00  0.00    +0.000 OA
ATOM     11  H   UNL     1       2.914   1.794  22.073  0.00  0.00    +0.000 HD
ENDBRANCH   5  10
BRANCH   6  12
ATOM     12  C   UNL     1       4.880   1.914  20.922  0.00  0.00    +0.000 C 
ATOM     13  N   UNL     1       5.644   1.133  21.550  0.00  0.00    +0.000 NA
ENDBRANCH   6  12
BRANCH   8  14
ATOM     14  C   UNL     1       6.314   4.437  17.698  0.00  0.00    +0.000 C 
BRANCH  14  15
ATOM     15  C   UNL     1       7.714   4.914  18.063  0.00  0.00    +0.000 C 
BRANCH  15  16
ATOM     16  C   UNL     1       7.697   6.013  19.115  0.00  0.00    +0.000 C 
BRANCH  16  17
ATOM     17  O   UNL     1       7.785   5.428  20.410  0.00  0.00    +0.000 OA
ATOM     18  H   UNL     1       7.542   4.491  20.310  0.00  0.00    +0.000 HD
ENDBRANCH  16  17
ENDBRANCH  15  16
ENDBRANCH  14  15
ENDBRANCH   8  14
TORSDOF 6
ENDMDL
MODEL 4
REMARK VINA RESULT:      -5.7      1.920      1.984
REMARK  Name = 
REMARK  8 active torsions:
REMARK  status: ('A' for Active; 'I' for Inactive)
REMARK    1  A    between atoms: C_1  and  C_2
REMARK    2  A    between atoms: C_2  and  C_3
REMARK    3  A    between atoms: C_5  and  O_6
REMARK    4  A    between atoms: C_7  and  C_8
REMARK    5  A    between atoms: N_11  and  C_12
REMARK    6  A    between atoms: C_12  and  C_13
REMARK    7  A    between atoms: C_13  and  C_14
REMARK    8  A    between atoms: C_14  and  O_15
REMARK                            x       y       z     vdW  Elec       q    Type
REMARK                         _______ _______ _______ _____ _____    ______ ____
ROOT
ATOM      1  C   UNL     1       0.959   2.954  18.896  0.00  0.00    +0.000 C 
ATOM      2  C   UNL     1       2.355   3.567  19.153  0.00  0.00    +0.000 C 
ATOM      3  C   UNL     1       2.720   3.274  20.627  0.00  0.00    +0.000 C 
ATOM      4  C   UNL     1       3.369   2.850  18.237  0.00  0.00    +0.000 C 
ATOM      5  C   UNL     1       4.279   3.693  17.403  0.00  0.00    +0.000 C 
ATOM      6  C   UNL     1       4.236   5.029  17.302  0.00  0.00    +0.000 C 
ATOM      7  C   UNL     1       3.243   5.822  18.070  0.00  0.00    +0.000 C 
ATOM      8  N   UNL     1       3.234   7.114  17.948  0.00  0.00    +0.000 NA
ATOM      9  C   UNL     1       2.247   5.094  18.964  0.00  0.00    +0.000 C 
ENDROOT
BRANCH   5  10
ATOM     10  O   UNL     1       5.222   2.979  16.672  0.00  0.00    +0.000 OA
ATOM     11  H   UNL     1       5.696   3.573  16.063  0.00  0.00    +0.000 HD
ENDBRANCH   5  10
BRANCH   6  12
ATOM     12  C   UNL     1       5.208   5.739  16.373  0.00  0.00    +0.000 C 
ATOM     13  N   UNL     1       6.013   6.327  15.602  0.00  0.00    +0.000 NA
ENDBRANCH   6  12
BRANCH   8  14
ATOM     14  C   UNL     1       2.253   7.900  18.698  0.00  0.00    +0.000 C 
BRANCH  14  15
ATOM     15  C   UNL     1       1.651   8.969  17.796  0.00  0.00    +0.000 C 
BRANCH  15  16
ATOM     16  C   UNL     1       1.217  10.205  18.571  0.00  0.00    +0.000 C 
BRANCH  16  17
ATOM     17  O   UNL     1       0.061  10.765  17.956  0.00  0.00    +0.000 OA
ATOM     18  H   UNL     1      -0.633  10.083  17.994  0.00  0.00    +0.000 HD
ENDBRANCH  16  17
ENDBRANCH  15  16
ENDBRANCH  14  15
ENDBRANCH   8  14
TORSDOF 6
ENDMDL
MODEL 5
REMARK VINA RESULT:      -5.7      2.197      4.102
REMARK  Name = 
REMARK  8 active torsions:
REMARK  status: ('A' for Active; 'I' for Inactive)
REMARK    1  A    between atoms: C_1  and  C_2
REMARK    2  A    between atoms: C_2  and  C_3
REMARK    3  A    between atoms: C_5  and  O_6
REMARK    4  A    between atoms: C_7  and  C_8
REMARK    5  A    between atoms: N_11  and  C_12
REMARK    6  A    between atoms: C_12  and  C_13
REMARK    7  A    between atoms: C_13  and  C_14
REMARK    8  A    between atoms: C_14  and  O_15
REMARK                            x       y       z     vdW  Elec       q    Type
REMARK                         _______ _______ _______ _____ _____    ______ ____
ROOT
ATOM      1  C   UNL     1       7.315   6.605  17.104  0.00  0.00    +0.000 C 
ATOM      2  C   UNL     1       5.990   5.819  16.971  0.00  0.00    +0.000 C 
ATOM      3  C   UNL     1       5.872   5.365  15.497  0.00  0.00    +0.000 C 
ATOM      4  C   UNL     1       6.083   4.569  17.872  0.00  0.00    +0.000 C 
ATOM      5  C   UNL     1       4.958   4.303  18.820  0.00  0.00    +0.000 C 
ATOM      6  C   UNL     1       3.907   5.107  19.033  0.00  0.00    +0.000 C 
ATOM      7  C   UNL     1       3.756   6.383  18.288  0.00  0.00    +0.000 C 
ATOM      8  N   UNL     1       2.723   7.133  18.520  0.00  0.00    +0.000 NA
ATOM      9  C   UNL     1       4.829   6.786  17.285  0.00  0.00    +0.000 C 
ENDROOT
BRANCH   5  10
ATOM     10  O   UNL     1       5.070   3.116  19.533  0.00  0.00    +0.000 OA
ATOM     11  H   UNL     1       5.779   2.563  19.157  0.00  0.00    +0.000 HD
ENDBRANCH   5  10
BRANCH   6  12
ATOM     12  C   UNL     1       2.864   4.714  20.068  0.00  0.00    +0.000 C 
ATOM     13  N   UNL     1       2.001   4.388  20.927  0.00  0.00    +0.000 NA
ENDBRANCH   6  12
BRANCH   8  14
ATOM     14  C   UNL     1       2.572   8.395  17.793  0.00  0.00    +0.000 C 
BRANCH  14  15
ATOM     15  C   UNL     1       1.196   8.987  18.066  0.00  0.00    +0.000 C 
BRANCH  15  16
ATOM     16  C   UNL     1       1.111   9.652  19.432  0.00  0.00    +0.000 C 
BRANCH  16  17
ATOM     17  O   UNL     1       1.131   8.652  20.445  0.00  0.00    +0.000 OA
ATOM     18  H   UNL     1       0.666   7.878  20.082  0.00  0.00    +0.000 HD
ENDBRANCH  16  17
ENDBRANCH  15  16
ENDBRANCH  14  15
ENDBRANCH   8  14
TORSDOF 6
ENDMDL
MODEL 6
REMARK VINA RESULT:      -5.7      1.509      1.577
REMARK  Name = 
REMARK  8 active torsions:
REMARK  status: ('A' for Active; 'I' for Inactive)
REMARK    1  A    between atoms: C_1  and  C_2
REMARK    2  A    between atoms: C_2  and  C_3
REMARK    3  A    between atoms: C_5  and  O_6
REMARK    4  A    between atoms: C_7  and  C_8
REMARK    5  A    between atoms: N_11  and  C_12
REMARK    6  A    between atoms: C_12  and  C_13
REMARK    7  A    between atoms: C_13  and  C_14
REMARK    8  A    between atoms: C_14  and  O_15
REMARK                            x       y       z     vdW  Elec       q    Type
REMARK                         _______ _______ _______ _____ _____    ______ ____
ROOT
ATOM      1  C   UNL     1       0.572   2.931  19.901  0.00  0.00    +0.000 C 
ATOM      2  C   UNL     1       1.992   3.515  20.093  0.00  0.00    +0.000 C 
ATOM      3  C   UNL     1       2.464   3.116  21.510  0.00  0.00    +0.000 C 
ATOM      4  C   UNL     1       2.924   2.858  19.053  0.00  0.00    +0.000 C 
ATOM      5  C   UNL     1       3.778   3.752  18.213  0.00  0.00    +0.000 C 
ATOM      6  C   UNL     1       3.744   5.092  18.210  0.00  0.00    +0.000 C 
ATOM      7  C   UNL     1       2.821   5.835  19.106  0.00  0.00    +0.000 C 
ATOM      8  N   UNL     1       2.819   7.132  19.077  0.00  0.00    +0.000 NA
ATOM      9  C   UNL     1       1.888   5.053  20.021  0.00  0.00    +0.000 C 
ENDROOT
BRANCH   5  10
ATOM     10  O   UNL     1       4.653   3.085  17.363  0.00  0.00    +0.000 OA
ATOM     11  H   UNL     1       4.240   2.955  16.490  0.00  0.00    +0.000 HD
ENDBRANCH   5  10
BRANCH   6  12
ATOM     12  C   UNL     1       4.651   5.860  17.261  0.00  0.00    +0.000 C 
ATOM     13  N   UNL     1       5.402   6.497  16.475  0.00  0.00    +0.000 NA
ENDBRANCH   6  12
BRANCH   8  14
ATOM     14  C   UNL     1       1.908   7.870  19.953  0.00  0.00    +0.000 C 
BRANCH  14  15
ATOM     15  C   UNL     1       1.319   9.058  19.203  0.00  0.00    +0.000 C 
BRANCH  15  16
ATOM     16  C   UNL     1       1.885   9.196  17.798  0.00  0.00    +0.000 C 
BRANCH  16  17
ATOM     17  O   UNL     1       2.007  10.577  17.473  0.00  0.00    +0.000 OA
ATOM     18  H   UNL     1       2.827  10.670  16.958  0.00  0.00    +0.000 HD
ENDBRANCH  16  17
ENDBRANCH  15  16
ENDBRANCH  14  15
ENDBRANCH   8  14
TORSDOF 6
ENDMDL
MODEL 7
REMARK VINA RESULT:      -5.7      1.696      1.953
REMARK  Name = 
REMARK  8 active torsions:
REMARK  status: ('A' for Active; 'I' for Inactive)
REMARK    1  A    between atoms: C_1  and  C_2
REMARK    2  A    between atoms: C_2  and  C_3
REMARK    3  A    between atoms: C_5  and  O_6
REMARK    4  A    between atoms: C_7  and  C_8
REMARK    5  A    between atoms: N_11  and  C_12
REMARK    6  A    between atoms: C_12  and  C_13
REMARK    7  A    between atoms: C_13  and  C_14
REMARK    8  A    between atoms: C_14  and  O_15
REMARK                            x       y       z     vdW  Elec       q    Type
REMARK                         _______ _______ _______ _____ _____    ______ ____
ROOT
ATOM      1  C   UNL     1       1.532   3.222  18.316  0.00  0.00    +0.000 C 
ATOM      2  C   UNL     1       2.509   4.175  19.043  0.00  0.00    +0.000 C 
ATOM      3  C   UNL     1       2.137   4.156  20.544  0.00  0.00    +0.000 C 
ATOM      4  C   UNL     1       3.937   3.612  18.878  0.00  0.00    +0.000 C 
ATOM      5  C   UNL     1       5.004   4.540  18.392  0.00  0.00    +0.000 C 
ATOM      6  C   UNL     1       4.819   5.805  17.991  0.00  0.00    +0.000 C 
ATOM      7  C   UNL     1       3.471   6.428  18.021  0.00  0.00    +0.000 C 
ATOM      8  N   UNL     1       3.332   7.656  17.628  0.00  0.00    +0.000 NA
ATOM      9  C   UNL     1       2.283   5.598  18.495  0.00  0.00    +0.000 C 
ENDROOT
BRANCH   5  10
ATOM     10  O   UNL     1       6.279   3.986  18.352  0.00  0.00    +0.000 OA
ATOM     11  H   UNL     1       6.941   4.678  18.175  0.00  0.00    +0.000 HD
ENDBRANCH   5  10
BRANCH   6  12
ATOM     12  C   UNL     1       6.005   6.608  17.480  0.00  0.00    +0.000 C 
ATOM     13  N   UNL     1       6.988   7.273  17.057  0.00  0.00    +0.000 NA
ENDBRANCH   6  12
BRANCH   8  14
ATOM     14  C   UNL     1       2.004   8.273  17.650  0.00  0.00    +0.000 C 
BRANCH  14  15
ATOM     15  C   UNL     1       1.840   9.099  18.919  0.00  0.00    +0.000 C 
BRANCH  15  16
ATOM     16  C   UNL     1       1.037  10.370  18.685  0.00  0.00    +0.000 C 
BRANCH  16  17
ATOM     17  O   UNL     1       0.040  10.122  17.698  0.00  0.00    +0.000 OA
ATOM     18  H   UNL     1      -0.620  10.831  17.784  0.00  0.00    +0.000 HD
ENDBRANCH  16  17
ENDBRANCH  15  16
ENDBRANCH  14  15
ENDBRANCH   8  14
TORSDOF 6
ENDMDL
MODEL 8
REMARK VINA RESULT:      -5.7      2.267      4.382
REMARK  Name = 
REMARK  8 active torsions:
REMARK  status: ('A' for Active; 'I' for Inactive)
REMARK    1  A    between atoms: C_1  and  C_2
REMARK    2  A    between atoms: C_2  and  C_3
REMARK    3  A    between atoms: C_5  and  O_6
REMARK    4  A    between atoms: C_7  and  C_8
REMARK    5  A    between atoms: N_11  and  C_12
REMARK    6  A    between atoms: C_12  and  C_13
REMARK    7  A    between atoms: C_13  and  C_14
REMARK    8  A    between atoms: C_14  and  O_15
REMARK                            x       y       z     vdW  Elec       q    Type
REMARK                         _______ _______ _______ _____ _____    ______ ____
ROOT
ATOM      1  C   UNL     1       3.043   2.593  21.323  0.00  0.00    +0.000 C 
ATOM      2  C   UNL     1       2.206   3.375  20.285  0.00  0.00    +0.000 C 
ATOM      3  C   UNL     1       0.938   2.539  19.994  0.00  0.00    +0.000 C 
ATOM      4  C   UNL     1       1.783   4.716  20.924  0.00  0.00    +0.000 C 
ATOM      5  C   UNL     1       2.035   5.971  20.152  0.00  0.00    +0.000 C 
ATOM      6  C   UNL     1       2.686   6.054  18.984  0.00  0.00    +0.000 C 
ATOM      7  C   UNL     1       3.218   4.839  18.316  0.00  0.00    +0.000 C 
ATOM      8  N   UNL     1       3.840   4.960  17.184  0.00  0.00    +0.000 NA
ATOM      9  C   UNL     1       3.035   3.484  18.989  0.00  0.00    +0.000 C 
ENDROOT
BRANCH   5  10
ATOM     10  O   UNL     1       1.549   7.127  20.752  0.00  0.00    +0.000 OA
ATOM     11  H   UNL     1       2.123   7.387  21.494  0.00  0.00    +0.000 HD
ENDBRANCH   5  10
BRANCH   6  12
ATOM     12  C   UNL     1       2.899   7.417  18.344  0.00  0.00    +0.000 C 
ATOM     13  N   UNL     1       3.076   8.547  17.814  0.00  0.00    +0.000 NA
ENDBRANCH   6  12
BRANCH   8  14
ATOM     14  C   UNL     1       4.371   3.766  16.524  0.00  0.00    +0.000 C 
BRANCH  14  15
ATOM     15  C   UNL     1       5.799   4.023  16.062  0.00  0.00    +0.000 C 
BRANCH  15  16
ATOM     16  C   UNL     1       6.595   4.844  17.065  0.00  0.00    +0.000 C 
BRANCH  16  17
ATOM     17  O   UNL     1       6.702   4.120  18.287  0.00  0.00    +0.000 OA
ATOM     18  H   UNL     1       6.449   3.202  18.090  0.00  0.00    +0.000 HD
ENDBRANCH  16  17
ENDBRANCH  15  16
ENDBRANCH  14  15
ENDBRANCH   8  14
TORSDOF 6
ENDMDL
MODEL 9
REMARK VINA RESULT:      -5.5      1.645      1.653
REMARK  Name = 
REMARK  8 active torsions:
REMARK  status: ('A' for Active; 'I' for Inactive)
REMARK    1  A    between atoms: C_1  and  C_2
REMARK    2  A    between atoms: C_2  and  C_3
REMARK    3  A    between atoms: C_5  and  O_6
REMARK    4  A    between atoms: C_7  and  C_8
REMARK    5  A    between atoms: N_11  and  C_12
REMARK    6  A    between atoms: C_12  and  C_13
REMARK    7  A    between atoms: C_13  and  C_14
REMARK    8  A    between atoms: C_14  and  O_15
REMARK                            x       y       z     vdW  Elec       q    Type
REMARK                         _______ _______ _______ _____ _____    ______ ____
ROOT
ATOM      1  C   UNL     1       0.516   2.973  20.100  0.00  0.00    +0.000 C 
ATOM      2  C   UNL     1       2.021   3.330  20.079  0.00  0.00    +0.000 C 
ATOM      3  C   UNL     1       2.544   3.197  21.528  0.00  0.00    +0.000 C 
ATOM      4  C   UNL     1       2.745   2.295  19.191  0.00  0.00    +0.000 C 
ATOM      5  C   UNL     1       3.654   2.804  18.120  0.00  0.00    +0.000 C 
ATOM      6  C   UNL     1       3.832   4.091  17.790  0.00  0.00    +0.000 C 
ATOM      7  C   UNL     1       3.119   5.173  18.516  0.00  0.00    +0.000 C 
ATOM      8  N   UNL     1       3.319   6.407  18.170  0.00  0.00    +0.000 NA
ATOM      9  C   UNL     1       2.155   4.801  19.637  0.00  0.00    +0.000 C 
ENDROOT
BRANCH   5  10
ATOM     10  O   UNL     1       4.336   1.816  17.421  0.00  0.00    +0.000 OA
ATOM     11  H   UNL     1       5.199   1.642  17.839  0.00  0.00    +0.000 HD
ENDBRANCH   5  10
BRANCH   6  12
ATOM     12  C   UNL     1       4.764   4.446  16.641  0.00  0.00    +0.000 C 
ATOM     13  N   UNL     1       5.536   4.740  15.690  0.00  0.00    +0.000 NA
ENDBRANCH   6  12
BRANCH   8  14
ATOM     14  C   UNL     1       2.614   7.477  18.879  0.00  0.00    +0.000 C 
BRANCH  14  15
ATOM     15  C   UNL     1       1.895   8.372  17.879  0.00  0.00    +0.000 C 
BRANCH  15  16
ATOM     16  C   UNL     1       1.219   9.561  18.545  0.00  0.00    +0.000 C 
BRANCH  16  17
ATOM     17  O   UNL     1       0.380  10.217  17.600  0.00  0.00    +0.000 OA
ATOM     18  H   UNL     1       0.277  11.134  17.908  0.00  0.00    +0.000 HD
ENDBRANCH  16  17
ENDBRANCH  15  16
ENDBRANCH  14  15
ENDBRANCH   8  14
TORSDOF 6
ENDMDL
