MODEL 1
REMARK VINA RESULT:      -6.9      0.000      0.000
REMARK  Name = 
REMARK  5 active torsions:
REMARK  status: ('A' for Active; 'I' for Inactive)
REMARK    1  A    between atoms: C_1  and  C_2
REMARK    2  A    between atoms: C_5  and  S_6
REMARK    3  A    between atoms: S_6  and  C_7
REMARK    4  A    between atoms: C_7  and  C_8
REMARK    5  A    between atoms: N_10  and  C_11
REMARK                            x       y       z     vdW  Elec       q    Type
REMARK                         _______ _______ _______ _____ _____    ______ ____
ROOT
ATOM      1  C   UNL     1       4.514   2.522  18.865  0.00  0.00    +0.000 C 
ATOM      2  O   UNL     1       4.782   2.435  20.060  0.00  0.00    +0.000 OA
ATOM      3  N   UNL     1       5.120   3.453  18.040  0.00  0.00    +0.000 N 
ATOM      4  H   UNL     1       4.772   3.514  17.088  0.00  0.00    +0.000 HD
ENDROOT
BRANCH   3   5
ATOM      5  C   UNL     1       6.126   4.398  18.517  0.00  0.00    +0.000 C 
ATOM      6  C   UNL     1       5.504   5.779  18.758  0.00  0.00    +0.000 C 
ATOM      7  C   UNL     1       5.341   6.410  17.382  0.00  0.00    +0.000 C 
ATOM      8  S   UNL     1       6.860   6.018  16.538  0.00  0.00    +0.000 S 
ATOM      9  O   UNL     1       7.802   7.086  16.801  0.00  0.00    +0.000 OA
ATOM     10  O   UNL     1       6.540   5.581  15.196  0.00  0.00    +0.000 OA
ATOM     11  C   UNL     1       7.298   4.611  17.545  0.00  0.00    +0.000 C 
ENDBRANCH   3   5
BRANCH   1  12
ATOM     12  C   UNL     1       3.448   1.657  18.194  0.00  0.00    +0.000 C 
BRANCH  12  13
ATOM     13  S   UNL     1       1.826   1.994  18.967  0.00  0.00    +0.000 S 
BRANCH  13  18
ATOM     14  C   UNL     1       1.984   8.032  19.880  0.00  0.00    +0.000 C 
ATOM     15  C   UNL     1       1.890   6.556  19.623  0.00  0.00    +0.000 A 
ATOM     16  C   UNL     1       1.801   5.653  20.686  0.00  0.00    +0.000 A 
ATOM     17  C   UNL     1       1.752   4.278  20.438  0.00  0.00    +0.000 A 
ATOM     18  C   UNL     1       1.786   3.772  19.133  0.00  0.00    +0.000 A 
ATOM     19  C   UNL     1       1.870   4.677  18.070  0.00  0.00    +0.000 A 
ATOM     20  C   UNL     1       1.920   6.057  18.315  0.00  0.00    +0.000 A 
ENDBRANCH  13  18
ENDBRANCH  12  13
ENDBRANCH   1  12
TORSDOF 4
ENDMDL
MODEL 2
REMARK VINA RESULT:      -6.8      0.360      1.152
REMARK  Name = 
REMARK  5 active torsions:
REMARK  status: ('A' for Active; 'I' for Inactive)
REMARK    1  A    between atoms: C_1  and  C_2
REMARK    2  A    between atoms: C_5  and  S_6
REMARK    3  A    between atoms: S_6  and  C_7
REMARK    4  A    between atoms: C_7  and  C_8
REMARK    5  A    between atoms: N_10  and  C_11
REMARK                            x       y       z     vdW  Elec       q    Type
REMARK                         _______ _______ _______ _____ _____    ______ ____
ROOT
ATOM      1  C   UNL     1       4.505   2.556  18.935  0.00  0.00    +0.000 C 
ATOM      2  O   UNL     1       4.845   2.463  20.112  0.00  0.00    +0.000 OA
ATOM      3  N   UNL     1       5.100   3.451  18.065  0.00  0.00    +0.000 N 
ATOM      4  H   UNL     1       4.695   3.523  17.136  0.00  0.00    +0.000 HD
ENDROOT
BRANCH   3   5
ATOM      5  C   UNL     1       6.181   4.348  18.467  0.00  0.00    +0.000 C 
ATOM      6  C   UNL     1       5.635   5.743  18.797  0.00  0.00    +0.000 C 
ATOM      7  C   UNL     1       5.367   6.416  17.458  0.00  0.00    +0.000 C 
ATOM      8  S   UNL     1       6.786   5.995  16.466  0.00  0.00    +0.000 S 
ATOM      9  O   UNL     1       7.787   7.022  16.664  0.00  0.00    +0.000 OA
ATOM     10  O   UNL     1       6.326   5.605  15.150  0.00  0.00    +0.000 OA
ATOM     11  C   UNL     1       7.264   4.546  17.394  0.00  0.00    +0.000 C 
ENDBRANCH   3   5
BRANCH   1  12
ATOM     12  C   UNL     1       3.355   1.741  18.343  0.00  0.00    +0.000 C 
BRANCH  12  13
ATOM     13  S   UNL     1       1.782   2.284  19.098  0.00  0.00    +0.000 S 
BRANCH  13  18
ATOM     14  C   UNL     1       2.001   8.388  19.095  0.00  0.00    +0.000 C 
ATOM     15  C   UNL     1       2.003   6.887  19.126  0.00  0.00    +0.000 A 
ATOM     16  C   UNL     1       1.993   6.150  17.939  0.00  0.00    +0.000 A 
ATOM     17  C   UNL     1       1.958   4.753  17.978  0.00  0.00    +0.000 A 
ATOM     18  C   UNL     1       1.937   4.060  19.195  0.00  0.00    +0.000 A 
ATOM     19  C   UNL     1       1.951   4.799  20.383  0.00  0.00    +0.000 A 
ATOM     20  C   UNL     1       1.986   6.200  20.346  0.00  0.00    +0.000 A 
ENDBRANCH  13  18
ENDBRANCH  12  13
ENDBRANCH   1  12
TORSDOF 4
ENDMDL
MODEL 3
REMARK VINA RESULT:      -6.8      3.197      6.217
REMARK  Name = 
REMARK  5 active torsions:
REMARK  status: ('A' for Active; 'I' for Inactive)
REMARK    1  A    between atoms: C_1  and  C_2
REMARK    2  A    between atoms: C_5  and  S_6
REMARK    3  A    between atoms: S_6  and  C_7
REMARK    4  A    between atoms: C_7  and  C_8
REMARK    5  A    between atoms: N_10  and  C_11
REMARK                            x       y       z     vdW  Elec       q    Type
REMARK                         _______ _______ _______ _____ _____    ______ ____
ROOT
ATOM      1  C   UNL     1       6.349   4.782  18.752  0.00  0.00    +0.000 C 
ATOM      2  O   UNL     1       6.190   5.642  19.615  0.00  0.00    +0.000 OA
ATOM      3  N   UNL     1       5.525   3.675  18.656  0.00  0.00    +0.000 N 
ATOM      4  H   UNL     1       5.784   2.971  17.971  0.00  0.00    +0.000 HD
ENDROOT
BRANCH   3   5
ATOM      5  C   UNL     1       4.400   3.443  19.559  0.00  0.00    +0.000 C 
ATOM      6  C   UNL     1       4.101   1.942  19.679  0.00  0.00    +0.000 C 
ATOM      7  C   UNL     1       3.357   1.561  18.406  0.00  0.00    +0.000 C 
ATOM      8  S   UNL     1       2.206   2.898  18.155  0.00  0.00    +0.000 S 
ATOM      9  O   UNL     1       0.979   2.563  18.848  0.00  0.00    +0.000 OA
ATOM     10  O   UNL     1       2.229   3.267  16.755  0.00  0.00    +0.000 OA
ATOM     11  C   UNL     1       3.091   4.115  19.117  0.00  0.00    +0.000 C 
ENDBRANCH   3   5
BRANCH   1  12
ATOM     12  C   UNL     1       7.503   4.821  17.752  0.00  0.00    +0.000 C 
BRANCH  12  13
ATOM     13  S   UNL     1       7.132   6.054  16.455  0.00  0.00    +0.000 S 
BRANCH  13  18
ATOM     14  C   UNL     1       5.293   2.837  11.599  0.00  0.00    +0.000 C 
ATOM     15  C   UNL     1       5.796   3.590  12.797  0.00  0.00    +0.000 A 
ATOM     16  C   UNL     1       5.038   3.651  13.969  0.00  0.00    +0.000 A 
ATOM     17  C   UNL     1       5.498   4.385  15.066  0.00  0.00    +0.000 A 
ATOM     18  C   UNL     1       6.720   5.069  15.024  0.00  0.00    +0.000 A 
ATOM     19  C   UNL     1       7.480   5.003  13.851  0.00  0.00    +0.000 A 
ATOM     20  C   UNL     1       7.021   4.268  12.749  0.00  0.00    +0.000 A 
ENDBRANCH  13  18
ENDBRANCH  12  13
ENDBRANCH   1  12
TORSDOF 4
ENDMDL
MODEL 4
REMARK VINA RESULT:      -6.6      1.381      1.591
REMARK  Name = 
REMARK  5 active torsions:
REMARK  status: ('A' for Active; 'I' for Inactive)
REMARK    1  A    between atoms: C_1  and  C_2
REMARK    2  A    between atoms: C_5  and  S_6
REMARK    3  A    between atoms: S_6  and  C_7
REMARK    4  A    between atoms: C_7  and  C_8
REMARK    5  A    between atoms: N_10  and  C_11
REMARK                            x       y       z     vdW  Elec       q    Type
REMARK                         _______ _______ _______ _____ _____    ______ ____
ROOT
ATOM      1  C   UNL     1       4.807   3.337  18.742  0.00  0.00    +0.000 C 
ATOM      2  O   UNL     1       5.333   3.810  19.746  0.00  0.00    +0.000 OA
ATOM      3  N   UNL     1       5.195   3.701  17.465  0.00  0.00    +0.000 N 
ATOM      4  H   UNL     1       4.645   3.328  16.697  0.00  0.00    +0.000 HD
ENDROOT
BRANCH   3   5
ATOM      5  C   UNL     1       6.262   4.665  17.206  0.00  0.00    +0.000 C 
ATOM      6  C   UNL     1       5.691   5.959  16.611  0.00  0.00    +0.000 C 
ATOM      7  C   UNL     1       5.400   5.655  15.148  0.00  0.00    +0.000 C 
ATOM      8  S   UNL     1       6.819   4.724  14.605  0.00  0.00    +0.000 S 
ATOM      9  O   UNL     1       7.801   5.663  14.105  0.00  0.00    +0.000 OA
ATOM     10  O   UNL     1       6.356   3.598  13.821  0.00  0.00    +0.000 OA
ATOM     11  C   UNL     1       7.332   4.167  16.221  0.00  0.00    +0.000 C 
ENDBRANCH   3   5
BRANCH   1  12
ATOM     12  C   UNL     1       3.637   2.356  18.810  0.00  0.00    +0.000 C 
BRANCH  12  13
ATOM     13  S   UNL     1       2.189   3.087  17.968  0.00  0.00    +0.000 S 
BRANCH  13  18
ATOM     14  C   UNL     1       1.717   8.368  21.001  0.00  0.00    +0.000 C 
ATOM     15  C   UNL     1       1.789   7.091  20.214  0.00  0.00    +0.000 A 
ATOM     16  C   UNL     1       1.458   5.871  20.807  0.00  0.00    +0.000 A 
ATOM     17  C   UNL     1       1.565   4.683  20.077  0.00  0.00    +0.000 A 
ATOM     18  C   UNL     1       1.996   4.684  18.745  0.00  0.00    +0.000 A 
ATOM     19  C   UNL     1       2.322   5.907  18.151  0.00  0.00    +0.000 A 
ATOM     20  C   UNL     1       2.218   7.100  18.881  0.00  0.00    +0.000 A 
ENDBRANCH  13  18
ENDBRANCH  12  13
ENDBRANCH   1  12
TORSDOF 4
ENDMDL
MODEL 5
REMARK VINA RESULT:      -6.5      1.140      1.700
REMARK  Name = 
REMARK  5 active torsions:
REMARK  status: ('A' for Active; 'I' for Inactive)
REMARK    1  A    between atoms: C_1  and  C_2
REMARK    2  A    between atoms: C_5  and  S_6
REMARK    3  A    between atoms: S_6  and  C_7
REMARK    4  A    between atoms: C_7  and  C_8
REMARK    5  A    between atoms: N_10  and  C_11
REMARK                            x       y       z     vdW  Elec       q    Type
REMARK                         _______ _______ _______ _____ _____    ______ ____
ROOT
ATOM      1  C   UNL     1       4.555   2.902  18.928  0.00  0.00    +0.000 C 
ATOM      2  O   UNL     1       5.187   3.059  19.969  0.00  0.00    +0.000 OA
ATOM      3  N   UNL     1       4.855   3.601  17.772  0.00  0.00    +0.000 N 
ATOM      4  H   UNL     1       4.225   3.475  16.985  0.00  0.00    +0.000 HD
ENDROOT
BRANCH   3   5
ATOM      5  C   UNL     1       5.946   4.569  17.692  0.00  0.00    +0.000 C 
ATOM      6  C   UNL     1       5.448   5.901  17.117  0.00  0.00    +0.000 C 
ATOM      7  C   UNL     1       5.322   5.688  15.615  0.00  0.00    +0.000 C 
ATOM      8  S   UNL     1       6.791   4.779  15.177  0.00  0.00    +0.000 S 
ATOM      9  O   UNL     1       7.825   5.738  14.849  0.00  0.00    +0.000 OA
ATOM     10  O   UNL     1       6.417   3.706  14.281  0.00  0.00    +0.000 OA
ATOM     11  C   UNL     1       7.119   4.122  16.805  0.00  0.00    +0.000 C 
ENDBRANCH   3   5
BRANCH   1  12
ATOM     12  C   UNL     1       3.346   1.974  18.829  0.00  0.00    +0.000 C 
BRANCH  12  13
ATOM     13  S   UNL     1       1.918   2.756  19.660  0.00  0.00    +0.000 S 
BRANCH  13  18
ATOM     14  C   UNL     1       2.158   8.663  18.126  0.00  0.00    +0.000 C 
ATOM     15  C   UNL     1       2.160   7.214  18.521  0.00  0.00    +0.000 A 
ATOM     16  C   UNL     1       1.899   6.219  17.576  0.00  0.00    +0.000 A 
ATOM     17  C   UNL     1       1.867   4.875  17.961  0.00  0.00    +0.000 A 
ATOM     18  C   UNL     1       2.098   4.493  19.288  0.00  0.00    +0.000 A 
ATOM     19  C   UNL     1       2.364   5.490  20.232  0.00  0.00    +0.000 A 
ATOM     20  C   UNL     1       2.396   6.839  19.849  0.00  0.00    +0.000 A 
ENDBRANCH  13  18
ENDBRANCH  12  13
ENDBRANCH   1  12
TORSDOF 4
ENDMDL
MODEL 6
REMARK VINA RESULT:      -6.5      1.309      1.550
REMARK  Name = 
REMARK  5 active torsions:
REMARK  status: ('A' for Active; 'I' for Inactive)
REMARK    1  A    between atoms: C_1  and  C_2
REMARK    2  A    between atoms: C_5  and  S_6
REMARK    3  A    between atoms: S_6  and  C_7
REMARK    4  A    between atoms: C_7  and  C_8
REMARK    5  A    between atoms: N_10  and  C_11
REMARK                            x       y       z     vdW  Elec       q    Type
REMARK                         _______ _______ _______ _____ _____    ______ ____
ROOT
ATOM      1  C   UNL     1       4.777   3.258  19.040  0.00  0.00    +0.000 C 
ATOM      2  O   UNL     1       5.341   3.663  20.053  0.00  0.00    +0.000 OA
ATOM      3  N   UNL     1       5.114   3.712  17.778  0.00  0.00    +0.000 N 
ATOM      4  H   UNL     1       4.535   3.390  17.007  0.00  0.00    +0.000 HD
ENDROOT
BRANCH   3   5
ATOM      5  C   UNL     1       6.167   4.698  17.545  0.00  0.00    +0.000 C 
ATOM      6  C   UNL     1       5.587   5.975  16.925  0.00  0.00    +0.000 C 
ATOM      7  C   UNL     1       5.348   5.656  15.455  0.00  0.00    +0.000 C 
ATOM      8  S   UNL     1       6.803   4.753  14.962  0.00  0.00    +0.000 S 
ATOM      9  O   UNL     1       7.780   5.711  14.487  0.00  0.00    +0.000 OA
ATOM     10  O   UNL     1       6.390   3.612  14.172  0.00  0.00    +0.000 OA
ATOM     11  C   UNL     1       7.278   4.218  16.598  0.00  0.00    +0.000 C 
ENDBRANCH   3   5
BRANCH   1  12
ATOM     12  C   UNL     1       3.614   2.267  19.085  0.00  0.00    +0.000 C 
BRANCH  12  13
ATOM     13  S   UNL     1       2.213   3.025  19.981  0.00  0.00    +0.000 S 
BRANCH  13  18
ATOM     14  C   UNL     1       2.295   8.809  18.021  0.00  0.00    +0.000 C 
ATOM     15  C   UNL     1       2.215   7.383  18.483  0.00  0.00    +0.000 A 
ATOM     16  C   UNL     1       2.395   7.060  19.830  0.00  0.00    +0.000 A 
ATOM     17  C   UNL     1       2.355   5.725  20.245  0.00  0.00    +0.000 A 
ATOM     18  C   UNL     1       2.130   4.687  19.333  0.00  0.00    +0.000 A 
ATOM     19  C   UNL     1       1.946   5.012  17.985  0.00  0.00    +0.000 A 
ATOM     20  C   UNL     1       1.986   6.349  17.566  0.00  0.00    +0.000 A 
ENDBRANCH  13  18
ENDBRANCH  12  13
ENDBRANCH   1  12
TORSDOF 4
ENDMDL
MODEL 7
REMARK VINA RESULT:      -6.4      1.463      2.022
REMARK  Name = 
REMARK  5 active torsions:
REMARK  status: ('A' for Active; 'I' for Inactive)
REMARK    1  A    between atoms: C_1  and  C_2
REMARK    2  A    between atoms: C_5  and  S_6
REMARK    3  A    between atoms: S_6  and  C_7
REMARK    4  A    between atoms: C_7  and  C_8
REMARK    5  A    between atoms: N_10  and  C_11
REMARK                            x       y       z     vdW  Elec       q    Type
REMARK                         _______ _______ _______ _____ _____    ______ ____
ROOT
ATOM      1  C   UNL     1       4.926   3.571  18.846  0.00  0.00    +0.000 C 
ATOM      2  O   UNL     1       5.643   3.871  19.796  0.00  0.00    +0.000 OA
ATOM      3  N   UNL     1       5.155   4.051  17.569  0.00  0.00    +0.000 N 
ATOM      4  H   UNL     1       4.460   3.823  16.864  0.00  0.00    +0.000 HD
ENDROOT
BRANCH   3   5
ATOM      5  C   UNL     1       6.266   4.942  17.245  0.00  0.00    +0.000 C 
ATOM      6  C   UNL     1       5.760   6.207  16.541  0.00  0.00    +0.000 C 
ATOM      7  C   UNL     1       5.468   5.798  15.104  0.00  0.00    +0.000 C 
ATOM      8  S   UNL     1       6.847   4.764  14.654  0.00  0.00    +0.000 S 
ATOM      9  O   UNL     1       7.876   5.615  14.092  0.00  0.00    +0.000 OA
ATOM     10  O   UNL     1       6.341   3.599  13.960  0.00  0.00    +0.000 OA
ATOM     11  C   UNL     1       7.321   4.318  16.317  0.00  0.00    +0.000 C 
ENDBRANCH   3   5
BRANCH   1  12
ATOM     12  C   UNL     1       3.683   2.695  18.996  0.00  0.00    +0.000 C 
BRANCH  12  13
ATOM     13  S   UNL     1       2.260   3.529  18.210  0.00  0.00    +0.000 S 
BRANCH  13  18
ATOM     14  C   UNL     1       1.507   8.936  20.949  0.00  0.00    +0.000 C 
ATOM     15  C   UNL     1       1.734   7.591  20.321  0.00  0.00    +0.000 A 
ATOM     16  C   UNL     1       2.230   7.489  19.019  0.00  0.00    +0.000 A 
ATOM     17  C   UNL     1       2.403   6.233  18.429  0.00  0.00    +0.000 A 
ATOM     18  C   UNL     1       2.094   5.056  19.121  0.00  0.00    +0.000 A 
ATOM     19  C   UNL     1       1.602   5.159  20.426  0.00  0.00    +0.000 A 
ATOM     20  C   UNL     1       1.427   6.417  21.020  0.00  0.00    +0.000 A 
ENDBRANCH  13  18
ENDBRANCH  12  13
ENDBRANCH   1  12
TORSDOF 4
ENDMDL
MODEL 8
REMARK VINA RESULT:      -6.3      3.249      6.334
REMARK  Name = 
REMARK  5 active torsions:
REMARK  status: ('A' for Active; 'I' for Inactive)
REMARK    1  A    between atoms: C_1  and  C_2
REMARK    2  A    between atoms: C_5  and  S_6
REMARK    3  A    between atoms: S_6  and  C_7
REMARK    4  A    between atoms: C_7  and  C_8
REMARK    5  A    between atoms: N_10  and  C_11
REMARK                            x       y       z     vdW  Elec       q    Type
REMARK                         _______ _______ _______ _____ _____    ______ ____
ROOT
ATOM      1  C   UNL     1       6.289   4.695  18.764  0.00  0.00    +0.000 C 
ATOM      2  O   UNL     1       6.489   5.141  19.891  0.00  0.00    +0.000 OA
ATOM      3  N   UNL     1       5.231   3.848  18.484  0.00  0.00    +0.000 N 
ATOM      4  H   UNL     1       5.194   3.457  17.547  0.00  0.00    +0.000 HD
ENDROOT
BRANCH   3   5
ATOM      5  C   UNL     1       4.266   3.425  19.496  0.00  0.00    +0.000 C 
ATOM      6  C   UNL     1       3.939   1.933  19.343  0.00  0.00    +0.000 C 
ATOM      7  C   UNL     1       2.980   1.833  18.165  0.00  0.00    +0.000 C 
ATOM      8  S   UNL     1       1.850   3.190  18.404  0.00  0.00    +0.000 S 
ATOM      9  O   UNL     1       0.746   2.711  19.209  0.00  0.00    +0.000 OA
ATOM     10  O   UNL     1       1.652   3.851  17.132  0.00  0.00    +0.000 OA
ATOM     11  C   UNL     1       2.925   4.173  19.437  0.00  0.00    +0.000 C 
ENDBRANCH   3   5
BRANCH   1  12
ATOM     12  C   UNL     1       7.220   4.980  17.587  0.00  0.00    +0.000 C 
BRANCH  12  13
ATOM     13  S   UNL     1       6.383   6.108  16.417  0.00  0.00    +0.000 S 
BRANCH  13  18
ATOM     14  C   UNL     1       6.142   2.607  11.418  0.00  0.00    +0.000 C 
ATOM     15  C   UNL     1       6.153   3.501  12.624  0.00  0.00    +0.000 A 
ATOM     16  C   UNL     1       7.281   4.265  12.934  0.00  0.00    +0.000 A 
ATOM     17  C   UNL     1       7.295   5.067  14.079  0.00  0.00    +0.000 A 
ATOM     18  C   UNL     1       6.189   5.130  14.936  0.00  0.00    +0.000 A 
ATOM     19  C   UNL     1       5.058   4.369  14.622  0.00  0.00    +0.000 A 
ATOM     20  C   UNL     1       5.042   3.563  13.475  0.00  0.00    +0.000 A 
ENDBRANCH  13  18
ENDBRANCH  12  13
ENDBRANCH   1  12
TORSDOF 4
ENDMDL
MODEL 9
REMARK VINA RESULT:      -6.2      2.191      3.195
REMARK  Name = 
REMARK  5 active torsions:
REMARK  status: ('A' for Active; 'I' for Inactive)
REMARK    1  A    between atoms: C_1  and  C_2
REMARK    2  A    between atoms: C_5  and  S_6
REMARK    3  A    between atoms: S_6  and  C_7
REMARK    4  A    between atoms: C_7  and  C_8
REMARK    5  A    between atoms: N_10  and  C_11
REMARK                            x       y       z     vdW  Elec       q    Type
REMARK                         _______ _______ _______ _____ _____    ______ ____
ROOT
ATOM      1  C   UNL     1       2.682   4.137  17.630  0.00  0.00    +0.000 C 
ATOM      2  O   UNL     1       2.203   3.231  16.953  0.00  0.00    +0.000 OA
ATOM      3  N   UNL     1       3.851   4.785  17.273  0.00  0.00    +0.000 N 
ATOM      4  H   UNL     1       4.221   5.458  17.938  0.00  0.00    +0.000 HD
ENDROOT
BRANCH   3   5
ATOM      5  C   UNL     1       4.603   4.454  16.065  0.00  0.00    +0.000 C 
ATOM      6  C   UNL     1       5.775   3.520  16.394  0.00  0.00    +0.000 C 
ATOM      7  C   UNL     1       6.853   4.402  17.009  0.00  0.00    +0.000 C 
ATOM      8  S   UNL     1       6.860   5.861  15.987  0.00  0.00    +0.000 S 
ATOM      9  O   UNL     1       7.802   5.643  14.909  0.00  0.00    +0.000 OA
ATOM     10  O   UNL     1       6.924   7.024  16.848  0.00  0.00    +0.000 OA
ATOM     11  C   UNL     1       5.204   5.672  15.346  0.00  0.00    +0.000 C 
ENDBRANCH   3   5
BRANCH   1  12
ATOM     12  C   UNL     1       2.069   4.587  18.956  0.00  0.00    +0.000 C 
BRANCH  12  13
ATOM     13  S   UNL     1       3.123   5.885  19.695  0.00  0.00    +0.000 S 
BRANCH  13  18
ATOM     14  C   UNL     1       0.329  11.249  18.841  0.00  0.00    +0.000 C 
ATOM     15  C   UNL     1       0.977   9.905  19.008  0.00  0.00    +0.000 A 
ATOM     16  C   UNL     1       0.957   9.254  20.243  0.00  0.00    +0.000 A 
ATOM     17  C   UNL     1       1.594   8.019  20.398  0.00  0.00    +0.000 A 
ATOM     18  C   UNL     1       2.260   7.405  19.329  0.00  0.00    +0.000 A 
ATOM     19  C   UNL     1       2.275   8.056  18.091  0.00  0.00    +0.000 A 
ATOM     20  C   UNL     1       1.637   9.295  17.934  0.00  0.00    +0.000 A 
ENDBRANCH  13  18
ENDBRANCH  12  13
ENDBRANCH   1  12
TORSDOF 4
ENDMDL
