MODEL 1
REMARK VINA RESULT:      -7.5      0.000      0.000
REMARK  Name = 
REMARK  6 active torsions:
REMARK  status: ('A' for Active; 'I' for Inactive)
REMARK    1  A    between atoms: C_1  and  C_2
REMARK    2  A    between atoms: C_2  and  C_3
REMARK    3  A    between atoms: C_2  and  C_4
REMARK    4  A    between atoms: C_4  and  O_5
REMARK    5  A    between atoms: O_5  and  C_6
REMARK    6  A    between atoms: C_10  and  N_11
REMARK                            x       y       z     vdW  Elec       q    Type
REMARK                         _______ _______ _______ _____ _____    ______ ____
ROOT
ATOM      1  C   UNL     1       5.730   4.381  15.015  0.00  0.00    +0.000 A 
ATOM      2  C   UNL     1       7.015   4.697  15.413  0.00  0.00    +0.000 A 
ATOM      3  N   UNL     1       7.357   4.787  16.715  0.00  0.00    +0.000 NA
ATOM      4  C   UNL     1       6.345   4.529  17.590  0.00  0.00    +0.000 A 
ATOM      5  C   UNL     1       5.042   4.165  17.219  0.00  0.00    +0.000 A 
ATOM      6  N   UNL     1       4.745   4.110  15.901  0.00  0.00    +0.000 NA
ENDROOT
BRANCH   5   7
ATOM      7  N   UNL     1       4.018   3.879  18.138  0.00  0.00    +0.000 N 
ATOM      8  C   UNL     1       4.067   4.565  19.438  0.00  0.00    +0.000 C 
ATOM      9  C   UNL     1       2.977   4.082  20.419  0.00  0.00    +0.000 C 
ATOM     10  C   UNL     1       1.557   4.535  20.039  0.00  0.00    +0.000 C 
ATOM     11  O   UNL     1       1.083   3.922  18.835  0.00  0.00    +0.000 OA
ATOM     12  C   UNL     1       1.219   2.499  18.907  0.00  0.00    +0.000 C 
ATOM     13  C   UNL     1       2.649   2.073  19.269  0.00  0.00    +0.000 C 
ATOM     14  C   UNL     1       3.691   2.434  18.191  0.00  0.00    +0.000 C 
ATOM     15  O   UNL     1       3.017   2.645  20.541  0.00  0.00    +0.000 OA
ENDBRANCH   5   7
BRANCH   1  16
ATOM     16  O   UNL     1       5.457   4.318  13.664  0.00  0.00    +0.000 OA
BRANCH  16  17
ATOM     17  C   UNL     1       6.327   3.397  12.996  0.00  0.00    +0.000 C 
BRANCH  17  19
ATOM     18  C   UNL     1       6.020   1.540  11.345  0.00  0.00    +0.000 C 
ATOM     19  C   UNL     1       5.738   3.015  11.632  0.00  0.00    +0.000 C 
ATOM     20  C   UNL     1       4.237   3.298  11.562  0.00  0.00    +0.000 C 
ENDBRANCH  17  19
ENDBRANCH  16  17
ENDBRANCH   1  16
TORSDOF 4
ENDMDL
MODEL 2
REMARK VINA RESULT:      -7.5      1.184      2.061
REMARK  Name = 
REMARK  6 active torsions:
REMARK  status: ('A' for Active; 'I' for Inactive)
REMARK    1  A    between atoms: C_1  and  C_2
REMARK    2  A    between atoms: C_2  and  C_3
REMARK    3  A    between atoms: C_2  and  C_4
REMARK    4  A    between atoms: C_4  and  O_5
REMARK    5  A    between atoms: O_5  and  C_6
REMARK    6  A    between atoms: C_10  and  N_11
REMARK                            x       y       z     vdW  Elec       q    Type
REMARK                         _______ _______ _______ _____ _____    ______ ____
ROOT
ATOM      1  C   UNL     1       6.552   4.453  16.098  0.00  0.00    +0.000 A 
ATOM      2  C   UNL     1       7.620   4.709  16.935  0.00  0.00    +0.000 A 
ATOM      3  N   UNL     1       7.489   4.708  18.279  0.00  0.00    +0.000 NA
ATOM      4  C   UNL     1       6.235   4.423  18.729  0.00  0.00    +0.000 A 
ATOM      5  C   UNL     1       5.141   4.118  17.906  0.00  0.00    +0.000 A 
ATOM      6  N   UNL     1       5.321   4.153  16.567  0.00  0.00    +0.000 NA
ENDROOT
BRANCH   5   7
ATOM      7  N   UNL     1       3.861   3.802  18.392  0.00  0.00    +0.000 N 
ATOM      8  C   UNL     1       3.382   2.426  18.187  0.00  0.00    +0.000 C 
ATOM      9  C   UNL     1       1.920   2.221  18.637  0.00  0.00    +0.000 C 
ATOM     10  C   UNL     1       1.731   2.243  20.163  0.00  0.00    +0.000 C 
ATOM     11  O   UNL     1       1.979   3.532  20.734  0.00  0.00    +0.000 OA
ATOM     12  C   UNL     1       1.213   4.536  20.060  0.00  0.00    +0.000 C 
ATOM     13  C   UNL     1       1.433   4.506  18.541  0.00  0.00    +0.000 C 
ATOM     14  C   UNL     1       2.871   4.870  18.118  0.00  0.00    +0.000 C 
ATOM     15  O   UNL     1       1.065   3.210  18.025  0.00  0.00    +0.000 OA
ENDBRANCH   5   7
BRANCH   1  16
ATOM     16  O   UNL     1       6.765   4.481  14.734  0.00  0.00    +0.000 OA
BRANCH  16  17
ATOM     17  C   UNL     1       5.590   4.094  14.012  0.00  0.00    +0.000 C 
BRANCH  17  19
ATOM     18  C   UNL     1       4.766   3.329  11.775  0.00  0.00    +0.000 C 
ATOM     19  C   UNL     1       5.984   3.415  12.694  0.00  0.00    +0.000 C 
ATOM     20  C   UNL     1       7.131   4.150  11.998  0.00  0.00    +0.000 C 
ENDBRANCH  17  19
ENDBRANCH  16  17
ENDBRANCH   1  16
TORSDOF 4
ENDMDL
MODEL 3
REMARK VINA RESULT:      -7.3      0.879      1.713
REMARK  Name = 
REMARK  6 active torsions:
REMARK  status: ('A' for Active; 'I' for Inactive)
REMARK    1  A    between atoms: C_1  and  C_2
REMARK    2  A    between atoms: C_2  and  C_3
REMARK    3  A    between atoms: C_2  and  C_4
REMARK    4  A    between atoms: C_4  and  O_5
REMARK    5  A    between atoms: O_5  and  C_6
REMARK    6  A    between atoms: C_10  and  N_11
REMARK                            x       y       z     vdW  Elec       q    Type
REMARK                         _______ _______ _______ _____ _____    ______ ____
ROOT
ATOM      1  C   UNL     1       6.299   4.148  15.158  0.00  0.00    +0.000 A 
ATOM      2  C   UNL     1       7.356   4.895  15.643  0.00  0.00    +0.000 A 
ATOM      3  N   UNL     1       7.362   5.393  16.897  0.00  0.00    +0.000 NA
ATOM      4  C   UNL     1       6.259   5.087  17.637  0.00  0.00    +0.000 A 
ATOM      5  C   UNL     1       5.190   4.298  17.189  0.00  0.00    +0.000 A 
ATOM      6  N   UNL     1       5.223   3.841  15.917  0.00  0.00    +0.000 NA
ENDROOT
BRANCH   5   7
ATOM      7  N   UNL     1       4.072   3.974  17.977  0.00  0.00    +0.000 N 
ATOM      8  C   UNL     1       2.767   3.907  17.302  0.00  0.00    +0.000 C 
ATOM      9  C   UNL     1       1.593   3.676  18.277  0.00  0.00    +0.000 C 
ATOM     10  C   UNL     1       1.551   2.260  18.874  0.00  0.00    +0.000 C 
ATOM     11  O   UNL     1       2.648   1.996  19.754  0.00  0.00    +0.000 OA
ATOM     12  C   UNL     1       2.753   3.021  20.749  0.00  0.00    +0.000 C 
ATOM     13  C   UNL     1       2.812   4.423  20.127  0.00  0.00    +0.000 C 
ATOM     14  C   UNL     1       4.080   4.672  19.285  0.00  0.00    +0.000 C 
ATOM     15  O   UNL     1       1.626   4.654  19.339  0.00  0.00    +0.000 OA
ENDBRANCH   5   7
BRANCH   1  16
ATOM     16  O   UNL     1       6.364   3.682  13.861  0.00  0.00    +0.000 OA
BRANCH  16  17
ATOM     17  C   UNL     1       5.072   3.671  13.243  0.00  0.00    +0.000 C 
BRANCH  17  19
ATOM     18  C   UNL     1       5.926   1.972  11.615  0.00  0.00    +0.000 C 
ATOM     19  C   UNL     1       5.204   3.311  11.758  0.00  0.00    +0.000 C 
ATOM     20  C   UNL     1       3.843   3.263  11.062  0.00  0.00    +0.000 C 
ENDBRANCH  17  19
ENDBRANCH  16  17
ENDBRANCH   1  16
TORSDOF 4
ENDMDL
MODEL 4
REMARK VINA RESULT:      -7.3      1.531      2.565
REMARK  Name = 
REMARK  6 active torsions:
REMARK  status: ('A' for Active; 'I' for Inactive)
REMARK    1  A    between atoms: C_1  and  C_2
REMARK    2  A    between atoms: C_2  and  C_3
REMARK    3  A    between atoms: C_2  and  C_4
REMARK    4  A    between atoms: C_4  and  O_5
REMARK    5  A    between atoms: O_5  and  C_6
REMARK    6  A    between atoms: C_10  and  N_11
REMARK                            x       y       z     vdW  Elec       q    Type
REMARK                         _______ _______ _______ _____ _____    ______ ____
ROOT
ATOM      1  C   UNL     1       6.799   5.364  16.879  0.00  0.00    +0.000 A 
ATOM      2  C   UNL     1       7.634   5.701  17.926  0.00  0.00    +0.000 A 
ATOM      3  N   UNL     1       7.258   5.551  19.214  0.00  0.00    +0.000 NA
ATOM      4  C   UNL     1       6.010   5.033  19.388  0.00  0.00    +0.000 A 
ATOM      5  C   UNL     1       5.155   4.642  18.347  0.00  0.00    +0.000 A 
ATOM      6  N   UNL     1       5.571   4.833  17.075  0.00  0.00    +0.000 NA
ENDROOT
BRANCH   5   7
ATOM      7  N   UNL     1       3.881   4.087  18.548  0.00  0.00    +0.000 N 
ATOM      8  C   UNL     1       3.546   2.872  17.788  0.00  0.00    +0.000 C 
ATOM      9  C   UNL     1       2.082   2.422  17.981  0.00  0.00    +0.000 C 
ATOM     10  C   UNL     1       1.791   1.838  19.374  0.00  0.00    +0.000 C 
ATOM     11  O   UNL     1       1.880   2.817  20.415  0.00  0.00    +0.000 OA
ATOM     12  C   UNL     1       1.071   3.957  20.104  0.00  0.00    +0.000 C 
ATOM     13  C   UNL     1       1.394   4.532  18.718  0.00  0.00    +0.000 C 
ATOM     14  C   UNL     1       2.816   5.117  18.608  0.00  0.00    +0.000 C 
ATOM     15  O   UNL     1       1.183   3.519  17.712  0.00  0.00    +0.000 OA
ENDBRANCH   5   7
BRANCH   1  16
ATOM     16  O   UNL     1       7.252   5.555  15.590  0.00  0.00    +0.000 OA
BRANCH  16  17
ATOM     17  C   UNL     1       6.293   5.106  14.625  0.00  0.00    +0.000 C 
BRANCH  17  19
ATOM     18  C   UNL     1       5.974   3.538  12.699  0.00  0.00    +0.000 C 
ATOM     19  C   UNL     1       7.000   4.338  13.501  0.00  0.00    +0.000 C 
ATOM     20  C   UNL     1       7.788   5.273  12.583  0.00  0.00    +0.000 C 
ENDBRANCH  17  19
ENDBRANCH  16  17
ENDBRANCH   1  16
TORSDOF 4
ENDMDL
MODEL 5
REMARK VINA RESULT:      -7.3      0.940      1.711
REMARK  Name = 
REMARK  6 active torsions:
REMARK  status: ('A' for Active; 'I' for Inactive)
REMARK    1  A    between atoms: C_1  and  C_2
REMARK    2  A    between atoms: C_2  and  C_3
REMARK    3  A    between atoms: C_2  and  C_4
REMARK    4  A    between atoms: C_4  and  O_5
REMARK    5  A    between atoms: O_5  and  C_6
REMARK    6  A    between atoms: C_10  and  N_11
REMARK                            x       y       z     vdW  Elec       q    Type
REMARK                         _______ _______ _______ _____ _____    ______ ____
ROOT
ATOM      1  C   UNL     1       5.660   4.440  15.303  0.00  0.00    +0.000 A 
ATOM      2  C   UNL     1       6.955   4.690  15.713  0.00  0.00    +0.000 A 
ATOM      3  N   UNL     1       7.299   4.706  17.018  0.00  0.00    +0.000 NA
ATOM      4  C   UNL     1       6.277   4.445  17.881  0.00  0.00    +0.000 A 
ATOM      5  C   UNL     1       4.962   4.146  17.494  0.00  0.00    +0.000 A 
ATOM      6  N   UNL     1       4.665   4.164  16.175  0.00  0.00    +0.000 NA
ENDROOT
BRANCH   5   7
ATOM      7  N   UNL     1       3.928   3.855  18.400  0.00  0.00    +0.000 N 
ATOM      8  C   UNL     1       3.849   2.479  18.914  0.00  0.00    +0.000 C 
ATOM      9  C   UNL     1       2.604   2.233  19.793  0.00  0.00    +0.000 C 
ATOM     10  C   UNL     1       2.666   2.925  21.165  0.00  0.00    +0.000 C 
ATOM     11  O   UNL     1       2.612   4.353  21.068  0.00  0.00    +0.000 OA
ATOM     12  C   UNL     1       1.485   4.761  20.283  0.00  0.00    +0.000 C 
ATOM     13  C   UNL     1       1.457   4.070  18.913  0.00  0.00    +0.000 C 
ATOM     14  C   UNL     1       2.636   4.462  17.999  0.00  0.00    +0.000 C 
ATOM     15  O   UNL     1       1.410   2.639  19.093  0.00  0.00    +0.000 OA
ENDBRANCH   5   7
BRANCH   1  16
ATOM     16  O   UNL     1       5.386   4.449  13.950  0.00  0.00    +0.000 OA
BRANCH  16  17
ATOM     17  C   UNL     1       6.437   3.831  13.198  0.00  0.00    +0.000 C 
BRANCH  17  19
ATOM     18  C   UNL     1       4.623   3.295  11.557  0.00  0.00    +0.000 C 
ATOM     19  C   UNL     1       5.857   2.751  12.277  0.00  0.00    +0.000 C 
ATOM     20  C   UNL     1       6.890   2.253  11.265  0.00  0.00    +0.000 C 
ENDBRANCH  17  19
ENDBRANCH  16  17
ENDBRANCH   1  16
TORSDOF 4
ENDMDL
MODEL 6
REMARK VINA RESULT:      -7.2      1.425      2.185
REMARK  Name = 
REMARK  6 active torsions:
REMARK  status: ('A' for Active; 'I' for Inactive)
REMARK    1  A    between atoms: C_1  and  C_2
REMARK    2  A    between atoms: C_2  and  C_3
REMARK    3  A    between atoms: C_2  and  C_4
REMARK    4  A    between atoms: C_4  and  O_5
REMARK    5  A    between atoms: O_5  and  C_6
REMARK    6  A    between atoms: C_10  and  N_11
REMARK                            x       y       z     vdW  Elec       q    Type
REMARK                         _______ _______ _______ _____ _____    ______ ____
ROOT
ATOM      1  C   UNL     1       6.289   5.476  16.385  0.00  0.00    +0.000 A 
ATOM      2  C   UNL     1       7.389   5.935  17.083  0.00  0.00    +0.000 A 
ATOM      3  N   UNL     1       7.438   5.911  18.432  0.00  0.00    +0.000 NA
ATOM      4  C   UNL     1       6.332   5.392  19.034  0.00  0.00    +0.000 A 
ATOM      5  C   UNL     1       5.218   4.881  18.353  0.00  0.00    +0.000 A 
ATOM      6  N   UNL     1       5.210   4.947  17.003  0.00  0.00    +0.000 NA
ENDROOT
BRANCH   5   7
ATOM      7  N   UNL     1       4.096   4.326  18.993  0.00  0.00    +0.000 N 
ATOM      8  C   UNL     1       4.097   2.872  19.215  0.00  0.00    +0.000 C 
ATOM      9  C   UNL     1       2.768   2.349  19.802  0.00  0.00    +0.000 C 
ATOM     10  C   UNL     1       2.539   2.747  21.270  0.00  0.00    +0.000 C 
ATOM     11  O   UNL     1       2.338   4.154  21.438  0.00  0.00    +0.000 OA
ATOM     12  C   UNL     1       1.307   4.623  20.562  0.00  0.00    +0.000 C 
ATOM     13  C   UNL     1       1.568   4.230  19.102  0.00  0.00    +0.000 C 
ATOM     14  C   UNL     1       2.821   4.896  18.498  0.00  0.00    +0.000 C 
ATOM     15  O   UNL     1       1.657   2.794  18.996  0.00  0.00    +0.000 OA
ENDBRANCH   5   7
BRANCH   1  16
ATOM     16  O   UNL     1       6.311   5.542  15.007  0.00  0.00    +0.000 OA
BRANCH  16  17
ATOM     17  C   UNL     1       5.713   4.382  14.417  0.00  0.00    +0.000 C 
BRANCH  17  19
ATOM     18  C   UNL     1       5.697   3.409  12.110  0.00  0.00    +0.000 C 
ATOM     19  C   UNL     1       6.586   3.871  13.264  0.00  0.00    +0.000 C 
ATOM     20  C   UNL     1       7.576   4.935  12.786  0.00  0.00    +0.000 C 
ENDBRANCH  17  19
ENDBRANCH  16  17
ENDBRANCH   1  16
TORSDOF 4
ENDMDL
MODEL 7
REMARK VINA RESULT:      -7.2      1.173      2.166
REMARK  Name = 
REMARK  6 active torsions:
REMARK  status: ('A' for Active; 'I' for Inactive)
REMARK    1  A    between atoms: C_1  and  C_2
REMARK    2  A    between atoms: C_2  and  C_3
REMARK    3  A    between atoms: C_2  and  C_4
REMARK    4  A    between atoms: C_4  and  O_5
REMARK    5  A    between atoms: O_5  and  C_6
REMARK    6  A    between atoms: C_10  and  N_11
REMARK                            x       y       z     vdW  Elec       q    Type
REMARK                         _______ _______ _______ _____ _____    ______ ____
ROOT
ATOM      1  C   UNL     1       6.479   4.429  16.222  0.00  0.00    +0.000 A 
ATOM      2  C   UNL     1       7.411   5.248  16.829  0.00  0.00    +0.000 A 
ATOM      3  N   UNL     1       7.215   5.761  18.062  0.00  0.00    +0.000 NA
ATOM      4  C   UNL     1       6.043   5.394  18.652  0.00  0.00    +0.000 A 
ATOM      5  C   UNL     1       5.096   4.532  18.081  0.00  0.00    +0.000 A 
ATOM      6  N   UNL     1       5.331   4.062  16.835  0.00  0.00    +0.000 NA
ENDROOT
BRANCH   5   7
ATOM      7  N   UNL     1       3.904   4.147  18.717  0.00  0.00    +0.000 N 
ATOM      8  C   UNL     1       2.853   3.549  17.878  0.00  0.00    +0.000 C 
ATOM      9  C   UNL     1       1.542   3.286  18.648  0.00  0.00    +0.000 C 
ATOM     10  C   UNL     1       1.635   2.128  19.656  0.00  0.00    +0.000 C 
ATOM     11  O   UNL     1       2.504   2.420  20.756  0.00  0.00    +0.000 OA
ATOM     12  C   UNL     1       2.144   3.666  21.364  0.00  0.00    +0.000 C 
ATOM     13  C   UNL     1       2.076   4.808  20.340  0.00  0.00    +0.000 C 
ATOM     14  C   UNL     1       3.439   5.149  19.705  0.00  0.00    +0.000 C 
ATOM     15  O   UNL     1       1.107   4.487  19.320  0.00  0.00    +0.000 OA
ENDBRANCH   5   7
BRANCH   1  16
ATOM     16  O   UNL     1       6.749   3.952  14.956  0.00  0.00    +0.000 OA
BRANCH  16  17
ATOM     17  C   UNL     1       5.610   4.077  14.095  0.00  0.00    +0.000 C 
BRANCH  17  19
ATOM     18  C   UNL     1       4.656   3.481  11.858  0.00  0.00    +0.000 C 
ATOM     19  C   UNL     1       5.901   3.417  12.741  0.00  0.00    +0.000 C 
ATOM     20  C   UNL     1       7.092   4.069  12.037  0.00  0.00    +0.000 C 
ENDBRANCH  17  19
ENDBRANCH  16  17
ENDBRANCH   1  16
TORSDOF 4
ENDMDL
MODEL 8
REMARK VINA RESULT:      -7.2      1.029      1.319
REMARK  Name = 
REMARK  6 active torsions:
REMARK  status: ('A' for Active; 'I' for Inactive)
REMARK    1  A    between atoms: C_1  and  C_2
REMARK    2  A    between atoms: C_2  and  C_3
REMARK    3  A    between atoms: C_2  and  C_4
REMARK    4  A    between atoms: C_4  and  O_5
REMARK    5  A    between atoms: O_5  and  C_6
REMARK    6  A    between atoms: C_10  and  N_11
REMARK                            x       y       z     vdW  Elec       q    Type
REMARK                         _______ _______ _______ _____ _____    ______ ____
ROOT
ATOM      1  C   UNL     1       6.415   4.747  16.081  0.00  0.00    +0.000 A 
ATOM      2  C   UNL     1       7.240   5.685  16.671  0.00  0.00    +0.000 A 
ATOM      3  N   UNL     1       6.998   6.171  17.907  0.00  0.00    +0.000 NA
ATOM      4  C   UNL     1       5.895   5.654  18.517  0.00  0.00    +0.000 A 
ATOM      5  C   UNL     1       5.062   4.672  17.963  0.00  0.00    +0.000 A 
ATOM      6  N   UNL     1       5.336   4.234  16.714  0.00  0.00    +0.000 NA
ENDROOT
BRANCH   5   7
ATOM      7  N   UNL     1       3.942   4.134  18.620  0.00  0.00    +0.000 N 
ATOM      8  C   UNL     1       3.583   4.713  19.924  0.00  0.00    +0.000 C 
ATOM      9  C   UNL     1       2.424   3.966  20.618  0.00  0.00    +0.000 C 
ATOM     10  C   UNL     1       1.056   4.183  19.951  0.00  0.00    +0.000 C 
ATOM     11  O   UNL     1       0.975   3.593  18.649  0.00  0.00    +0.000 OA
ATOM     12  C   UNL     1       1.365   2.215  18.696  0.00  0.00    +0.000 C 
ATOM     13  C   UNL     1       2.741   2.028  19.349  0.00  0.00    +0.000 C 
ATOM     14  C   UNL     1       3.897   2.654  18.544  0.00  0.00    +0.000 C 
ATOM     15  O   UNL     1       2.715   2.554  20.692  0.00  0.00    +0.000 OA
ENDBRANCH   5   7
BRANCH   1  16
ATOM     16  O   UNL     1       6.724   4.306  14.811  0.00  0.00    +0.000 OA
BRANCH  16  17
ATOM     17  C   UNL     1       5.543   4.075  14.034  0.00  0.00    +0.000 C 
BRANCH  17  19
ATOM     18  C   UNL     1       4.691   3.367  11.789  0.00  0.00    +0.000 C 
ATOM     19  C   UNL     1       5.911   3.399  12.708  0.00  0.00    +0.000 C 
ATOM     20  C   UNL     1       7.083   4.100  12.019  0.00  0.00    +0.000 C 
ENDBRANCH  17  19
ENDBRANCH  16  17
ENDBRANCH   1  16
TORSDOF 4
ENDMDL
MODEL 9
REMARK VINA RESULT:      -7.2      0.723      1.063
REMARK  Name = 
REMARK  6 active torsions:
REMARK  status: ('A' for Active; 'I' for Inactive)
REMARK    1  A    between atoms: C_1  and  C_2
REMARK    2  A    between atoms: C_2  and  C_3
REMARK    3  A    between atoms: C_2  and  C_4
REMARK    4  A    between atoms: C_4  and  O_5
REMARK    5  A    between atoms: O_5  and  C_6
REMARK    6  A    between atoms: C_10  and  N_11
REMARK                            x       y       z     vdW  Elec       q    Type
REMARK                         _______ _______ _______ _____ _____    ______ ____
ROOT
ATOM      1  C   UNL     1       6.286   4.111  14.827  0.00  0.00    +0.000 A 
ATOM      2  C   UNL     1       7.230   5.082  15.101  0.00  0.00    +0.000 A 
ATOM      3  N   UNL     1       7.208   5.793  16.248  0.00  0.00    +0.000 NA
ATOM      4  C   UNL     1       6.200   5.465  17.104  0.00  0.00    +0.000 A 
ATOM      5  C   UNL     1       5.252   4.458  16.873  0.00  0.00    +0.000 A 
ATOM      6  N   UNL     1       5.305   3.789  15.699  0.00  0.00    +0.000 NA
ENDROOT
BRANCH   5   7
ATOM      7  N   UNL     1       4.234   4.119  17.780  0.00  0.00    +0.000 N 
ATOM      8  C   UNL     1       4.285   4.737  19.114  0.00  0.00    +0.000 C 
ATOM      9  C   UNL     1       3.202   4.198  20.072  0.00  0.00    +0.000 C 
ATOM     10  C   UNL     1       1.778   4.662  19.723  0.00  0.00    +0.000 C 
ATOM     11  O   UNL     1       1.302   4.111  18.490  0.00  0.00    +0.000 OA
ATOM     12  C   UNL     1       1.445   2.686  18.488  0.00  0.00    +0.000 C 
ATOM     13  C   UNL     1       2.878   2.250  18.821  0.00  0.00    +0.000 C 
ATOM     14  C   UNL     1       3.914   2.671  17.759  0.00  0.00    +0.000 C 
ATOM     15  O   UNL     1       3.249   2.757  20.120  0.00  0.00    +0.000 OA
ENDBRANCH   5   7
BRANCH   1  16
ATOM     16  O   UNL     1       6.370   3.433  13.628  0.00  0.00    +0.000 OA
BRANCH  16  17
ATOM     17  C   UNL     1       5.460   3.967  12.659  0.00  0.00    +0.000 C 
BRANCH  17  19
ATOM     18  C   UNL     1       3.896   3.401  10.787  0.00  0.00    +0.000 C 
ATOM     19  C   UNL     1       4.777   2.826  11.896  0.00  0.00    +0.000 C 
ATOM     20  C   UNL     1       5.794   1.842  11.316  0.00  0.00    +0.000 C 
ENDBRANCH  17  19
ENDBRANCH  16  17
ENDBRANCH   1  16
TORSDOF 4
ENDMDL
