MODEL 1
REMARK VINA RESULT:      -8.2      0.000      0.000
REMARK  Name = 
REMARK  12 active torsions:
REMARK  status: ('A' for Active; 'I' for Inactive)
REMARK    1  A    between atoms: P_2  and  O_3
REMARK    2  A    between atoms: P_2  and  O_4
REMARK    3  A    between atoms: P_2  and  C_5
REMARK    4  A    between atoms: C_5  and  P_6
REMARK    5  A    between atoms: P_6  and  O_8
REMARK    6  A    between atoms: P_6  and  O_9
REMARK    7  A    between atoms: O_9  and  C_10
REMARK    8  A    between atoms: C_10  and  C_11
REMARK    9  A    between atoms: C_13  and  N_14
REMARK   10  A    between atoms: N_19  and  C_20
REMARK   11  A    between atoms: C_28  and  O_29
REMARK   12  A    between atoms: C_30  and  O_31
REMARK                            x       y       z     vdW  Elec       q    Type
REMARK                         _______ _______ _______ _____ _____    ______ ____
ROOT
ATOM      1  C   UNL     1       4.182   4.203  18.883  0.00  0.00    +0.000 C 
ATOM      2  O   UNL     1       4.073   5.567  19.357  0.00  0.00    +0.000 OA
ATOM      3  C   UNL     1       2.720   5.813  19.823  0.00  0.00    +0.000 C 
ATOM      4  C   UNL     1       1.871   4.613  19.405  0.00  0.00    +0.000 C 
ATOM      5  C   UNL     1       2.911   3.501  19.392  0.00  0.00    +0.000 C 
ENDROOT
BRANCH   3   6
ATOM      6  N   UNL     1       2.263   7.077  19.284  0.00  0.00    +0.000 N 
ATOM      7  C   UNL     1       2.439   7.532  18.005  0.00  0.00    +0.000 A 
ATOM      8  N   UNL     1       1.949   8.742  17.841  0.00  0.00    +0.000 NA
ATOM      9  C   UNL     1       1.446   9.093  19.077  0.00  0.00    +0.000 A 
ATOM     10  C   UNL     1       0.835  10.272  19.548  0.00  0.00    +0.000 A 
ATOM     11  N   UNL     1       0.672  11.377  18.706  0.00  0.00    +0.000 N 
ATOM     12  N   UNL     1       0.429  10.298  20.844  0.00  0.00    +0.000 NA
ATOM     13  C   UNL     1       0.646   9.212  21.601  0.00  0.00    +0.000 A 
ATOM     14 CL   UNL     1       0.097   9.323  23.221  0.00  0.00    +0.000 Cl
ATOM     15  N   UNL     1       1.246   8.047  21.274  0.00  0.00    +0.000 NA
ATOM     16  C   UNL     1       1.619   8.058  19.986  0.00  0.00    +0.000 A 
ATOM     17  H   UNL     1       0.862  11.166  17.730  0.00  0.00    +0.000 HD
BRANCH  11  18
ATOM     18  C   UNL     1      -0.089  12.547  19.113  0.00  0.00    +0.000 C 
ATOM     19  C   UNL     1       0.602  13.769  19.639  0.00  0.00    +0.000 C 
ATOM     20  C   UNL     1      -0.044  13.802  18.287  0.00  0.00    +0.000 C 
ENDBRANCH  11  18
ENDBRANCH   3   6
BRANCH   4  21
ATOM     21  O   UNL     1       0.800   4.334  20.304  0.00  0.00    +0.000 OA
ATOM     22  H   UNL     1       0.393   3.488  20.024  0.00  0.00    +0.000 HD
ENDBRANCH   4  21
BRANCH   5  23
ATOM     23  O   UNL     1       3.066   3.033  20.750  0.00  0.00    +0.000 OA
ATOM     24  H   UNL     1       2.240   2.608  21.046  0.00  0.00    +0.000 HD
ENDBRANCH   5  23
BRANCH   1  25
ATOM     25  C   UNL     1       4.354   4.184  17.339  0.00  0.00    +0.000 C 
BRANCH  25  26
ATOM     26  O   UNL     1       5.739   4.111  16.913  0.00  0.00    +0.000 OA
BRANCH  26  27
ATOM     27  P   UNL     1       6.319   5.429  16.146  0.00  0.00    +0.000 P 
ATOM     28  O   UNL     1       5.321   6.129  15.281  0.00  0.00    +0.000 OA
BRANCH  27  29
ATOM     29  O   UNL     1       7.532   4.783  15.303  0.00  0.00    +0.000 OA
ATOM     30  H   UNL     1       7.782   3.873  15.569  0.00  0.00    +0.000 HD
ENDBRANCH  27  29
BRANCH  27  31
ATOM     31  C   UNL     1       7.154   6.557  17.327  0.00  0.00    +0.000 C 
BRANCH  31  33
ATOM     32  O   UNL     1       7.610   5.251  20.410  0.00  0.00    +0.000 OA
ATOM     33  P   UNL     1       7.401   5.850  18.998  0.00  0.00    +0.000 P 
BRANCH  33  34
ATOM     34  O   UNL     1       8.688   6.869  19.158  0.00  0.00    +0.000 OA
ATOM     35  H   UNL     1       9.491   6.314  19.045  0.00  0.00    +0.000 HD
ENDBRANCH  33  34
BRANCH  33  36
ATOM     36  O   UNL     1       8.227   4.626  18.281  0.00  0.00    +0.000 OA
ATOM     37  H   UNL     1       9.156   4.915  18.162  0.00  0.00    +0.000 HD
ENDBRANCH  33  36
ENDBRANCH  31  33
ENDBRANCH  27  31
ENDBRANCH  26  27
ENDBRANCH  25  26
ENDBRANCH   1  25
TORSDOF 12
ENDMDL
MODEL 2
REMARK VINA RESULT:      -8.1      0.889      1.115
REMARK  Name = 
REMARK  12 active torsions:
REMARK  status: ('A' for Active; 'I' for Inactive)
REMARK    1  A    between atoms: P_2  and  O_3
REMARK    2  A    between atoms: P_2  and  O_4
REMARK    3  A    between atoms: P_2  and  C_5
REMARK    4  A    between atoms: C_5  and  P_6
REMARK    5  A    between atoms: P_6  and  O_8
REMARK    6  A    between atoms: P_6  and  O_9
REMARK    7  A    between atoms: O_9  and  C_10
REMARK    8  A    between atoms: C_10  and  C_11
REMARK    9  A    between atoms: C_13  and  N_14
REMARK   10  A    between atoms: N_19  and  C_20
REMARK   11  A    between atoms: C_28  and  O_29
REMARK   12  A    between atoms: C_30  and  O_31
REMARK                            x       y       z     vdW  Elec       q    Type
REMARK                         _______ _______ _______ _____ _____    ______ ____
ROOT
ATOM      1  C   UNL     1       4.038   3.922  18.726  0.00  0.00    +0.000 C 
ATOM      2  O   UNL     1       4.146   5.319  19.096  0.00  0.00    +0.000 OA
ATOM      3  C   UNL     1       2.910   5.751  19.723  0.00  0.00    +0.000 C 
ATOM      4  C   UNL     1       1.886   4.633  19.527  0.00  0.00    +0.000 C 
ATOM      5  C   UNL     1       2.789   3.409  19.462  0.00  0.00    +0.000 C 
ENDROOT
BRANCH   3   6
ATOM      6  N   UNL     1       2.515   7.021  19.150  0.00  0.00    +0.000 N 
ATOM      7  C   UNL     1       2.879   7.514  17.926  0.00  0.00    +0.000 A 
ATOM      8  N   UNL     1       2.394   8.720  17.717  0.00  0.00    +0.000 NA
ATOM      9  C   UNL     1       1.698   9.027  18.867  0.00  0.00    +0.000 A 
ATOM     10  C   UNL     1       0.995  10.182  19.266  0.00  0.00    +0.000 A 
ATOM     11  N   UNL     1       0.942  11.307  18.435  0.00  0.00    +0.000 N 
ATOM     12  N   UNL     1       0.392  10.166  20.482  0.00  0.00    +0.000 NA
ATOM     13  C   UNL     1       0.512   9.064  21.237  0.00  0.00    +0.000 A 
ATOM     14 CL   UNL     1      -0.285   9.120  22.754  0.00  0.00    +0.000 Cl
ATOM     15  N   UNL     1       1.180   7.919  20.980  0.00  0.00    +0.000 NA
ATOM     16  C   UNL     1       1.749   7.972  19.767  0.00  0.00    +0.000 A 
ATOM     17  H   UNL     1       1.286  11.126  17.496  0.00  0.00    +0.000 HD
BRANCH  11  18
ATOM     18  C   UNL     1       0.102  12.452  18.746  0.00  0.00    +0.000 C 
ATOM     19  C   UNL     1       0.444  13.371  19.881  0.00  0.00    +0.000 C 
ATOM     20  C   UNL     1       0.590  13.845  18.466  0.00  0.00    +0.000 C 
ENDBRANCH  11  18
ENDBRANCH   3   6
BRANCH   4  21
ATOM     21  O   UNL     1       0.935   4.542  20.585  0.00  0.00    +0.000 OA
ATOM     22  H   UNL     1       0.076   4.288  20.188  0.00  0.00    +0.000 HD
ENDBRANCH   4  21
BRANCH   5  23
ATOM     23  O   UNL     1       3.091   3.018  20.819  0.00  0.00    +0.000 OA
ATOM     24  H   UNL     1       4.058   2.982  20.941  0.00  0.00    +0.000 HD
ENDBRANCH   5  23
BRANCH   1  25
ATOM     25  C   UNL     1       3.980   3.782  17.180  0.00  0.00    +0.000 C 
BRANCH  25  26
ATOM     26  O   UNL     1       4.630   4.871  16.475  0.00  0.00    +0.000 OA
BRANCH  26  27
ATOM     27  P   UNL     1       6.184   4.616  16.050  0.00  0.00    +0.000 P 
ATOM     28  O   UNL     1       6.715   5.586  15.042  0.00  0.00    +0.000 OA
BRANCH  27  29
ATOM     29  O   UNL     1       6.102   3.108  15.482  0.00  0.00    +0.000 OA
ATOM     30  H   UNL     1       6.885   2.817  14.969  0.00  0.00    +0.000 HD
ENDBRANCH  27  29
BRANCH  27  31
ATOM     31  C   UNL     1       7.252   4.473  17.533  0.00  0.00    +0.000 C 
BRANCH  31  33
ATOM     32  O   UNL     1       8.203   7.434  18.852  0.00  0.00    +0.000 OA
ATOM     33  P   UNL     1       7.768   6.077  18.249  0.00  0.00    +0.000 P 
BRANCH  33  34
ATOM     34  O   UNL     1       7.158   5.548  19.686  0.00  0.00    +0.000 OA
ATOM     35  H   UNL     1       6.190   5.444  19.551  0.00  0.00    +0.000 HD
ENDBRANCH  33  34
BRANCH  33  36
ATOM     36  O   UNL     1       6.363   6.705  17.676  0.00  0.00    +0.000 OA
ATOM     37  H   UNL     1       5.653   6.048  17.828  0.00  0.00    +0.000 HD
ENDBRANCH  33  36
ENDBRANCH  31  33
ENDBRANCH  27  31
ENDBRANCH  26  27
ENDBRANCH  25  26
ENDBRANCH   1  25
TORSDOF 12
ENDMDL
MODEL 3
REMARK VINA RESULT:      -7.6      1.066      2.364
REMARK  Name = 
REMARK  12 active torsions:
REMARK  status: ('A' for Active; 'I' for Inactive)
REMARK    1  A    between atoms: P_2  and  O_3
REMARK    2  A    between atoms: P_2  and  O_4
REMARK    3  A    between atoms: P_2  and  C_5
REMARK    4  A    between atoms: C_5  and  P_6
REMARK    5  A    between atoms: P_6  and  O_8
REMARK    6  A    between atoms: P_6  and  O_9
REMARK    7  A    between atoms: O_9  and  C_10
REMARK    8  A    between atoms: C_10  and  C_11
REMARK    9  A    between atoms: C_13  and  N_14
REMARK   10  A    between atoms: N_19  and  C_20
REMARK   11  A    between atoms: C_28  and  O_29
REMARK   12  A    between atoms: C_30  and  O_31
REMARK                            x       y       z     vdW  Elec       q    Type
REMARK                         _______ _______ _______ _____ _____    ______ ____
ROOT
ATOM      1  C   UNL     1       4.183   3.908  19.551  0.00  0.00    +0.000 C 
ATOM      2  O   UNL     1       3.991   5.281  19.972  0.00  0.00    +0.000 OA
ATOM      3  C   UNL     1       2.575   5.538  20.162  0.00  0.00    +0.000 C 
ATOM      4  C   UNL     1       1.817   4.333  19.606  0.00  0.00    +0.000 C 
ATOM      5  C   UNL     1       2.834   3.218  19.814  0.00  0.00    +0.000 C 
ENDROOT
BRANCH   3   6
ATOM      6  N   UNL     1       2.239   6.793  19.523  0.00  0.00    +0.000 N 
ATOM      7  C   UNL     1       2.499   7.146  18.227  0.00  0.00    +0.000 A 
ATOM      8  N   UNL     1       2.111   8.376  17.964  0.00  0.00    +0.000 NA
ATOM      9  C   UNL     1       1.590   8.846  19.152  0.00  0.00    +0.000 A 
ATOM     10  C   UNL     1       1.054  10.097  19.519  0.00  0.00    +0.000 A 
ATOM     11  N   UNL     1       1.011  11.152  18.600  0.00  0.00    +0.000 N 
ATOM     12  N   UNL     1       0.602  10.241  20.791  0.00  0.00    +0.000 NA
ATOM     13  C   UNL     1       0.705   9.196  21.625  0.00  0.00    +0.000 A 
ATOM     14 CL   UNL     1       0.105   9.456  23.209  0.00  0.00    +0.000 Cl
ATOM     15  N   UNL     1       1.225   7.969  21.400  0.00  0.00    +0.000 NA
ATOM     16  C   UNL     1       1.646   7.865  20.132  0.00  0.00    +0.000 A 
ATOM     17  H   UNL     1       1.221  10.862  17.649  0.00  0.00    +0.000 HD
BRANCH  11  18
ATOM     18  C   UNL     1       0.328  12.400  18.898  0.00  0.00    +0.000 C 
ATOM     19  C   UNL     1       0.945  13.415  19.812  0.00  0.00    +0.000 C 
ATOM     20  C   UNL     1       0.848  13.696  18.343  0.00  0.00    +0.000 C 
ENDBRANCH  11  18
ENDBRANCH   3   6
BRANCH   4  21
ATOM     21  O   UNL     1       0.589   4.072  20.284  0.00  0.00    +0.000 OA
ATOM     22  H   UNL     1      -0.119   4.545  19.801  0.00  0.00    +0.000 HD
ENDBRANCH   4  21
BRANCH   5  23
ATOM     23  O   UNL     1       2.719   2.774  21.184  0.00  0.00    +0.000 OA
ATOM     24  H   UNL     1       1.923   2.219  21.282  0.00  0.00    +0.000 HD
ENDBRANCH   5  23
BRANCH   1  25
ATOM     25  C   UNL     1       4.653   3.863  18.071  0.00  0.00    +0.000 C 
BRANCH  25  26
ATOM     26  O   UNL     1       5.071   5.154  17.558  0.00  0.00    +0.000 OA
BRANCH  26  27
ATOM     27  P   UNL     1       6.678   5.434  17.558  0.00  0.00    +0.000 P 
ATOM     28  O   UNL     1       7.386   4.964  18.788  0.00  0.00    +0.000 OA
BRANCH  27  29
ATOM     29  O   UNL     1       6.709   7.038  17.394  0.00  0.00    +0.000 OA
ATOM     30  H   UNL     1       7.403   7.380  16.791  0.00  0.00    +0.000 HD
ENDBRANCH  27  29
BRANCH  27  31
ATOM     31  C   UNL     1       7.448   4.818  16.012  0.00  0.00    +0.000 C 
BRANCH  31  33
ATOM     32  O   UNL     1       5.255   4.208  13.515  0.00  0.00    +0.000 OA
ATOM     33  P   UNL     1       6.261   4.487  14.658  0.00  0.00    +0.000 P 
BRANCH  33  34
ATOM     34  O   UNL     1       7.390   5.090  13.619  0.00  0.00    +0.000 OA
ATOM     35  H   UNL     1       7.685   4.333  13.066  0.00  0.00    +0.000 HD
ENDBRANCH  33  34
BRANCH  33  36
ATOM     36  O   UNL     1       5.558   5.926  15.018  0.00  0.00    +0.000 OA
ATOM     37  H   UNL     1       4.828   6.076  14.381  0.00  0.00    +0.000 HD
ENDBRANCH  33  36
ENDBRANCH  31  33
ENDBRANCH  27  31
ENDBRANCH  26  27
ENDBRANCH  25  26
ENDBRANCH   1  25
TORSDOF 12
ENDMDL
MODEL 4
REMARK VINA RESULT:      -7.5      1.533      2.547
REMARK  Name = 
REMARK  12 active torsions:
REMARK  status: ('A' for Active; 'I' for Inactive)
REMARK    1  A    between atoms: P_2  and  O_3
REMARK    2  A    between atoms: P_2  and  O_4
REMARK    3  A    between atoms: P_2  and  C_5
REMARK    4  A    between atoms: C_5  and  P_6
REMARK    5  A    between atoms: P_6  and  O_8
REMARK    6  A    between atoms: P_6  and  O_9
REMARK    7  A    between atoms: O_9  and  C_10
REMARK    8  A    between atoms: C_10  and  C_11
REMARK    9  A    between atoms: C_13  and  N_14
REMARK   10  A    between atoms: N_19  and  C_20
REMARK   11  A    between atoms: C_28  and  O_29
REMARK   12  A    between atoms: C_30  and  O_31
REMARK                            x       y       z     vdW  Elec       q    Type
REMARK                         _______ _______ _______ _____ _____    ______ ____
ROOT
ATOM      1  C   UNL     1       4.323   4.326  19.748  0.00  0.00    +0.000 C 
ATOM      2  O   UNL     1       3.493   5.467  20.076  0.00  0.00    +0.000 OA
ATOM      3  C   UNL     1       2.405   5.568  19.120  0.00  0.00    +0.000 C 
ATOM      4  C   UNL     1       2.698   4.577  17.993  0.00  0.00    +0.000 C 
ATOM      5  C   UNL     1       3.502   3.515  18.731  0.00  0.00    +0.000 C 
ENDROOT
BRANCH   3   6
ATOM      6  N   UNL     1       2.294   6.943  18.683  0.00  0.00    +0.000 N 
ATOM      7  C   UNL     1       2.739   7.463  17.498  0.00  0.00    +0.000 A 
ATOM      8  N   UNL     1       2.532   8.761  17.420  0.00  0.00    +0.000 NA
ATOM      9  C   UNL     1       1.938   9.098  18.619  0.00  0.00    +0.000 A 
ATOM     10  C   UNL     1       1.515  10.334  19.148  0.00  0.00    +0.000 A 
ATOM     11  N   UNL     1       1.701  11.520  18.429  0.00  0.00    +0.000 N 
ATOM     12  N   UNL     1       0.942  10.330  20.379  0.00  0.00    +0.000 NA
ATOM     13  C   UNL     1       0.826   9.159  21.023  0.00  0.00    +0.000 A 
ATOM     14 CL   UNL     1       0.084   9.238  22.566  0.00  0.00    +0.000 Cl
ATOM     15  N   UNL     1       1.219   7.927  20.636  0.00  0.00    +0.000 NA
ATOM     16  C   UNL     1       1.767   7.973  19.413  0.00  0.00    +0.000 A 
ATOM     17  H   UNL     1       1.983  11.362  17.465  0.00  0.00    +0.000 HD
BRANCH  11  18
ATOM     18  C   UNL     1       1.141  12.784  18.876  0.00  0.00    +0.000 C 
ATOM     19  C   UNL     1       1.867  13.638  19.872  0.00  0.00    +0.000 C 
ATOM     20  C   UNL     1       1.764  14.082  18.443  0.00  0.00    +0.000 C 
ENDBRANCH  11  18
ENDBRANCH   3   6
BRANCH   4  21
ATOM     21  O   UNL     1       1.523   4.038  17.391  0.00  0.00    +0.000 OA
ATOM     22  H   UNL     1       1.280   3.232  17.891  0.00  0.00    +0.000 HD
ENDBRANCH   4  21
BRANCH   5  23
ATOM     23  O   UNL     1       2.562   2.633  19.385  0.00  0.00    +0.000 OA
ATOM     24  H   UNL     1       1.893   3.161  19.857  0.00  0.00    +0.000 HD
ENDBRANCH   5  23
BRANCH   1  25
ATOM     25  C   UNL     1       5.706   4.803  19.226  0.00  0.00    +0.000 C 
BRANCH  25  26
ATOM     26  O   UNL     1       5.625   5.942  18.330  0.00  0.00    +0.000 OA
BRANCH  26  27
ATOM     27  P   UNL     1       6.455   5.808  16.932  0.00  0.00    +0.000 P 
ATOM     28  O   UNL     1       7.621   4.875  16.993  0.00  0.00    +0.000 OA
BRANCH  27  29
ATOM     29  O   UNL     1       6.893   7.341  16.689  0.00  0.00    +0.000 OA
ATOM     30  H   UNL     1       6.703   7.949  17.435  0.00  0.00    +0.000 HD
ENDBRANCH  27  29
BRANCH  27  31
ATOM     31  C   UNL     1       5.324   5.445  15.534  0.00  0.00    +0.000 C 
BRANCH  31  33
ATOM     32  O   UNL     1       6.724   3.634  13.049  0.00  0.00    +0.000 OA
ATOM     33  P   UNL     1       6.082   4.463  14.188  0.00  0.00    +0.000 P 
BRANCH  33  34
ATOM     34  O   UNL     1       6.323   3.266  15.296  0.00  0.00    +0.000 OA
ATOM     35  H   UNL     1       7.207   2.885  15.099  0.00  0.00    +0.000 HD
ENDBRANCH  33  34
BRANCH  33  36
ATOM     36  O   UNL     1       7.482   5.268  14.483  0.00  0.00    +0.000 OA
ATOM     37  H   UNL     1       7.653   5.237  15.448  0.00  0.00    +0.000 HD
ENDBRANCH  33  36
ENDBRANCH  31  33
ENDBRANCH  27  31
ENDBRANCH  26  27
ENDBRANCH  25  26
ENDBRANCH   1  25
TORSDOF 12
ENDMDL
MODEL 5
REMARK VINA RESULT:      -7.5      1.155      1.472
REMARK  Name = 
REMARK  12 active torsions:
REMARK  status: ('A' for Active; 'I' for Inactive)
REMARK    1  A    between atoms: P_2  and  O_3
REMARK    2  A    between atoms: P_2  and  O_4
REMARK    3  A    between atoms: P_2  and  C_5
REMARK    4  A    between atoms: C_5  and  P_6
REMARK    5  A    between atoms: P_6  and  O_8
REMARK    6  A    between atoms: P_6  and  O_9
REMARK    7  A    between atoms: O_9  and  C_10
REMARK    8  A    between atoms: C_10  and  C_11
REMARK    9  A    between atoms: C_13  and  N_14
REMARK   10  A    between atoms: N_19  and  C_20
REMARK   11  A    between atoms: C_28  and  O_29
REMARK   12  A    between atoms: C_30  and  O_31
REMARK                            x       y       z     vdW  Elec       q    Type
REMARK                         _______ _______ _______ _____ _____    ______ ____
ROOT
ATOM      1  C   UNL     1       3.730   3.272  19.341  0.00  0.00    +0.000 C 
ATOM      2  O   UNL     1       3.883   4.669  19.691  0.00  0.00    +0.000 OA
ATOM      3  C   UNL     1       2.594   5.217  20.077  0.00  0.00    +0.000 C 
ATOM      4  C   UNL     1       1.535   4.172  19.729  0.00  0.00    +0.000 C 
ATOM      5  C   UNL     1       2.334   2.882  19.855  0.00  0.00    +0.000 C 
ENDROOT
BRANCH   3   6
ATOM      6  N   UNL     1       2.410   6.489  19.413  0.00  0.00    +0.000 N 
ATOM      7  C   UNL     1       2.848   6.830  18.161  0.00  0.00    +0.000 A 
ATOM      8  N   UNL     1       2.565   8.080  17.863  0.00  0.00    +0.000 NA
ATOM      9  C   UNL     1       1.926   8.576  18.981  0.00  0.00    +0.000 A 
ATOM     10  C   UNL     1       1.419   9.854  19.290  0.00  0.00    +0.000 A 
ATOM     11  N   UNL     1       1.548  10.911  18.382  0.00  0.00    +0.000 N 
ATOM     12  N   UNL     1       0.821  10.021  20.497  0.00  0.00    +0.000 NA
ATOM     13  C   UNL     1       0.762   8.970  21.328  0.00  0.00    +0.000 A 
ATOM     14 CL   UNL     1      -0.016   9.261  22.828  0.00  0.00    +0.000 Cl
ATOM     15  N   UNL     1       1.237   7.717  21.160  0.00  0.00    +0.000 NA
ATOM     16  C   UNL     1       1.806   7.592  19.953  0.00  0.00    +0.000 A 
ATOM     17  H   UNL     1       1.859  10.612  17.462  0.00  0.00    +0.000 HD
BRANCH  11  18
ATOM     18  C   UNL     1       0.903  12.195  18.603  0.00  0.00    +0.000 C 
ATOM     19  C   UNL     1       1.414  13.143  19.647  0.00  0.00    +0.000 C 
ATOM     20  C   UNL     1       1.593  13.467  18.194  0.00  0.00    +0.000 C 
ENDBRANCH  11  18
ENDBRANCH   3   6
BRANCH   4  21
ATOM     21  O   UNL     1       0.408   4.191  20.603  0.00  0.00    +0.000 OA
ATOM     22  H   UNL     1       0.660   4.711  21.395  0.00  0.00    +0.000 HD
ENDBRANCH   4  21
BRANCH   5  23
ATOM     23  O   UNL     1       2.361   2.521  21.254  0.00  0.00    +0.000 OA
ATOM     24  H   UNL     1       1.714   1.810  21.420  0.00  0.00    +0.000 HD
ENDBRANCH   5  23
BRANCH   1  25
ATOM     25  C   UNL     1       3.933   3.077  17.814  0.00  0.00    +0.000 C 
BRANCH  25  26
ATOM     26  O   UNL     1       3.966   4.324  17.071  0.00  0.00    +0.000 OA
BRANCH  26  27
ATOM     27  P   UNL     1       5.411   4.735  16.435  0.00  0.00    +0.000 P 
ATOM     28  O   UNL     1       5.329   5.661  15.264  0.00  0.00    +0.000 OA
BRANCH  27  29
ATOM     29  O   UNL     1       5.996   3.283  16.043  0.00  0.00    +0.000 OA
ATOM     30  H   UNL     1       6.381   3.222  15.143  0.00  0.00    +0.000 HD
ENDBRANCH  27  29
BRANCH  27  31
ATOM     31  C   UNL     1       6.553   5.334  17.739  0.00  0.00    +0.000 C 
BRANCH  31  33
ATOM     32  O   UNL     1       7.503   8.557  17.385  0.00  0.00    +0.000 OA
ATOM     33  P   UNL     1       7.068   7.080  17.546  0.00  0.00    +0.000 P 
BRANCH  33  34
ATOM     34  O   UNL     1       7.915   6.606  16.214  0.00  0.00    +0.000 OA
ATOM     35  H   UNL     1       7.360   6.841  15.438  0.00  0.00    +0.000 HD
ENDBRANCH  33  34
BRANCH  33  36
ATOM     36  O   UNL     1       8.257   6.776  18.636  0.00  0.00    +0.000 OA
ATOM     37  H   UNL     1       8.822   6.060  18.277  0.00  0.00    +0.000 HD
ENDBRANCH  33  36
ENDBRANCH  31  33
ENDBRANCH  27  31
ENDBRANCH  26  27
ENDBRANCH  25  26
ENDBRANCH   1  25
TORSDOF 12
ENDMDL
MODEL 6
REMARK VINA RESULT:      -7.4      5.596      8.808
REMARK  Name = 
REMARK  12 active torsions:
REMARK  status: ('A' for Active; 'I' for Inactive)
REMARK    1  A    between atoms: P_2  and  O_3
REMARK    2  A    between atoms: P_2  and  O_4
REMARK    3  A    between atoms: P_2  and  C_5
REMARK    4  A    between atoms: C_5  and  P_6
REMARK    5  A    between atoms: P_6  and  O_8
REMARK    6  A    between atoms: P_6  and  O_9
REMARK    7  A    between atoms: O_9  and  C_10
REMARK    8  A    between atoms: C_10  and  C_11
REMARK    9  A    between atoms: C_13  and  N_14
REMARK   10  A    between atoms: N_19  and  C_20
REMARK   11  A    between atoms: C_28  and  O_29
REMARK   12  A    between atoms: C_30  and  O_31
REMARK                            x       y       z     vdW  Elec       q    Type
REMARK                         _______ _______ _______ _____ _____    ______ ____
ROOT
ATOM      1  C   UNL     1      -0.878  10.150  21.245  0.00  0.00    +0.000 C 
ATOM      2  O   UNL     1      -0.504   8.870  20.681  0.00  0.00    +0.000 OA
ATOM      3  C   UNL     1       0.785   8.464  21.210  0.00  0.00    +0.000 C 
ATOM      4  C   UNL     1       1.362   9.659  21.968  0.00  0.00    +0.000 C 
ATOM      5  C   UNL     1       0.091  10.367  22.420  0.00  0.00    +0.000 C 
ENDROOT
BRANCH   3   6
ATOM      6  N   UNL     1       1.614   8.002  20.116  0.00  0.00    +0.000 N 
ATOM      7  C   UNL     1       1.992   8.723  19.016  0.00  0.00    +0.000 A 
ATOM      8  N   UNL     1       2.706   8.004  18.177  0.00  0.00    +0.000 NA
ATOM      9  C   UNL     1       2.781   6.754  18.755  0.00  0.00    +0.000 A 
ATOM     10  C   UNL     1       3.373   5.549  18.326  0.00  0.00    +0.000 A 
ATOM     11  N   UNL     1       4.015   5.471  17.085  0.00  0.00    +0.000 N 
ATOM     12  N   UNL     1       3.282   4.473  19.150  0.00  0.00    +0.000 NA
ATOM     13  C   UNL     1       2.625   4.614  20.311  0.00  0.00    +0.000 A 
ATOM     14 CL   UNL     1       2.563   3.213  21.296  0.00  0.00    +0.000 Cl
ATOM     15  N   UNL     1       1.994   5.698  20.811  0.00  0.00    +0.000 NA
ATOM     16  C   UNL     1       2.119   6.739  19.975  0.00  0.00    +0.000 A 
ATOM     17  H   UNL     1       4.157   6.379  16.652  0.00  0.00    +0.000 HD
BRANCH  11  18
ATOM     18  C   UNL     1       4.765   4.293  16.682  0.00  0.00    +0.000 C 
ATOM     19  C   UNL     1       5.383   4.204  15.319  0.00  0.00    +0.000 C 
ATOM     20  C   UNL     1       6.258   4.366  16.526  0.00  0.00    +0.000 C 
ENDBRANCH  11  18
ENDBRANCH   3   6
BRANCH   4  21
ATOM     21  O   UNL     1       2.189   9.288  23.069  0.00  0.00    +0.000 OA
ATOM     22  H   UNL     1       2.601   8.427  22.850  0.00  0.00    +0.000 HD
ENDBRANCH   4  21
BRANCH   5  23
ATOM     23  O   UNL     1      -0.370   9.711  23.622  0.00  0.00    +0.000 OA
ATOM     24  H   UNL     1      -0.562  10.380  24.305  0.00  0.00    +0.000 HD
ENDBRANCH   5  23
BRANCH   1  25
ATOM     25  C   UNL     1      -0.825  11.253  20.153  0.00  0.00    +0.000 C 
BRANCH  25  26
ATOM     26  O   UNL     1      -2.052  11.368  19.386  0.00  0.00    +0.000 OA
BRANCH  26  27
ATOM     27  P   UNL     1      -1.924  11.067  17.788  0.00  0.00    +0.000 P 
ATOM     28  O   UNL     1      -1.008   9.936  17.444  0.00  0.00    +0.000 OA
BRANCH  27  29
ATOM     29  O   UNL     1      -1.387  12.490  17.252  0.00  0.00    +0.000 OA
ATOM     30  H   UNL     1      -0.946  13.047  17.928  0.00  0.00    +0.000 HD
ENDBRANCH  27  29
BRANCH  27  31
ATOM     31  C   UNL     1      -3.580  10.902  17.020  0.00  0.00    +0.000 C 
BRANCH  31  33
ATOM     32  O   UNL     1      -6.156  11.396  19.150  0.00  0.00    +0.000 OA
ATOM     33  P   UNL     1      -4.976  11.169  18.173  0.00  0.00    +0.000 P 
BRANCH  33  34
ATOM     34  O   UNL     1      -5.856  11.679  16.875  0.00  0.00    +0.000 OA
ATOM     35  H   UNL     1      -6.778  11.790  17.196  0.00  0.00    +0.000 HD
ENDBRANCH  33  34
BRANCH  33  36
ATOM     36  O   UNL     1      -4.313  12.629  18.527  0.00  0.00    +0.000 OA
ATOM     37  H   UNL     1      -4.441  12.797  19.484  0.00  0.00    +0.000 HD
ENDBRANCH  33  36
ENDBRANCH  31  33
ENDBRANCH  27  31
ENDBRANCH  26  27
ENDBRANCH  25  26
ENDBRANCH   1  25
TORSDOF 12
ENDMDL
MODEL 7
REMARK VINA RESULT:      -7.2      5.403      8.489
REMARK  Name = 
REMARK  12 active torsions:
REMARK  status: ('A' for Active; 'I' for Inactive)
REMARK    1  A    between atoms: P_2  and  O_3
REMARK    2  A    between atoms: P_2  and  O_4
REMARK    3  A    between atoms: P_2  and  C_5
REMARK    4  A    between atoms: C_5  and  P_6
REMARK    5  A    between atoms: P_6  and  O_8
REMARK    6  A    between atoms: P_6  and  O_9
REMARK    7  A    between atoms: O_9  and  C_10
REMARK    8  A    between atoms: C_10  and  C_11
REMARK    9  A    between atoms: C_13  and  N_14
REMARK   10  A    between atoms: N_19  and  C_20
REMARK   11  A    between atoms: C_28  and  O_29
REMARK   12  A    between atoms: C_30  and  O_31
REMARK                            x       y       z     vdW  Elec       q    Type
REMARK                         _______ _______ _______ _____ _____    ______ ____
ROOT
ATOM      1  C   UNL     1      -0.791   9.743  21.488  0.00  0.00    +0.000 C 
ATOM      2  O   UNL     1      -0.359   8.482  20.920  0.00  0.00    +0.000 OA
ATOM      3  C   UNL     1       0.990   8.185  21.366  0.00  0.00    +0.000 C 
ATOM      4  C   UNL     1       1.524   9.437  22.063  0.00  0.00    +0.000 C 
ATOM      5  C   UNL     1       0.236  10.057  22.589  0.00  0.00    +0.000 C 
ENDROOT
BRANCH   3   6
ATOM      6  N   UNL     1       1.777   7.763  20.226  0.00  0.00    +0.000 N 
ATOM      7  C   UNL     1       2.118   8.525  19.142  0.00  0.00    +0.000 A 
ATOM      8  N   UNL     1       2.798   7.836  18.250  0.00  0.00    +0.000 NA
ATOM      9  C   UNL     1       2.886   6.564  18.776  0.00  0.00    +0.000 A 
ATOM     10  C   UNL     1       3.455   5.374  18.279  0.00  0.00    +0.000 A 
ATOM     11  N   UNL     1       4.051   5.342  17.013  0.00  0.00    +0.000 N 
ATOM     12  N   UNL     1       3.387   4.267  19.063  0.00  0.00    +0.000 NA
ATOM     13  C   UNL     1       2.773   4.365  20.251  0.00  0.00    +0.000 A 
ATOM     14 CL   UNL     1       2.737   2.926  21.182  0.00  0.00    +0.000 Cl
ATOM     15  N   UNL     1       2.167   5.431  20.815  0.00  0.00    +0.000 NA
ATOM     16  C   UNL     1       2.268   6.504  20.017  0.00  0.00    +0.000 A 
ATOM     17  H   UNL     1       4.183   6.266  16.611  0.00  0.00    +0.000 HD
BRANCH  11  18
ATOM     18  C   UNL     1       4.779   4.177  16.538  0.00  0.00    +0.000 C 
ATOM     19  C   UNL     1       5.432   4.177  15.188  0.00  0.00    +0.000 C 
ATOM     20  C   UNL     1       6.277   4.217  16.426  0.00  0.00    +0.000 C 
ENDBRANCH  11  18
ENDBRANCH   3   6
BRANCH   4  21
ATOM     21  O   UNL     1       2.449   9.153  23.111  0.00  0.00    +0.000 OA
ATOM     22  H   UNL     1       3.350   9.230  22.736  0.00  0.00    +0.000 HD
ENDBRANCH   4  21
BRANCH   5  23
ATOM     23  O   UNL     1      -0.092   9.395  23.831  0.00  0.00    +0.000 OA
ATOM     24  H   UNL     1       0.535   9.673  24.524  0.00  0.00    +0.000 HD
ENDBRANCH   5  23
BRANCH   1  25
ATOM     25  C   UNL     1      -0.895  10.822  20.376  0.00  0.00    +0.000 C 
BRANCH  25  26
ATOM     26  O   UNL     1      -1.887  10.514  19.362  0.00  0.00    +0.000 OA
BRANCH  26  27
ATOM     27  P   UNL     1      -2.364  11.764  18.429  0.00  0.00    +0.000 P 
ATOM     28  O   UNL     1      -1.255  12.439  17.687  0.00  0.00    +0.000 OA
BRANCH  27  29
ATOM     29  O   UNL     1      -3.051  12.722  19.530  0.00  0.00    +0.000 OA
ATOM     30  H   UNL     1      -3.102  12.344  20.433  0.00  0.00    +0.000 HD
ENDBRANCH  27  29
BRANCH  27  31
ATOM     31  C   UNL     1      -3.755  11.273  17.340  0.00  0.00    +0.000 C 
BRANCH  31  33
ATOM     32  O   UNL     1      -2.825   9.551  14.586  0.00  0.00    +0.000 OA
ATOM     33  P   UNL     1      -3.251  10.339  15.848  0.00  0.00    +0.000 P 
BRANCH  33  34
ATOM     34  O   UNL     1      -1.995   9.744  16.735  0.00  0.00    +0.000 OA
ATOM     35  H   UNL     1      -1.881  10.358  17.494  0.00  0.00    +0.000 HD
ENDBRANCH  33  34
BRANCH  33  36
ATOM     36  O   UNL     1      -2.486  11.700  15.340  0.00  0.00    +0.000 OA
ATOM     37  H   UNL     1      -3.165  12.388  15.178  0.00  0.00    +0.000 HD
ENDBRANCH  33  36
ENDBRANCH  31  33
ENDBRANCH  27  31
ENDBRANCH  26  27
ENDBRANCH  25  26
ENDBRANCH   1  25
TORSDOF 12
ENDMDL
MODEL 8
REMARK VINA RESULT:      -7.2      1.090      2.460
REMARK  Name = 
REMARK  12 active torsions:
REMARK  status: ('A' for Active; 'I' for Inactive)
REMARK    1  A    between atoms: P_2  and  O_3
REMARK    2  A    between atoms: P_2  and  O_4
REMARK    3  A    between atoms: P_2  and  C_5
REMARK    4  A    between atoms: C_5  and  P_6
REMARK    5  A    between atoms: P_6  and  O_8
REMARK    6  A    between atoms: P_6  and  O_9
REMARK    7  A    between atoms: O_9  and  C_10
REMARK    8  A    between atoms: C_10  and  C_11
REMARK    9  A    between atoms: C_13  and  N_14
REMARK   10  A    between atoms: N_19  and  C_20
REMARK   11  A    between atoms: C_28  and  O_29
REMARK   12  A    between atoms: C_30  and  O_31
REMARK                            x       y       z     vdW  Elec       q    Type
REMARK                         _______ _______ _______ _____ _____    ______ ____
ROOT
ATOM      1  C   UNL     1       4.054   4.061  19.502  0.00  0.00    +0.000 C 
ATOM      2  O   UNL     1       3.894   5.423  19.971  0.00  0.00    +0.000 OA
ATOM      3  C   UNL     1       2.490   5.685  20.233  0.00  0.00    +0.000 C 
ATOM      4  C   UNL     1       1.697   4.502  19.679  0.00  0.00    +0.000 C 
ATOM      5  C   UNL     1       2.712   3.375  19.808  0.00  0.00    +0.000 C 
ENDROOT
BRANCH   3   6
ATOM      6  N   UNL     1       2.136   6.960  19.647  0.00  0.00    +0.000 N 
ATOM      7  C   UNL     1       2.373   7.363  18.360  0.00  0.00    +0.000 A 
ATOM      8  N   UNL     1       1.974   8.599  18.150  0.00  0.00    +0.000 NA
ATOM      9  C   UNL     1       1.469   9.021  19.362  0.00  0.00    +0.000 A 
ATOM     10  C   UNL     1       0.932  10.254  19.784  0.00  0.00    +0.000 A 
ATOM     11  N   UNL     1       0.867  11.342  18.906  0.00  0.00    +0.000 N 
ATOM     12  N   UNL     1       0.500  10.348  21.068  0.00  0.00    +0.000 NA
ATOM     13  C   UNL     1       0.622   9.273  21.861  0.00  0.00    +0.000 A 
ATOM     14 CL   UNL     1       0.046   9.471  23.463  0.00  0.00    +0.000 Cl
ATOM     15  N   UNL     1       1.146   8.060  21.583  0.00  0.00    +0.000 NA
ATOM     16  C   UNL     1       1.547   8.006  20.305  0.00  0.00    +0.000 A 
ATOM     17  H   UNL     1       1.063  11.089  17.942  0.00  0.00    +0.000 HD
BRANCH  11  18
ATOM     18  C   UNL     1       0.181  12.574  19.260  0.00  0.00    +0.000 C 
ATOM     19  C   UNL     1      -0.284  13.527  18.201  0.00  0.00    +0.000 C 
ATOM     20  C   UNL     1      -1.287  12.729  18.979  0.00  0.00    +0.000 C 
ENDBRANCH  11  18
ENDBRANCH   3   6
BRANCH   4  21
ATOM     21  O   UNL     1       0.500   4.231  20.406  0.00  0.00    +0.000 OA
ATOM     22  H   UNL     1       0.700   3.517  21.046  0.00  0.00    +0.000 HD
ENDBRANCH   4  21
BRANCH   5  23
ATOM     23  O   UNL     1       2.657   2.891  21.169  0.00  0.00    +0.000 OA
ATOM     24  H   UNL     1       3.503   3.076  21.616  0.00  0.00    +0.000 HD
ENDBRANCH   5  23
BRANCH   1  25
ATOM     25  C   UNL     1       4.454   4.055  18.001  0.00  0.00    +0.000 C 
BRANCH  25  26
ATOM     26  O   UNL     1       5.804   3.577  17.765  0.00  0.00    +0.000 OA
BRANCH  26  27
ATOM     27  P   UNL     1       6.889   4.706  17.309  0.00  0.00    +0.000 P 
ATOM     28  O   UNL     1       8.299   4.212  17.235  0.00  0.00    +0.000 OA
BRANCH  27  29
ATOM     29  O   UNL     1       6.676   5.816  18.459  0.00  0.00    +0.000 OA
ATOM     30  H   UNL     1       7.482   6.044  18.969  0.00  0.00    +0.000 HD
ENDBRANCH  27  29
BRANCH  27  31
ATOM     31  C   UNL     1       6.348   5.550  15.774  0.00  0.00    +0.000 C 
BRANCH  31  33
ATOM     32  O   UNL     1       6.552   3.643  12.993  0.00  0.00    +0.000 OA
ATOM     33  P   UNL     1       6.458   4.517  14.267  0.00  0.00    +0.000 P 
BRANCH  33  34
ATOM     34  O   UNL     1       4.810   4.549  14.214  0.00  0.00    +0.000 OA
ATOM     35  H   UNL     1       4.562   4.321  13.291  0.00  0.00    +0.000 HD
ENDBRANCH  33  34
BRANCH  33  36
ATOM     36  O   UNL     1       6.582   3.212  15.255  0.00  0.00    +0.000 OA
ATOM     37  H   UNL     1       7.084   2.518  14.779  0.00  0.00    +0.000 HD
ENDBRANCH  33  36
ENDBRANCH  31  33
ENDBRANCH  27  31
ENDBRANCH  26  27
ENDBRANCH  25  26
ENDBRANCH   1  25
TORSDOF 12
ENDMDL
MODEL 9
REMARK VINA RESULT:      -7.0      1.446      2.809
REMARK  Name = 
REMARK  12 active torsions:
REMARK  status: ('A' for Active; 'I' for Inactive)
REMARK    1  A    between atoms: P_2  and  O_3
REMARK    2  A    between atoms: P_2  and  O_4
REMARK    3  A    between atoms: P_2  and  C_5
REMARK    4  A    between atoms: C_5  and  P_6
REMARK    5  A    between atoms: P_6  and  O_8
REMARK    6  A    between atoms: P_6  and  O_9
REMARK    7  A    between atoms: O_9  and  C_10
REMARK    8  A    between atoms: C_10  and  C_11
REMARK    9  A    between atoms: C_13  and  N_14
REMARK   10  A    between atoms: N_19  and  C_20
REMARK   11  A    between atoms: C_28  and  O_29
REMARK   12  A    between atoms: C_30  and  O_31
REMARK                            x       y       z     vdW  Elec       q    Type
REMARK                         _______ _______ _______ _____ _____    ______ ____
ROOT
ATOM      1  C   UNL     1       4.227   4.181  18.462  0.00  0.00    +0.000 C 
ATOM      2  O   UNL     1       4.230   5.552  18.931  0.00  0.00    +0.000 OA
ATOM      3  C   UNL     1       2.954   5.854  19.555  0.00  0.00    +0.000 C 
ATOM      4  C   UNL     1       2.014   4.687  19.255  0.00  0.00    +0.000 C 
ATOM      5  C   UNL     1       3.001   3.534  19.128  0.00  0.00    +0.000 C 
ENDROOT
BRANCH   3   6
ATOM      6  N   UNL     1       2.485   7.132  19.062  0.00  0.00    +0.000 N 
ATOM      7  C   UNL     1       2.682   7.648  17.809  0.00  0.00    +0.000 A 
ATOM      8  N   UNL     1       2.172   8.855  17.688  0.00  0.00    +0.000 NA
ATOM      9  C   UNL     1       1.632   9.139  18.925  0.00  0.00    +0.000 A 
ATOM     10  C   UNL     1       0.986  10.284  19.433  0.00  0.00    +0.000 A 
ATOM     11  N   UNL     1       0.821  11.423  18.637  0.00  0.00    +0.000 N 
ATOM     12  N   UNL     1       0.549  10.244  20.718  0.00  0.00    +0.000 NA
ATOM     13  C   UNL     1       0.770   9.129  21.431  0.00  0.00    +0.000 A 
ATOM     14 CL   UNL     1       0.180   9.155  23.040  0.00  0.00    +0.000 Cl
ATOM     15  N   UNL     1       1.401   7.992  21.067  0.00  0.00    +0.000 NA
ATOM     16  C   UNL     1       1.804   8.068  19.791  0.00  0.00    +0.000 A 
ATOM     17  H   UNL     1       1.039  11.260  17.658  0.00  0.00    +0.000 HD
BRANCH  11  18
ATOM     18  C   UNL     1       0.027  12.558  19.077  0.00  0.00    +0.000 C 
ATOM     19  C   UNL     1      -0.286  13.686  18.141  0.00  0.00    +0.000 C 
ATOM     20  C   UNL     1      -1.373  12.744  18.564  0.00  0.00    +0.000 C 
ENDBRANCH  11  18
ENDBRANCH   3   6
BRANCH   4  21
ATOM     21  O   UNL     1       1.050   4.456  20.281  0.00  0.00    +0.000 OA
ATOM     22  H   UNL     1       1.335   4.960  21.071  0.00  0.00    +0.000 HD
ENDBRANCH   4  21
BRANCH   5  23
ATOM     23  O   UNL     1       3.302   3.068  20.463  0.00  0.00    +0.000 OA
ATOM     24  H   UNL     1       2.494   2.708  20.873  0.00  0.00    +0.000 HD
ENDBRANCH   5  23
BRANCH   1  25
ATOM     25  C   UNL     1       4.210   4.147  16.909  0.00  0.00    +0.000 C 
BRANCH  25  26
ATOM     26  O   UNL     1       5.444   3.651  16.328  0.00  0.00    +0.000 OA
BRANCH  26  27
ATOM     27  P   UNL     1       6.636   4.750  16.145  0.00  0.00    +0.000 P 
ATOM     28  O   UNL     1       7.830   4.515  17.015  0.00  0.00    +0.000 OA
BRANCH  27  29
ATOM     29  O   UNL     1       5.855   6.112  16.512  0.00  0.00    +0.000 OA
ATOM     30  H   UNL     1       5.415   6.554  15.754  0.00  0.00    +0.000 HD
ENDBRANCH  27  29
BRANCH  27  31
ATOM     31  C   UNL     1       7.072   4.953  14.376  0.00  0.00    +0.000 C 
BRANCH  31  33
ATOM     32  O   UNL     1       4.837   3.608  12.228  0.00  0.00    +0.000 OA
ATOM     33  P   UNL     1       5.861   4.223  13.213  0.00  0.00    +0.000 P 
BRANCH  33  34
ATOM     34  O   UNL     1       6.200   2.760  13.892  0.00  0.00    +0.000 OA
ATOM     35  H   UNL     1       7.102   2.518  13.585  0.00  0.00    +0.000 HD
ENDBRANCH  33  34
BRANCH  33  36
ATOM     36  O   UNL     1       7.062   4.187  12.094  0.00  0.00    +0.000 OA
ATOM     37  H   UNL     1       6.686   3.844  11.257  0.00  0.00    +0.000 HD
ENDBRANCH  33  36
ENDBRANCH  31  33
ENDBRANCH  27  31
ENDBRANCH  26  27
ENDBRANCH  25  26
ENDBRANCH   1  25
TORSDOF 12
ENDMDL
