MODEL 1
REMARK VINA RESULT:      -9.1      0.000      0.000
REMARK  Name = 
REMARK  5 active torsions:
REMARK  status: ('A' for Active; 'I' for Inactive)
REMARK    1  A    between atoms: C_2  and  C_15
REMARK    2  A    between atoms: N_3  and  C_4
REMARK    3  A    between atoms: C_4  and  C_5
REMARK    4  A    between atoms: C_9  and  C_10
REMARK    5  A    between atoms: C_18  and  C_19
REMARK                            x       y       z     vdW  Elec       q    Type
REMARK                         _______ _______ _______ _____ _____    ______ ____
ROOT
ATOM      1  C   UNL     1       1.994   6.544  19.788  0.00  0.00    +0.000 A 
ATOM      2  N   UNL     1       2.826   6.020  18.910  0.00  0.00    +0.000 NA
ATOM      3  C   UNL     1       2.732   4.659  19.055  0.00  0.00    +0.000 A 
ATOM      4  C   UNL     1       3.485   3.647  18.416  0.00  0.00    +0.000 A 
ATOM      5  C   UNL     1       3.077   2.321  18.651  0.00  0.00    +0.000 A 
ATOM      6  C   UNL     1       2.053   2.022  19.560  0.00  0.00    +0.000 A 
ATOM      7  C   UNL     1       1.402   3.025  20.293  0.00  0.00    +0.000 A 
ATOM      8  C   UNL     1       1.764   4.340  20.001  0.00  0.00    +0.000 A 
ATOM      9  N   UNL     1       1.372   5.558  20.513  0.00  0.00    +0.000 N 
ATOM     10  H   UNL     1       0.736   5.719  21.281  0.00  0.00    +0.000 HD
ENDROOT
BRANCH   4  11
ATOM     11  C   UNL     1       4.684   4.031  17.647  0.00  0.00    +0.000 A 
ATOM     12  C   UNL     1       5.870   4.391  18.326  0.00  0.00    +0.000 A 
ATOM     13  C   UNL     1       7.038   4.744  17.648  0.00  0.00    +0.000 A 
ATOM     14  C   UNL     1       7.054   4.726  16.264  0.00  0.00    +0.000 A 
ATOM     15  C   UNL     1       5.904   4.360  15.560  0.00  0.00    +0.000 A 
ATOM     16  C   UNL     1       4.729   4.018  16.246  0.00  0.00    +0.000 A 
ENDBRANCH   4  11
BRANCH   1  18
ATOM     17  O   UNL     1       1.734   8.564  20.989  0.00  0.00    +0.000 OA
ATOM     18  C   UNL     1       1.838   7.977  19.919  0.00  0.00    +0.000 C 
ATOM     19  N   UNL     1       1.825   8.589  18.684  0.00  0.00    +0.000 N 
ATOM     20  H   UNL     1       1.927   7.966  17.887  0.00  0.00    +0.000 HD
BRANCH  19  21
ATOM     21  C   UNL     1       1.787  10.011  18.463  0.00  0.00    +0.000 C 
BRANCH  21  22
ATOM     22  C   UNL     1       0.392  10.565  18.629  0.00  0.00    +0.000 A 
ATOM     23  C   UNL     1       0.124  11.578  19.562  0.00  0.00    +0.000 A 
ATOM     24  C   UNL     1      -1.179  12.045  19.747  0.00  0.00    +0.000 A 
ATOM     25  C   UNL     1      -2.230  11.507  19.005  0.00  0.00    +0.000 A 
ATOM     26  C   UNL     1      -1.987  10.500  18.060  0.00  0.00    +0.000 A 
ATOM     27  C   UNL     1      -0.671  10.041  17.878  0.00  0.00    +0.000 A 
BRANCH  26  28
ATOM     28  C   UNL     1      -3.112   9.899  17.255  0.00  0.00    +0.000 C 
ATOM     29  F   UNL     1      -2.712   9.374  16.063  0.00  0.00    +0.000 F 
ATOM     30  F   UNL     1      -3.745   8.887  17.912  0.00  0.00    +0.000 F 
ATOM     31  F   UNL     1      -4.080  10.809  16.951  0.00  0.00    +0.000 F 
ENDBRANCH  26  28
ENDBRANCH  21  22
ENDBRANCH  19  21
ENDBRANCH   1  18
TORSDOF 5
ENDMDL
MODEL 2
REMARK VINA RESULT:      -8.9      0.862      1.249
REMARK  Name = 
REMARK  5 active torsions:
REMARK  status: ('A' for Active; 'I' for Inactive)
REMARK    1  A    between atoms: C_2  and  C_15
REMARK    2  A    between atoms: N_3  and  C_4
REMARK    3  A    between atoms: C_4  and  C_5
REMARK    4  A    between atoms: C_9  and  C_10
REMARK    5  A    between atoms: C_18  and  C_19
REMARK                            x       y       z     vdW  Elec       q    Type
REMARK                         _______ _______ _______ _____ _____    ______ ____
ROOT
ATOM      1  C   UNL     1       1.770   7.150  20.312  0.00  0.00    +0.000 A 
ATOM      2  N   UNL     1       2.691   6.735  19.465  0.00  0.00    +0.000 NA
ATOM      3  C   UNL     1       2.674   5.364  19.519  0.00  0.00    +0.000 A 
ATOM      4  C   UNL     1       3.530   4.443  18.873  0.00  0.00    +0.000 A 
ATOM      5  C   UNL     1       3.192   3.082  18.996  0.00  0.00    +0.000 A 
ATOM      6  C   UNL     1       2.129   2.665  19.810  0.00  0.00    +0.000 A 
ATOM      7  C   UNL     1       1.369   3.577  20.555  0.00  0.00    +0.000 A 
ATOM      8  C   UNL     1       1.665   4.928  20.371  0.00  0.00    +0.000 A 
ATOM      9  N   UNL     1       1.164   6.085  20.928  0.00  0.00    +0.000 N 
ATOM     10  H   UNL     1       0.469   6.156  21.657  0.00  0.00    +0.000 HD
ENDROOT
BRANCH   4  11
ATOM     11  C   UNL     1       4.752   4.946  18.217  0.00  0.00    +0.000 A 
ATOM     12  C   UNL     1       4.738   5.237  16.833  0.00  0.00    +0.000 A 
ATOM     13  C   UNL     1       5.859   5.731  16.166  0.00  0.00    +0.000 A 
ATOM     14  C   UNL     1       7.024   5.967  16.875  0.00  0.00    +0.000 A 
ATOM     15  C   UNL     1       7.069   5.707  18.246  0.00  0.00    +0.000 A 
ATOM     16  C   UNL     1       5.943   5.198  18.911  0.00  0.00    +0.000 A 
ENDBRANCH   4  11
BRANCH   1  18
ATOM     17  O   UNL     1       1.374   9.080  21.620  0.00  0.00    +0.000 OA
ATOM     18  C   UNL     1       1.515   8.560  20.519  0.00  0.00    +0.000 C 
ATOM     19  N   UNL     1       1.459   9.236  19.319  0.00  0.00    +0.000 N 
ATOM     20  H   UNL     1       1.602   8.665  18.491  0.00  0.00    +0.000 HD
BRANCH  19  21
ATOM     21  C   UNL     1       1.322  10.661  19.176  0.00  0.00    +0.000 C 
BRANCH  21  22
ATOM     22  C   UNL     1      -0.125  11.076  19.065  0.00  0.00    +0.000 A 
ATOM     23  C   UNL     1      -0.633  12.139  19.826  0.00  0.00    +0.000 A 
ATOM     24  C   UNL     1      -1.986  12.479  19.757  0.00  0.00    +0.000 A 
ATOM     25  C   UNL     1      -2.848  11.762  18.929  0.00  0.00    +0.000 A 
ATOM     26  C   UNL     1      -2.365  10.701  18.151  0.00  0.00    +0.000 A 
ATOM     27  C   UNL     1      -1.000  10.371  18.224  0.00  0.00    +0.000 A 
BRANCH  26  28
ATOM     28  C   UNL     1      -3.284   9.908  17.257  0.00  0.00    +0.000 C 
ATOM     29  F   UNL     1      -2.678   9.434  16.132  0.00  0.00    +0.000 F 
ATOM     30  F   UNL     1      -3.812   8.818  17.881  0.00  0.00    +0.000 F 
ATOM     31  F   UNL     1      -4.348  10.640  16.822  0.00  0.00    +0.000 F 
ENDBRANCH  26  28
ENDBRANCH  21  22
ENDBRANCH  19  21
ENDBRANCH   1  18
TORSDOF 5
ENDMDL
MODEL 3
REMARK VINA RESULT:      -8.9      0.854      1.113
REMARK  Name = 
REMARK  5 active torsions:
REMARK  status: ('A' for Active; 'I' for Inactive)
REMARK    1  A    between atoms: C_2  and  C_15
REMARK    2  A    between atoms: N_3  and  C_4
REMARK    3  A    between atoms: C_4  and  C_5
REMARK    4  A    between atoms: C_9  and  C_10
REMARK    5  A    between atoms: C_18  and  C_19
REMARK                            x       y       z     vdW  Elec       q    Type
REMARK                         _______ _______ _______ _____ _____    ______ ____
ROOT
ATOM      1  C   UNL     1       1.781   7.236  20.250  0.00  0.00    +0.000 A 
ATOM      2  N   UNL     1       2.677   6.774  19.401  0.00  0.00    +0.000 NA
ATOM      3  C   UNL     1       2.701   5.412  19.570  0.00  0.00    +0.000 A 
ATOM      4  C   UNL     1       3.555   4.461  18.968  0.00  0.00    +0.000 A 
ATOM      5  C   UNL     1       3.261   3.107  19.219  0.00  0.00    +0.000 A 
ATOM      6  C   UNL     1       2.246   2.734  20.110  0.00  0.00    +0.000 A 
ATOM      7  C   UNL     1       1.491   3.688  20.809  0.00  0.00    +0.000 A 
ATOM      8  C   UNL     1       1.742   5.025  20.500  0.00  0.00    +0.000 A 
ATOM      9  N   UNL     1       1.232   6.212  20.979  0.00  0.00    +0.000 N 
ATOM     10  H   UNL     1       0.566   6.328  21.729  0.00  0.00    +0.000 HD
ENDROOT
BRANCH   4  11
ATOM     11  C   UNL     1       4.734   4.936  18.218  0.00  0.00    +0.000 A 
ATOM     12  C   UNL     1       5.943   5.200  18.901  0.00  0.00    +0.000 A 
ATOM     13  C   UNL     1       7.092   5.633  18.240  0.00  0.00    +0.000 A 
ATOM     14  C   UNL     1       7.067   5.796  16.866  0.00  0.00    +0.000 A 
ATOM     15  C   UNL     1       5.894   5.529  16.156  0.00  0.00    +0.000 A 
ATOM     16  C   UNL     1       4.736   5.105  16.826  0.00  0.00    +0.000 A 
ENDBRANCH   4  11
BRANCH   1  18
ATOM     17  O   UNL     1       1.278   9.238  21.404  0.00  0.00    +0.000 OA
ATOM     18  C   UNL     1       1.496   8.652  20.350  0.00  0.00    +0.000 C 
ATOM     19  N   UNL     1       1.506   9.248  19.107  0.00  0.00    +0.000 N 
ATOM     20  H   UNL     1       1.709   8.629  18.328  0.00  0.00    +0.000 HD
BRANCH  19  21
ATOM     21  C   UNL     1       1.361  10.660  18.864  0.00  0.00    +0.000 C 
BRANCH  21  22
ATOM     22  C   UNL     1      -0.090  11.077  18.847  0.00  0.00    +0.000 A 
ATOM     23  C   UNL     1      -0.542  12.153  19.626  0.00  0.00    +0.000 A 
ATOM     24  C   UNL     1      -1.895  12.496  19.646  0.00  0.00    +0.000 A 
ATOM     25  C   UNL     1      -2.815  11.770  18.890  0.00  0.00    +0.000 A 
ATOM     26  C   UNL     1      -2.388  10.697  18.096  0.00  0.00    +0.000 A 
ATOM     27  C   UNL     1      -1.023  10.363  18.079  0.00  0.00    +0.000 A 
BRANCH  26  28
ATOM     28  C   UNL     1      -3.370   9.894  17.279  0.00  0.00    +0.000 C 
ATOM     29  F   UNL     1      -4.459  10.608  16.876  0.00  0.00    +0.000 F 
ATOM     30  F   UNL     1      -2.816   9.389  16.141  0.00  0.00    +0.000 F 
ATOM     31  F   UNL     1      -3.863   8.822  17.961  0.00  0.00    +0.000 F 
ENDBRANCH  26  28
ENDBRANCH  21  22
ENDBRANCH  19  21
ENDBRANCH   1  18
TORSDOF 5
ENDMDL
MODEL 4
REMARK VINA RESULT:      -8.8      1.722      2.291
REMARK  Name = 
REMARK  5 active torsions:
REMARK  status: ('A' for Active; 'I' for Inactive)
REMARK    1  A    between atoms: C_2  and  C_15
REMARK    2  A    between atoms: N_3  and  C_4
REMARK    3  A    between atoms: C_4  and  C_5
REMARK    4  A    between atoms: C_9  and  C_10
REMARK    5  A    between atoms: C_18  and  C_19
REMARK                            x       y       z     vdW  Elec       q    Type
REMARK                         _______ _______ _______ _____ _____    ______ ____
ROOT
ATOM      1  C   UNL     1       2.139   7.660  18.866  0.00  0.00    +0.000 A 
ATOM      2  N   UNL     1       2.915   6.816  18.217  0.00  0.00    +0.000 NA
ATOM      3  C   UNL     1       2.992   5.687  18.995  0.00  0.00    +0.000 A 
ATOM      4  C   UNL     1       3.772   4.527  18.794  0.00  0.00    +0.000 A 
ATOM      5  C   UNL     1       3.546   3.458  19.682  0.00  0.00    +0.000 A 
ATOM      6  C   UNL     1       2.674   3.588  20.772  0.00  0.00    +0.000 A 
ATOM      7  C   UNL     1       2.006   4.791  21.043  0.00  0.00    +0.000 A 
ATOM      8  C   UNL     1       2.182   5.820  20.117  0.00  0.00    +0.000 A 
ATOM      9  N   UNL     1       1.720   7.117  20.054  0.00  0.00    +0.000 N 
ATOM     10  H   UNL     1       1.164   7.598  20.747  0.00  0.00    +0.000 HD
ENDROOT
BRANCH   4  11
ATOM     11  C   UNL     1       4.823   4.545  17.758  0.00  0.00    +0.000 A 
ATOM     12  C   UNL     1       6.158   4.838  18.115  0.00  0.00    +0.000 A 
ATOM     13  C   UNL     1       7.194   4.852  17.180  0.00  0.00    +0.000 A 
ATOM     14  C   UNL     1       6.920   4.550  15.857  0.00  0.00    +0.000 A 
ATOM     15  C   UNL     1       5.614   4.239  15.471  0.00  0.00    +0.000 A 
ATOM     16  C   UNL     1       4.574   4.239  16.412  0.00  0.00    +0.000 A 
ENDBRANCH   4  11
BRANCH   1  18
ATOM     17  O   UNL     1       2.418   9.477  17.378  0.00  0.00    +0.000 OA
ATOM     18  C   UNL     1       1.840   8.973  18.334  0.00  0.00    +0.000 C 
ATOM     19  N   UNL     1       0.821   9.574  19.041  0.00  0.00    +0.000 N 
ATOM     20  H   UNL     1       0.438   9.025  19.806  0.00  0.00    +0.000 HD
BRANCH  19  21
ATOM     21  C   UNL     1       0.215  10.837  18.710  0.00  0.00    +0.000 C 
BRANCH  21  22
ATOM     22  C   UNL     1      -1.202  10.665  18.218  0.00  0.00    +0.000 A 
ATOM     23  C   UNL     1      -1.492   9.830  17.129  0.00  0.00    +0.000 A 
ATOM     24  C   UNL     1      -2.798   9.720  16.646  0.00  0.00    +0.000 A 
ATOM     25  C   UNL     1      -3.830  10.443  17.243  0.00  0.00    +0.000 A 
ATOM     26  C   UNL     1      -3.569  11.277  18.338  0.00  0.00    +0.000 A 
ATOM     27  C   UNL     1      -2.251  11.377  18.820  0.00  0.00    +0.000 A 
BRANCH  26  28
ATOM     28  C   UNL     1      -4.670  12.075  18.991  0.00  0.00    +0.000 C 
ATOM     29  F   UNL     1      -5.331  12.900  18.130  0.00  0.00    +0.000 F 
ATOM     30  F   UNL     1      -5.627  11.285  19.555  0.00  0.00    +0.000 F 
ATOM     31  F   UNL     1      -4.211  12.877  19.992  0.00  0.00    +0.000 F 
ENDBRANCH  26  28
ENDBRANCH  21  22
ENDBRANCH  19  21
ENDBRANCH   1  18
TORSDOF 5
ENDMDL
MODEL 5
REMARK VINA RESULT:      -8.8      1.211      1.556
REMARK  Name = 
REMARK  5 active torsions:
REMARK  status: ('A' for Active; 'I' for Inactive)
REMARK    1  A    between atoms: C_2  and  C_15
REMARK    2  A    between atoms: N_3  and  C_4
REMARK    3  A    between atoms: C_4  and  C_5
REMARK    4  A    between atoms: C_9  and  C_10
REMARK    5  A    between atoms: C_18  and  C_19
REMARK                            x       y       z     vdW  Elec       q    Type
REMARK                         _______ _______ _______ _____ _____    ______ ____
ROOT
ATOM      1  C   UNL     1       2.261   7.784  18.846  0.00  0.00    +0.000 A 
ATOM      2  N   UNL     1       3.019   6.895  18.237  0.00  0.00    +0.000 NA
ATOM      3  C   UNL     1       2.987   5.765  19.015  0.00  0.00    +0.000 A 
ATOM      4  C   UNL     1       3.707   4.559  18.853  0.00  0.00    +0.000 A 
ATOM      5  C   UNL     1       3.371   3.507  19.726  0.00  0.00    +0.000 A 
ATOM      6  C   UNL     1       2.453   3.690  20.769  0.00  0.00    +0.000 A 
ATOM      7  C   UNL     1       1.844   4.930  21.007  0.00  0.00    +0.000 A 
ATOM      8  C   UNL     1       2.129   5.946  20.094  0.00  0.00    +0.000 A 
ATOM      9  N   UNL     1       1.749   7.268  20.010  0.00  0.00    +0.000 N 
ATOM     10  H   UNL     1       1.187   7.783  20.673  0.00  0.00    +0.000 HD
ENDROOT
BRANCH   4  11
ATOM     11  C   UNL     1       4.810   4.514  17.873  0.00  0.00    +0.000 A 
ATOM     12  C   UNL     1       6.126   4.830  18.281  0.00  0.00    +0.000 A 
ATOM     13  C   UNL     1       7.208   4.786  17.401  0.00  0.00    +0.000 A 
ATOM     14  C   UNL     1       7.002   4.402  16.087  0.00  0.00    +0.000 A 
ATOM     15  C   UNL     1       5.717   4.068  15.653  0.00  0.00    +0.000 A 
ATOM     16  C   UNL     1       4.630   4.126  16.538  0.00  0.00    +0.000 A 
ENDBRANCH   4  11
BRANCH   1  18
ATOM     17  O   UNL     1       2.267   9.412  17.131  0.00  0.00    +0.000 OA
ATOM     18  C   UNL     1       2.069   9.113  18.302  0.00  0.00    +0.000 C 
ATOM     19  N   UNL     1       1.633   9.987  19.274  0.00  0.00    +0.000 N 
ATOM     20  H   UNL     1       1.510   9.586  20.199  0.00  0.00    +0.000 HD
BRANCH  19  21
ATOM     21  C   UNL     1       1.251  11.356  19.045  0.00  0.00    +0.000 C 
BRANCH  21  22
ATOM     22  C   UNL     1      -0.250  11.520  19.012  0.00  0.00    +0.000 A 
ATOM     23  C   UNL     1      -0.895  12.440  19.851  0.00  0.00    +0.000 A 
ATOM     24  C   UNL     1      -2.288  12.545  19.853  0.00  0.00    +0.000 A 
ATOM     25  C   UNL     1      -3.054  11.732  19.018  0.00  0.00    +0.000 A 
ATOM     26  C   UNL     1      -2.433  10.811  18.162  0.00  0.00    +0.000 A 
ATOM     27  C   UNL     1      -1.030  10.717  18.165  0.00  0.00    +0.000 A 
BRANCH  26  28
ATOM     28  C   UNL     1      -3.245   9.917  17.259  0.00  0.00    +0.000 C 
ATOM     29  F   UNL     1      -3.794   8.846  17.900  0.00  0.00    +0.000 F 
ATOM     30  F   UNL     1      -4.287  10.570  16.672  0.00  0.00    +0.000 F 
ATOM     31  F   UNL     1      -2.507   9.398  16.239  0.00  0.00    +0.000 F 
ENDBRANCH  26  28
ENDBRANCH  21  22
ENDBRANCH  19  21
ENDBRANCH   1  18
TORSDOF 5
ENDMDL
MODEL 6
REMARK VINA RESULT:      -8.7      1.998      4.112
REMARK  Name = 
REMARK  5 active torsions:
REMARK  status: ('A' for Active; 'I' for Inactive)
REMARK    1  A    between atoms: C_2  and  C_15
REMARK    2  A    between atoms: N_3  and  C_4
REMARK    3  A    between atoms: C_4  and  C_5
REMARK    4  A    between atoms: C_9  and  C_10
REMARK    5  A    between atoms: C_18  and  C_19
REMARK                            x       y       z     vdW  Elec       q    Type
REMARK                         _______ _______ _______ _____ _____    ______ ____
ROOT
ATOM      1  C   UNL     1       1.829   8.622  18.952  0.00  0.00    +0.000 A 
ATOM      2  N   UNL     1       1.968   7.400  19.426  0.00  0.00    +0.000 NA
ATOM      3  C   UNL     1       2.863   6.767  18.602  0.00  0.00    +0.000 A 
ATOM      4  C   UNL     1       3.281   5.417  18.622  0.00  0.00    +0.000 A 
ATOM      5  C   UNL     1       4.323   5.071  17.741  0.00  0.00    +0.000 A 
ATOM      6  C   UNL     1       4.835   5.994  16.818  0.00  0.00    +0.000 A 
ATOM      7  C   UNL     1       4.320   7.294  16.713  0.00  0.00    +0.000 A 
ATOM      8  C   UNL     1       3.337   7.649  17.637  0.00  0.00    +0.000 A 
ATOM      9  N   UNL     1       2.598   8.796  17.829  0.00  0.00    +0.000 N 
ATOM     10  H   UNL     1       2.612   9.630  17.260  0.00  0.00    +0.000 HD
ENDROOT
BRANCH   4  11
ATOM     11  C   UNL     1       2.546   4.456  19.467  0.00  0.00    +0.000 A 
ATOM     12  C   UNL     1       2.890   4.312  20.830  0.00  0.00    +0.000 A 
ATOM     13  C   UNL     1       2.217   3.432  21.678  0.00  0.00    +0.000 A 
ATOM     14  C   UNL     1       1.163   2.684  21.185  0.00  0.00    +0.000 A 
ATOM     15  C   UNL     1       0.785   2.812  19.847  0.00  0.00    +0.000 A 
ATOM     16  C   UNL     1       1.472   3.689  18.994  0.00  0.00    +0.000 A 
ENDBRANCH   4  11
BRANCH   1  18
ATOM     17  O   UNL     1       1.085  10.006  20.719  0.00  0.00    +0.000 OA
ATOM     18  C   UNL     1       0.942   9.580  19.579  0.00  0.00    +0.000 C 
ATOM     19  N   UNL     1      -0.074   9.948  18.725  0.00  0.00    +0.000 N 
ATOM     20  H   UNL     1      -0.053   9.511  17.808  0.00  0.00    +0.000 HD
BRANCH  19  21
ATOM     21  C   UNL     1      -1.064  10.956  19.000  0.00  0.00    +0.000 C 
BRANCH  21  22
ATOM     22  C   UNL     1      -2.187  10.927  17.991  0.00  0.00    +0.000 A 
ATOM     23  C   UNL     1      -2.011  10.335  16.731  0.00  0.00    +0.000 A 
ATOM     24  C   UNL     1      -3.038  10.362  15.785  0.00  0.00    +0.000 A 
ATOM     25  C   UNL     1      -4.252  10.980  16.083  0.00  0.00    +0.000 A 
ATOM     26  C   UNL     1      -4.457  11.570  17.338  0.00  0.00    +0.000 A 
ATOM     27  C   UNL     1      -3.418  11.533  18.285  0.00  0.00    +0.000 A 
BRANCH  26  28
ATOM     28  C   UNL     1      -5.759  12.251  17.675  0.00  0.00    +0.000 C 
ATOM     29  F   UNL     1      -6.774  11.384  17.954  0.00  0.00    +0.000 F 
ATOM     30  F   UNL     1      -5.659  13.066  18.762  0.00  0.00    +0.000 F 
ATOM     31  F   UNL     1      -6.215  13.037  16.660  0.00  0.00    +0.000 F 
ENDBRANCH  26  28
ENDBRANCH  21  22
ENDBRANCH  19  21
ENDBRANCH   1  18
TORSDOF 5
ENDMDL
MODEL 7
REMARK VINA RESULT:      -8.7      1.715      2.453
REMARK  Name = 
REMARK  5 active torsions:
REMARK  status: ('A' for Active; 'I' for Inactive)
REMARK    1  A    between atoms: C_2  and  C_15
REMARK    2  A    between atoms: N_3  and  C_4
REMARK    3  A    between atoms: C_4  and  C_5
REMARK    4  A    between atoms: C_9  and  C_10
REMARK    5  A    between atoms: C_18  and  C_19
REMARK                            x       y       z     vdW  Elec       q    Type
REMARK                         _______ _______ _______ _____ _____    ______ ____
ROOT
ATOM      1  C   UNL     1       2.152   7.674  18.885  0.00  0.00    +0.000 A 
ATOM      2  N   UNL     1       2.958   6.871  18.220  0.00  0.00    +0.000 NA
ATOM      3  C   UNL     1       3.058   5.723  18.964  0.00  0.00    +0.000 A 
ATOM      4  C   UNL     1       3.873   4.590  18.737  0.00  0.00    +0.000 A 
ATOM      5  C   UNL     1       3.668   3.490  19.592  0.00  0.00    +0.000 A 
ATOM      6  C   UNL     1       2.783   3.564  20.676  0.00  0.00    +0.000 A 
ATOM      7  C   UNL     1       2.079   4.739  20.975  0.00  0.00    +0.000 A 
ATOM      8  C   UNL     1       2.235   5.799  20.082  0.00  0.00    +0.000 A 
ATOM      9  N   UNL     1       1.737   7.084  20.052  0.00  0.00    +0.000 N 
ATOM     10  H   UNL     1       1.161   7.529  20.753  0.00  0.00    +0.000 HD
ENDROOT
BRANCH   4  11
ATOM     11  C   UNL     1       4.933   4.668  17.714  0.00  0.00    +0.000 A 
ATOM     12  C   UNL     1       4.692   4.171  16.413  0.00  0.00    +0.000 A 
ATOM     13  C   UNL     1       5.652   4.235  15.402  0.00  0.00    +0.000 A 
ATOM     14  C   UNL     1       6.878   4.822  15.664  0.00  0.00    +0.000 A 
ATOM     15  C   UNL     1       7.145   5.339  16.933  0.00  0.00    +0.000 A 
ATOM     16  C   UNL     1       6.181   5.260  17.951  0.00  0.00    +0.000 A 
ENDBRANCH   4  11
BRANCH   1  18
ATOM     17  O   UNL     1       2.332   9.505  17.399  0.00  0.00    +0.000 OA
ATOM     18  C   UNL     1       1.822   8.994  18.389  0.00  0.00    +0.000 C 
ATOM     19  N   UNL     1       0.859   9.591  19.173  0.00  0.00    +0.000 N 
ATOM     20  H   UNL     1       0.530   9.036  19.958  0.00  0.00    +0.000 HD
BRANCH  19  21
ATOM     21  C   UNL     1       0.237  10.860  18.899  0.00  0.00    +0.000 C 
BRANCH  21  22
ATOM     22  C   UNL     1      -1.148  10.690  18.321  0.00  0.00    +0.000 A 
ATOM     23  C   UNL     1      -1.367   9.875  17.200  0.00  0.00    +0.000 A 
ATOM     24  C   UNL     1      -2.641   9.768  16.639  0.00  0.00    +0.000 A 
ATOM     25  C   UNL     1      -3.712  10.472  17.188  0.00  0.00    +0.000 A 
ATOM     26  C   UNL     1      -3.521  11.285  18.314  0.00  0.00    +0.000 A 
ATOM     27  C   UNL     1      -2.236  11.382  18.874  0.00  0.00    +0.000 A 
BRANCH  26  28
ATOM     28  C   UNL     1      -4.665  12.063  18.916  0.00  0.00    +0.000 C 
ATOM     29  F   UNL     1      -5.595  11.278  19.532  0.00  0.00    +0.000 F 
ATOM     30  F   UNL     1      -4.254  12.958  19.858  0.00  0.00    +0.000 F 
ATOM     31  F   UNL     1      -5.350  12.786  17.987  0.00  0.00    +0.000 F 
ENDBRANCH  26  28
ENDBRANCH  21  22
ENDBRANCH  19  21
ENDBRANCH   1  18
TORSDOF 5
ENDMDL
MODEL 8
REMARK VINA RESULT:      -8.7      2.505      3.181
REMARK  Name = 
REMARK  5 active torsions:
REMARK  status: ('A' for Active; 'I' for Inactive)
REMARK    1  A    between atoms: C_2  and  C_15
REMARK    2  A    between atoms: N_3  and  C_4
REMARK    3  A    between atoms: C_4  and  C_5
REMARK    4  A    between atoms: C_9  and  C_10
REMARK    5  A    between atoms: C_18  and  C_19
REMARK                            x       y       z     vdW  Elec       q    Type
REMARK                         _______ _______ _______ _____ _____    ______ ____
ROOT
ATOM      1  C   UNL     1       2.330   7.101  19.287  0.00  0.00    +0.000 A 
ATOM      2  N   UNL     1       3.128   6.337  18.569  0.00  0.00    +0.000 NA
ATOM      3  C   UNL     1       3.232   5.147  19.244  0.00  0.00    +0.000 A 
ATOM      4  C   UNL     1       4.042   4.028  18.945  0.00  0.00    +0.000 A 
ATOM      5  C   UNL     1       3.840   2.880  19.735  0.00  0.00    +0.000 A 
ATOM      6  C   UNL     1       2.964   2.892  20.829  0.00  0.00    +0.000 A 
ATOM      7  C   UNL     1       2.266   4.049  21.202  0.00  0.00    +0.000 A 
ATOM      8  C   UNL     1       2.417   5.160  20.371  0.00  0.00    +0.000 A 
ATOM      9  N   UNL     1       1.923   6.445  20.421  0.00  0.00    +0.000 N 
ATOM     10  H   UNL     1       1.354   6.850  21.151  0.00  0.00    +0.000 HD
ENDROOT
BRANCH   4  11
ATOM     11  C   UNL     1       5.093   4.164  17.919  0.00  0.00    +0.000 A 
ATOM     12  C   UNL     1       4.796   3.882  16.566  0.00  0.00    +0.000 A 
ATOM     13  C   UNL     1       5.747   4.010  15.553  0.00  0.00    +0.000 A 
ATOM     14  C   UNL     1       7.022   4.447  15.868  0.00  0.00    +0.000 A 
ATOM     15  C   UNL     1       7.346   4.751  17.192  0.00  0.00    +0.000 A 
ATOM     16  C   UNL     1       6.391   4.608  18.209  0.00  0.00    +0.000 A 
ENDBRANCH   4  11
BRANCH   1  18
ATOM     17  O   UNL     1       2.359   8.951  17.813  0.00  0.00    +0.000 OA
ATOM     18  C   UNL     1       1.999   8.448  18.871  0.00  0.00    +0.000 C 
ATOM     19  N   UNL     1       1.225   9.083  19.818  0.00  0.00    +0.000 N 
ATOM     20  H   UNL     1       1.004   8.531  20.642  0.00  0.00    +0.000 HD
BRANCH  19  21
ATOM     21  C   UNL     1       0.642  10.391  19.672  0.00  0.00    +0.000 C 
BRANCH  21  22
ATOM     22  C   UNL     1      -0.171  10.779  20.884  0.00  0.00    +0.000 A 
ATOM     23  C   UNL     1      -0.068  10.060  22.084  0.00  0.00    +0.000 A 
ATOM     24  C   UNL     1      -0.865  10.393  23.181  0.00  0.00    +0.000 A 
ATOM     25  C   UNL     1      -1.773  11.447  23.096  0.00  0.00    +0.000 A 
ATOM     26  C   UNL     1      -1.888  12.188  21.912  0.00  0.00    +0.000 A 
ATOM     27  C   UNL     1      -1.078  11.848  20.814  0.00  0.00    +0.000 A 
BRANCH  26  28
ATOM     28  C   UNL     1      -2.872  13.326  21.797  0.00  0.00    +0.000 C 
ATOM     29  F   UNL     1      -3.209  13.880  22.996  0.00  0.00    +0.000 F 
ATOM     30  F   UNL     1      -2.402  14.352  21.033  0.00  0.00    +0.000 F 
ATOM     31  F   UNL     1      -4.047  12.943  21.224  0.00  0.00    +0.000 F 
ENDBRANCH  26  28
ENDBRANCH  21  22
ENDBRANCH  19  21
ENDBRANCH   1  18
TORSDOF 5
ENDMDL
MODEL 9
REMARK VINA RESULT:      -8.7      2.543      3.140
REMARK  Name = 
REMARK  5 active torsions:
REMARK  status: ('A' for Active; 'I' for Inactive)
REMARK    1  A    between atoms: C_2  and  C_15
REMARK    2  A    between atoms: N_3  and  C_4
REMARK    3  A    between atoms: C_4  and  C_5
REMARK    4  A    between atoms: C_9  and  C_10
REMARK    5  A    between atoms: C_18  and  C_19
REMARK                            x       y       z     vdW  Elec       q    Type
REMARK                         _______ _______ _______ _____ _____    ______ ____
ROOT
ATOM      1  C   UNL     1       2.456   7.034  18.787  0.00  0.00    +0.000 A 
ATOM      2  N   UNL     1       3.237   6.331  17.992  0.00  0.00    +0.000 NA
ATOM      3  C   UNL     1       3.423   5.119  18.609  0.00  0.00    +0.000 A 
ATOM      4  C   UNL     1       4.253   4.045  18.215  0.00  0.00    +0.000 A 
ATOM      5  C   UNL     1       4.141   2.859  18.966  0.00  0.00    +0.000 A 
ATOM      6  C   UNL     1       3.332   2.793  20.108  0.00  0.00    +0.000 A 
ATOM      7  C   UNL     1       2.615   3.906  20.570  0.00  0.00    +0.000 A 
ATOM      8  C   UNL     1       2.677   5.055  19.780  0.00  0.00    +0.000 A 
ATOM      9  N   UNL     1       2.140   6.317  19.913  0.00  0.00    +0.000 N 
ATOM     10  H   UNL     1       1.602   6.670  20.692  0.00  0.00    +0.000 HD
ENDROOT
BRANCH   4  11
ATOM     11  C   UNL     1       5.236   4.262  17.137  0.00  0.00    +0.000 A 
ATOM     12  C   UNL     1       4.833   4.157  15.786  0.00  0.00    +0.000 A 
ATOM     13  C   UNL     1       5.717   4.370  14.727  0.00  0.00    +0.000 A 
ATOM     14  C   UNL     1       7.030   4.716  14.995  0.00  0.00    +0.000 A 
ATOM     15  C   UNL     1       7.459   4.845  16.318  0.00  0.00    +0.000 A 
ATOM     16  C   UNL     1       6.571   4.617  17.380  0.00  0.00    +0.000 A 
ENDBRANCH   4  11
BRANCH   1  18
ATOM     17  O   UNL     1       2.269   8.916  17.367  0.00  0.00    +0.000 OA
ATOM     18  C   UNL     1       2.052   8.383  18.449  0.00  0.00    +0.000 C 
ATOM     19  N   UNL     1       1.393   8.981  19.501  0.00  0.00    +0.000 N 
ATOM     20  H   UNL     1       1.286   8.406  20.332  0.00  0.00    +0.000 HD
BRANCH  19  21
ATOM     21  C   UNL     1       0.774  10.280  19.461  0.00  0.00    +0.000 C 
BRANCH  21  22
ATOM     22  C   UNL     1       0.040  10.589  20.744  0.00  0.00    +0.000 A 
ATOM     23  C   UNL     1       0.266   9.836  21.905  0.00  0.00    +0.000 A 
ATOM     24  C   UNL     1      -0.459  10.094  23.071  0.00  0.00    +0.000 A 
ATOM     25  C   UNL     1      -1.417  11.106  23.092  0.00  0.00    +0.000 A 
ATOM     26  C   UNL     1      -1.655  11.880  21.948  0.00  0.00    +0.000 A 
ATOM     27  C   UNL     1      -0.917  11.615  20.781  0.00  0.00    +0.000 A 
BRANCH  26  28
ATOM     28  C   UNL     1      -2.695  12.973  21.949  0.00  0.00    +0.000 C 
ATOM     29  F   UNL     1      -3.036  13.404  20.701  0.00  0.00    +0.000 F 
ATOM     30  F   UNL     1      -3.861  12.588  22.539  0.00  0.00    +0.000 F 
ATOM     31  F   UNL     1      -2.284  14.083  22.623  0.00  0.00    +0.000 F 
ENDBRANCH  26  28
ENDBRANCH  21  22
ENDBRANCH  19  21
ENDBRANCH   1  18
TORSDOF 5
ENDMDL
