MODEL 1
REMARK VINA RESULT:      -7.7      0.000      0.000
REMARK  Name = 
REMARK  3 active torsions:
REMARK  status: ('A' for Active; 'I' for Inactive)
REMARK    1  A    between atoms: C_2  and  C_3
REMARK    2  A    between atoms: C_3  and  S_4
REMARK    3  A    between atoms: S_4  and  C_5
REMARK                            x       y       z     vdW  Elec       q    Type
REMARK                         _______ _______ _______ _____ _____    ______ ____
ROOT
ATOM      1  O   UNL     1       5.878   4.956  19.677  0.00  0.00    +0.000 OA
ATOM      2  C   UNL     1       5.566   4.454  18.597  0.00  0.00    +0.000 C 
ATOM      3  N   UNL     1       4.303   3.922  18.349  0.00  0.00    +0.000 N 
ATOM      4  C   UNL     1       3.822   3.331  17.087  0.00  0.00    +0.000 C 
ATOM      5  C   UNL     1       2.328   3.015  17.267  0.00  0.00    +0.000 C 
ATOM      6  C   UNL     1       2.152   3.189  18.740  0.00  0.00    +0.000 A 
ATOM      7  C   UNL     1       1.025   2.904  19.498  0.00  0.00    +0.000 A 
ATOM      8  C   UNL     1       1.052   3.190  20.865  0.00  0.00    +0.000 A 
ATOM      9  C   UNL     1       2.193   3.758  21.447  0.00  0.00    +0.000 A 
ATOM     10  C   UNL     1       3.320   4.045  20.672  0.00  0.00    +0.000 A 
ATOM     11  C   UNL     1       3.291   3.754  19.319  0.00  0.00    +0.000 A 
ENDROOT
BRANCH   2  12
ATOM     12  C   UNL     1       6.559   4.371  17.432  0.00  0.00    +0.000 C 
BRANCH  12  13
ATOM     13  S   UNL     1       6.441   5.858  16.359  0.00  0.00    +0.000 S 
BRANCH  13  14
ATOM     14  C   UNL     1       6.624   5.140  14.744  0.00  0.00    +0.000 A 
ATOM     15  C   UNL     1       5.668   4.229  14.294  0.00  0.00    +0.000 A 
ATOM     16  C   UNL     1       5.833   3.645  13.039  0.00  0.00    +0.000 A 
ATOM     17  C   UNL     1       6.939   3.991  12.274  0.00  0.00    +0.000 A 
ATOM     18  C   UNL     1       7.831   4.913  12.795  0.00  0.00    +0.000 A 
ATOM     19  N   UNL     1       7.699   5.494  14.007  0.00  0.00    +0.000 NA
ENDBRANCH  13  14
ENDBRANCH  12  13
ENDBRANCH   2  12
TORSDOF 3
ENDMDL
MODEL 2
REMARK VINA RESULT:      -7.7      1.526      1.942
REMARK  Name = 
REMARK  3 active torsions:
REMARK  status: ('A' for Active; 'I' for Inactive)
REMARK    1  A    between atoms: C_2  and  C_3
REMARK    2  A    between atoms: C_3  and  S_4
REMARK    3  A    between atoms: S_4  and  C_5
REMARK                            x       y       z     vdW  Elec       q    Type
REMARK                         _______ _______ _______ _____ _____    ______ ____
ROOT
ATOM      1  O   UNL     1       4.716   3.430  17.119  0.00  0.00    +0.000 OA
ATOM      2  C   UNL     1       4.469   4.625  17.282  0.00  0.00    +0.000 C 
ATOM      3  N   UNL     1       3.570   5.085  18.241  0.00  0.00    +0.000 N 
ATOM      4  C   UNL     1       3.230   6.489  18.535  0.00  0.00    +0.000 C 
ATOM      5  C   UNL     1       2.299   6.490  19.759  0.00  0.00    +0.000 C 
ATOM      6  C   UNL     1       1.951   5.042  19.881  0.00  0.00    +0.000 A 
ATOM      7  C   UNL     1       1.026   4.463  20.740  0.00  0.00    +0.000 A 
ATOM      8  C   UNL     1       0.888   3.074  20.728  0.00  0.00    +0.000 A 
ATOM      9  C   UNL     1       1.672   2.290  19.871  0.00  0.00    +0.000 A 
ATOM     10  C   UNL     1       2.602   2.885  19.015  0.00  0.00    +0.000 A 
ATOM     11  C   UNL     1       2.732   4.264  19.025  0.00  0.00    +0.000 A 
ENDROOT
BRANCH   2  12
ATOM     12  C   UNL     1       5.138   5.709  16.429  0.00  0.00    +0.000 C 
BRANCH  12  13
ATOM     13  S   UNL     1       6.926   5.357  16.198  0.00  0.00    +0.000 S 
BRANCH  13  14
ATOM     14  C   UNL     1       6.976   4.903  14.481  0.00  0.00    +0.000 A 
ATOM     15  C   UNL     1       6.130   3.894  14.020  0.00  0.00    +0.000 A 
ATOM     16  C   UNL     1       6.196   3.520  12.679  0.00  0.00    +0.000 A 
ATOM     17  C   UNL     1       7.096   4.166  11.842  0.00  0.00    +0.000 A 
ATOM     18  C   UNL     1       7.890   5.164  12.383  0.00  0.00    +0.000 A 
ATOM     19  N   UNL     1       7.850   5.547  13.677  0.00  0.00    +0.000 NA
ENDBRANCH  13  14
ENDBRANCH  12  13
ENDBRANCH   2  12
TORSDOF 3
ENDMDL
MODEL 3
REMARK VINA RESULT:      -7.6      1.244      1.244
REMARK  Name = 
REMARK  3 active torsions:
REMARK  status: ('A' for Active; 'I' for Inactive)
REMARK    1  A    between atoms: C_2  and  C_3
REMARK    2  A    between atoms: C_3  and  S_4
REMARK    3  A    between atoms: S_4  and  C_5
REMARK                            x       y       z     vdW  Elec       q    Type
REMARK                         _______ _______ _______ _____ _____    ______ ____
ROOT
ATOM      1  O   UNL     1       3.996   6.930  18.430  0.00  0.00    +0.000 OA
ATOM      2  C   UNL     1       4.093   6.008  17.620  0.00  0.00    +0.000 C 
ATOM      3  N   UNL     1       3.480   4.771  17.808  0.00  0.00    +0.000 N 
ATOM      4  C   UNL     1       3.507   3.619  16.889  0.00  0.00    +0.000 C 
ATOM      5  C   UNL     1       2.577   2.543  17.472  0.00  0.00    +0.000 C 
ATOM      6  C   UNL     1       2.320   3.071  18.846  0.00  0.00    +0.000 A 
ATOM      7  C   UNL     1       1.644   2.441  19.883  0.00  0.00    +0.000 A 
ATOM      8  C   UNL     1       1.470   3.135  21.082  0.00  0.00    +0.000 A 
ATOM      9  C   UNL     1       1.964   4.439  21.224  0.00  0.00    +0.000 A 
ATOM     10  C   UNL     1       2.639   5.063  20.171  0.00  0.00    +0.000 A 
ATOM     11  C   UNL     1       2.814   4.369  18.986  0.00  0.00    +0.000 A 
ENDROOT
BRANCH   2  12
ATOM     12  C   UNL     1       4.908   6.152  16.330  0.00  0.00    +0.000 C 
BRANCH  12  13
ATOM     13  S   UNL     1       6.439   5.139  16.401  0.00  0.00    +0.000 S 
BRANCH  13  14
ATOM     14  C   UNL     1       6.722   4.809  14.678  0.00  0.00    +0.000 A 
ATOM     15  C   UNL     1       5.939   3.853  14.032  0.00  0.00    +0.000 A 
ATOM     16  C   UNL     1       6.187   3.575  12.690  0.00  0.00    +0.000 A 
ATOM     17  C   UNL     1       7.200   4.261  12.034  0.00  0.00    +0.000 A 
ATOM     18  C   UNL     1       7.920   5.202  12.751  0.00  0.00    +0.000 A 
ATOM     19  N   UNL     1       7.705   5.492  14.052  0.00  0.00    +0.000 NA
ENDBRANCH  13  14
ENDBRANCH  12  13
ENDBRANCH   2  12
TORSDOF 3
ENDMDL
MODEL 4
REMARK VINA RESULT:      -7.4      2.204      3.523
REMARK  Name = 
REMARK  3 active torsions:
REMARK  status: ('A' for Active; 'I' for Inactive)
REMARK    1  A    between atoms: C_2  and  C_3
REMARK    2  A    between atoms: C_3  and  S_4
REMARK    3  A    between atoms: S_4  and  C_5
REMARK                            x       y       z     vdW  Elec       q    Type
REMARK                         _______ _______ _______ _____ _____    ______ ____
ROOT
ATOM      1  O   UNL     1       4.635   2.806  16.965  0.00  0.00    +0.000 OA
ATOM      2  C   UNL     1       4.451   4.009  16.779  0.00  0.00    +0.000 C 
ATOM      3  N   UNL     1       3.757   4.814  17.679  0.00  0.00    +0.000 N 
ATOM      4  C   UNL     1       3.512   6.263  17.565  0.00  0.00    +0.000 C 
ATOM      5  C   UNL     1       2.826   6.717  18.864  0.00  0.00    +0.000 C 
ATOM      6  C   UNL     1       2.472   5.411  19.497  0.00  0.00    +0.000 A 
ATOM      7  C   UNL     1       1.711   5.202  20.640  0.00  0.00    +0.000 A 
ATOM      8  C   UNL     1       1.540   3.893  21.094  0.00  0.00    +0.000 A 
ATOM      9  C   UNL     1       2.131   2.822  20.411  0.00  0.00    +0.000 A 
ATOM     10  C   UNL     1       2.900   3.046  19.265  0.00  0.00    +0.000 A 
ATOM     11  C   UNL     1       3.061   4.345  18.814  0.00  0.00    +0.000 A 
ENDROOT
BRANCH   2  12
ATOM     12  C   UNL     1       4.975   4.718  15.525  0.00  0.00    +0.000 C 
BRANCH  12  13
ATOM     13  S   UNL     1       6.800   4.566  15.395  0.00  0.00    +0.000 S 
BRANCH  13  14
ATOM     14  C   UNL     1       7.334   5.566  16.764  0.00  0.00    +0.000 A 
ATOM     15  C   UNL     1       7.585   4.957  17.992  0.00  0.00    +0.000 A 
ATOM     16  C   UNL     1       7.973   5.750  19.071  0.00  0.00    +0.000 A 
ATOM     17  C   UNL     1       8.102   7.120  18.889  0.00  0.00    +0.000 A 
ATOM     18  C   UNL     1       7.843   7.638  17.631  0.00  0.00    +0.000 A 
ATOM     19  N   UNL     1       7.465   6.896  16.568  0.00  0.00    +0.000 NA
ENDBRANCH  13  14
ENDBRANCH  12  13
ENDBRANCH   2  12
TORSDOF 3
ENDMDL
MODEL 5
REMARK VINA RESULT:      -7.3      2.357      3.579
REMARK  Name = 
REMARK  3 active torsions:
REMARK  status: ('A' for Active; 'I' for Inactive)
REMARK    1  A    between atoms: C_2  and  C_3
REMARK    2  A    between atoms: C_3  and  S_4
REMARK    3  A    between atoms: S_4  and  C_5
REMARK                            x       y       z     vdW  Elec       q    Type
REMARK                         _______ _______ _______ _____ _____    ______ ____
ROOT
ATOM      1  O   UNL     1       4.365   2.459  17.064  0.00  0.00    +0.000 OA
ATOM      2  C   UNL     1       4.262   3.677  16.924  0.00  0.00    +0.000 C 
ATOM      3  N   UNL     1       3.600   4.489  17.842  0.00  0.00    +0.000 N 
ATOM      4  C   UNL     1       3.449   5.954  17.783  0.00  0.00    +0.000 C 
ATOM      5  C   UNL     1       2.763   6.399  19.085  0.00  0.00    +0.000 C 
ATOM      6  C   UNL     1       2.313   5.094  19.656  0.00  0.00    +0.000 A 
ATOM      7  C   UNL     1       1.514   4.889  20.773  0.00  0.00    +0.000 A 
ATOM      8  C   UNL     1       1.250   3.576  21.170  0.00  0.00    +0.000 A 
ATOM      9  C   UNL     1       1.788   2.497  20.456  0.00  0.00    +0.000 A 
ATOM     10  C   UNL     1       2.596   2.718  19.336  0.00  0.00    +0.000 A 
ATOM     11  C   UNL     1       2.849   4.021  18.942  0.00  0.00    +0.000 A 
ENDROOT
BRANCH   2  12
ATOM     12  C   UNL     1       4.858   4.402  15.711  0.00  0.00    +0.000 C 
BRANCH  12  13
ATOM     13  S   UNL     1       6.678   4.168  15.633  0.00  0.00    +0.000 S 
BRANCH  13  14
ATOM     14  C   UNL     1       7.223   5.211  16.965  0.00  0.00    +0.000 A 
ATOM     15  C   UNL     1       7.233   6.594  16.785  0.00  0.00    +0.000 A 
ATOM     16  C   UNL     1       7.691   7.405  17.821  0.00  0.00    +0.000 A 
ATOM     17  C   UNL     1       8.118   6.814  19.002  0.00  0.00    +0.000 A 
ATOM     18  C   UNL     1       8.063   5.434  19.098  0.00  0.00    +0.000 A 
ATOM     19  N   UNL     1       7.626   4.622  18.112  0.00  0.00    +0.000 NA
ENDBRANCH  13  14
ENDBRANCH  12  13
ENDBRANCH   2  12
TORSDOF 3
ENDMDL
MODEL 6
REMARK VINA RESULT:      -7.3      1.051      1.210
REMARK  Name = 
REMARK  3 active torsions:
REMARK  status: ('A' for Active; 'I' for Inactive)
REMARK    1  A    between atoms: C_2  and  C_3
REMARK    2  A    between atoms: C_3  and  S_4
REMARK    3  A    between atoms: S_4  and  C_5
REMARK                            x       y       z     vdW  Elec       q    Type
REMARK                         _______ _______ _______ _____ _____    ______ ____
ROOT
ATOM      1  O   UNL     1       5.613   3.622  18.606  0.00  0.00    +0.000 OA
ATOM      2  C   UNL     1       4.702   3.844  17.809  0.00  0.00    +0.000 C 
ATOM      3  N   UNL     1       3.357   3.799  18.170  0.00  0.00    +0.000 N 
ATOM      4  C   UNL     1       2.197   4.078  17.304  0.00  0.00    +0.000 C 
ATOM      5  C   UNL     1       0.940   4.031  18.189  0.00  0.00    +0.000 C 
ATOM      6  C   UNL     1       1.474   3.433  19.449  0.00  0.00    +0.000 A 
ATOM      7  C   UNL     1       0.755   3.030  20.567  0.00  0.00    +0.000 A 
ATOM      8  C   UNL     1       1.458   2.538  21.668  0.00  0.00    +0.000 A 
ATOM      9  C   UNL     1       2.857   2.462  21.640  0.00  0.00    +0.000 A 
ATOM     10  C   UNL     1       3.570   2.875  20.511  0.00  0.00    +0.000 A 
ATOM     11  C   UNL     1       2.868   3.356  19.418  0.00  0.00    +0.000 A 
ENDROOT
BRANCH   2  12
ATOM     12  C   UNL     1       4.981   4.186  16.341  0.00  0.00    +0.000 C 
BRANCH  12  13
ATOM     13  S   UNL     1       6.611   5.012  16.156  0.00  0.00    +0.000 S 
BRANCH  13  14
ATOM     14  C   UNL     1       6.920   4.792  14.419  0.00  0.00    +0.000 A 
ATOM     15  C   UNL     1       6.224   3.802  13.726  0.00  0.00    +0.000 A 
ATOM     16  C   UNL     1       6.493   3.612  12.372  0.00  0.00    +0.000 A 
ATOM     17  C   UNL     1       7.441   4.417  11.753  0.00  0.00    +0.000 A 
ATOM     18  C   UNL     1       8.076   5.382  12.516  0.00  0.00    +0.000 A 
ATOM     19  N   UNL     1       7.838   5.588  13.829  0.00  0.00    +0.000 NA
ENDBRANCH  13  14
ENDBRANCH  12  13
ENDBRANCH   2  12
TORSDOF 3
ENDMDL
MODEL 7
REMARK VINA RESULT:      -7.2      2.720      3.125
REMARK  Name = 
REMARK  3 active torsions:
REMARK  status: ('A' for Active; 'I' for Inactive)
REMARK    1  A    between atoms: C_2  and  C_3
REMARK    2  A    between atoms: C_3  and  S_4
REMARK    3  A    between atoms: S_4  and  C_5
REMARK                            x       y       z     vdW  Elec       q    Type
REMARK                         _______ _______ _______ _____ _____    ______ ____
ROOT
ATOM      1  O   UNL     1       4.354   6.453  16.417  0.00  0.00    +0.000 OA
ATOM      2  C   UNL     1       4.396   5.608  17.310  0.00  0.00    +0.000 C 
ATOM      3  N   UNL     1       3.623   5.694  18.466  0.00  0.00    +0.000 N 
ATOM      4  C   UNL     1       3.576   4.723  19.575  0.00  0.00    +0.000 C 
ATOM      5  C   UNL     1       2.480   5.189  20.548  0.00  0.00    +0.000 C 
ATOM      6  C   UNL     1       2.190   6.566  20.047  0.00  0.00    +0.000 A 
ATOM      7  C   UNL     1       1.368   7.523  20.627  0.00  0.00    +0.000 A 
ATOM      8  C   UNL     1       1.194   8.740  19.966  0.00  0.00    +0.000 A 
ATOM      9  C   UNL     1       1.833   8.979  18.742  0.00  0.00    +0.000 A 
ATOM     10  C   UNL     1       2.654   8.006  18.165  0.00  0.00    +0.000 A 
ATOM     11  C   UNL     1       2.829   6.803  18.829  0.00  0.00    +0.000 A 
ENDROOT
BRANCH   2  12
ATOM     12  C   UNL     1       5.315   4.384  17.219  0.00  0.00    +0.000 C 
BRANCH  12  13
ATOM     13  S   UNL     1       7.028   4.878  16.777  0.00  0.00    +0.000 S 
BRANCH  13  14
ATOM     14  C   UNL     1       7.002   4.691  15.010  0.00  0.00    +0.000 A 
ATOM     15  C   UNL     1       6.107   3.788  14.436  0.00  0.00    +0.000 A 
ATOM     16  C   UNL     1       6.113   3.622  13.052  0.00  0.00    +0.000 A 
ATOM     17  C   UNL     1       7.004   4.362  12.288  0.00  0.00    +0.000 A 
ATOM     18  C   UNL     1       7.850   5.243  12.941  0.00  0.00    +0.000 A 
ATOM     19  N   UNL     1       7.868   5.425  14.279  0.00  0.00    +0.000 NA
ENDBRANCH  13  14
ENDBRANCH  12  13
ENDBRANCH   2  12
TORSDOF 3
ENDMDL
MODEL 8
REMARK VINA RESULT:      -7.2      2.174      3.248
REMARK  Name = 
REMARK  3 active torsions:
REMARK  status: ('A' for Active; 'I' for Inactive)
REMARK    1  A    between atoms: C_2  and  C_3
REMARK    2  A    between atoms: C_3  and  S_4
REMARK    3  A    between atoms: S_4  and  C_5
REMARK                            x       y       z     vdW  Elec       q    Type
REMARK                         _______ _______ _______ _____ _____    ______ ____
ROOT
ATOM      1  O   UNL     1       4.291   5.554  16.725  0.00  0.00    +0.000 OA
ATOM      2  C   UNL     1       4.425   4.332  16.772  0.00  0.00    +0.000 C 
ATOM      3  N   UNL     1       3.680   3.523  17.627  0.00  0.00    +0.000 N 
ATOM      4  C   UNL     1       3.742   2.054  17.736  0.00  0.00    +0.000 C 
ATOM      5  C   UNL     1       2.639   1.619  18.715  0.00  0.00    +0.000 C 
ATOM      6  C   UNL     1       2.227   2.924  19.313  0.00  0.00    +0.000 A 
ATOM      7  C   UNL     1       1.346   3.133  20.367  0.00  0.00    +0.000 A 
ATOM      8  C   UNL     1       1.057   4.446  20.741  0.00  0.00    +0.000 A 
ATOM      9  C   UNL     1       1.641   5.523  20.060  0.00  0.00    +0.000 A 
ATOM     10  C   UNL     1       2.521   5.299  18.997  0.00  0.00    +0.000 A 
ATOM     11  C   UNL     1       2.810   3.995  18.634  0.00  0.00    +0.000 A 
ENDROOT
BRANCH   2  12
ATOM     12  C   UNL     1       5.436   3.598  15.883  0.00  0.00    +0.000 C 
BRANCH  12  13
ATOM     13  S   UNL     1       6.657   4.770  15.168  0.00  0.00    +0.000 S 
BRANCH  13  14
ATOM     14  C   UNL     1       7.256   5.587  16.628  0.00  0.00    +0.000 A 
ATOM     15  C   UNL     1       7.536   4.827  17.764  0.00  0.00    +0.000 A 
ATOM     16  C   UNL     1       7.975   5.477  18.916  0.00  0.00    +0.000 A 
ATOM     17  C   UNL     1       8.126   6.856  18.897  0.00  0.00    +0.000 A 
ATOM     18  C   UNL     1       7.836   7.529  17.722  0.00  0.00    +0.000 A 
ATOM     19  N   UNL     1       7.407   6.928  16.591  0.00  0.00    +0.000 NA
ENDBRANCH  13  14
ENDBRANCH  12  13
ENDBRANCH   2  12
TORSDOF 3
ENDMDL
MODEL 9
REMARK VINA RESULT:      -7.2      4.125      5.224
REMARK  Name = 
REMARK  3 active torsions:
REMARK  status: ('A' for Active; 'I' for Inactive)
REMARK    1  A    between atoms: C_2  and  C_3
REMARK    2  A    between atoms: C_3  and  S_4
REMARK    3  A    between atoms: S_4  and  C_5
REMARK                            x       y       z     vdW  Elec       q    Type
REMARK                         _______ _______ _______ _____ _____    ______ ____
ROOT
ATOM      1  O   UNL     1       2.356   5.328  20.817  0.00  0.00    +0.000 OA
ATOM      2  C   UNL     1       2.536   5.691  19.655  0.00  0.00    +0.000 C 
ATOM      3  N   UNL     1       2.257   6.984  19.218  0.00  0.00    +0.000 N 
ATOM      4  C   UNL     1       2.465   7.526  17.863  0.00  0.00    +0.000 C 
ATOM      5  C   UNL     1       2.136   9.027  17.912  0.00  0.00    +0.000 C 
ATOM      6  C   UNL     1       1.479   9.154  19.247  0.00  0.00    +0.000 A 
ATOM      7  C   UNL     1       0.851  10.272  19.780  0.00  0.00    +0.000 A 
ATOM      8  C   UNL     1       0.340  10.194  21.077  0.00  0.00    +0.000 A 
ATOM      9  C   UNL     1       0.469   9.013  21.819  0.00  0.00    +0.000 A 
ATOM     10  C   UNL     1       1.108   7.896  21.274  0.00  0.00    +0.000 A 
ATOM     11  C   UNL     1       1.607   7.976  19.985  0.00  0.00    +0.000 A 
ENDROOT
BRANCH   2  12
ATOM     12  C   UNL     1       3.083   4.737  18.588  0.00  0.00    +0.000 C 
BRANCH  12  13
ATOM     13  S   UNL     1       4.589   3.873  19.186  0.00  0.00    +0.000 S 
BRANCH  13  14
ATOM     14  C   UNL     1       5.851   5.067  18.809  0.00  0.00    +0.000 A 
ATOM     15  C   UNL     1       5.693   5.893  17.697  0.00  0.00    +0.000 A 
ATOM     16  C   UNL     1       6.701   6.805  17.388  0.00  0.00    +0.000 A 
ATOM     17  C   UNL     1       7.826   6.868  18.198  0.00  0.00    +0.000 A 
ATOM     18  C   UNL     1       7.893   6.017  19.289  0.00  0.00    +0.000 A 
ATOM     19  N   UNL     1       6.935   5.123  19.612  0.00  0.00    +0.000 NA
ENDBRANCH  13  14
ENDBRANCH  12  13
ENDBRANCH   2  12
TORSDOF 3
ENDMDL
