MODEL 1
REMARK VINA RESULT:      -8.4      0.000      0.000
REMARK  Name = 
REMARK  8 active torsions:
REMARK  status: ('A' for Active; 'I' for Inactive)
REMARK    1  A    between atoms: C_1  and  C_2
REMARK    2  A    between atoms: C_5  and  N_6
REMARK    3  A    between atoms: C_7  and  C_9
REMARK    4  A    between atoms: C_12  and  S_13
REMARK    5  A    between atoms: S_13  and  N_16
REMARK    6  A    between atoms: N_16  and  C_17
REMARK    7  A    between atoms: C_17  and  C_18
REMARK    8  A    between atoms: C_26  and  C_27
REMARK                            x       y       z     vdW  Elec       q    Type
REMARK                         _______ _______ _______ _____ _____    ______ ____
ROOT
ATOM      1  C   UNL     1       2.028   8.264  18.958  0.00  0.00    +0.000 A 
ATOM      2  C   UNL     1       2.736   8.360  17.749  0.00  0.00    +0.000 A 
ATOM      3  C   UNL     1       3.604   7.348  17.348  0.00  0.00    +0.000 A 
ATOM      4  C   UNL     1       3.771   6.226  18.159  0.00  0.00    +0.000 A 
ATOM      5  C   UNL     1       3.075   6.119  19.370  0.00  0.00    +0.000 A 
ATOM      6  C   UNL     1       2.218   7.149  19.781  0.00  0.00    +0.000 A 
ENDROOT
BRANCH   1   8
ATOM      7  N   UNL     1       1.135   9.841  20.610  0.00  0.00    +0.000 N 
ATOM      8  C   UNL     1       1.116   9.392  19.296  0.00  0.00    +0.000 C 
ATOM      9  O   UNL     1       0.402   9.802  18.388  0.00  0.00    +0.000 OA
ATOM     10  H   UNL     1       1.749   9.365  21.247  0.00  0.00    +0.000 HD
BRANCH   7  15
ATOM     11  C   UNL     1      -2.253  13.940  22.826  0.00  0.00    +0.000 C 
ATOM     12  C   UNL     1      -1.372  12.870  22.256  0.00  0.00    +0.000 A 
ATOM     13  C   UNL     1      -0.736  13.059  21.038  0.00  0.00    +0.000 A 
ATOM     14  C   UNL     1       0.086  12.064  20.510  0.00  0.00    +0.000 A 
ATOM     15  C   UNL     1       0.302  10.847  21.172  0.00  0.00    +0.000 A 
ATOM     16  C   UNL     1      -0.342  10.641  22.412  0.00  0.00    +0.000 A 
ATOM     17  C   UNL     1      -0.231   9.396  23.254  0.00  0.00    +0.000 C 
ATOM     18  C   UNL     1      -1.172  11.662  22.934  0.00  0.00    +0.000 A 
ENDBRANCH   7  15
ENDBRANCH   1   8
BRANCH   4  19
ATOM     19  S   UNL     1       4.824   4.909  17.590  0.00  0.00    +0.000 S 
ATOM     20  O   UNL     1       5.399   5.336  16.337  0.00  0.00    +0.000 OA
ATOM     21  O   UNL     1       5.644   4.497  18.713  0.00  0.00    +0.000 OA
BRANCH  19  22
ATOM     22  N   UNL     1       3.746   3.643  17.304  0.00  0.00    +0.000 NA
ATOM     23  H   UNL     1       3.693   3.394  16.317  0.00  0.00    +0.000 HD
BRANCH  22  24
ATOM     24  C   UNL     1       3.869   2.493  18.211  0.00  0.00    +0.000 C 
BRANCH  24  25
ATOM     25  C   UNL     1       2.970   2.615  19.405  0.00  0.00    +0.000 A 
ATOM     26  C   UNL     1       1.615   2.926  19.271  0.00  0.00    +0.000 A 
ATOM     27  C   UNL     1       0.830   3.075  20.410  0.00  0.00    +0.000 A 
ATOM     28  C   UNL     1       1.429   2.902  21.648  0.00  0.00    +0.000 A 
ATOM     29  N   UNL     1       2.732   2.594  21.815  0.00  0.00    +0.000 NA
ATOM     30  C   UNL     1       3.471   2.460  20.693  0.00  0.00    +0.000 A 
ENDBRANCH  24  25
ENDBRANCH  22  24
ENDBRANCH  19  22
ENDBRANCH   4  19
TORSDOF 6
ENDMDL
MODEL 2
REMARK VINA RESULT:      -8.4      0.800      1.461
REMARK  Name = 
REMARK  8 active torsions:
REMARK  status: ('A' for Active; 'I' for Inactive)
REMARK    1  A    between atoms: C_1  and  C_2
REMARK    2  A    between atoms: C_5  and  N_6
REMARK    3  A    between atoms: C_7  and  C_9
REMARK    4  A    between atoms: C_12  and  S_13
REMARK    5  A    between atoms: S_13  and  N_16
REMARK    6  A    between atoms: N_16  and  C_17
REMARK    7  A    between atoms: C_17  and  C_18
REMARK    8  A    between atoms: C_26  and  C_27
REMARK                            x       y       z     vdW  Elec       q    Type
REMARK                         _______ _______ _______ _____ _____    ______ ____
ROOT
ATOM      1  C   UNL     1       1.520   8.682  19.330  0.00  0.00    +0.000 A 
ATOM      2  C   UNL     1       2.072   8.855  18.050  0.00  0.00    +0.000 A 
ATOM      3  C   UNL     1       2.963   7.922  17.525  0.00  0.00    +0.000 A 
ATOM      4  C   UNL     1       3.308   6.802  18.280  0.00  0.00    +0.000 A 
ATOM      5  C   UNL     1       2.769   6.620  19.561  0.00  0.00    +0.000 A 
ATOM      6  C   UNL     1       1.890   7.571  20.095  0.00  0.00    +0.000 A 
ENDROOT
BRANCH   1   8
ATOM      7  N   UNL     1       0.824  10.290  21.045  0.00  0.00    +0.000 N 
ATOM      8  C   UNL     1       0.570   9.729  19.801  0.00  0.00    +0.000 C 
ATOM      9  O   UNL     1      -0.373   9.978  19.059  0.00  0.00    +0.000 OA
ATOM     10  H   UNL     1       1.618   9.941  21.551  0.00  0.00    +0.000 HD
BRANCH   7  15
ATOM     11  C   UNL     1      -2.458  14.111  23.840  0.00  0.00    +0.000 C 
ATOM     12  C   UNL     1      -1.601  13.123  23.109  0.00  0.00    +0.000 A 
ATOM     13  C   UNL     1      -1.791  11.761  23.289  0.00  0.00    +0.000 A 
ATOM     14  C   UNL     1      -0.996  10.841  22.606  0.00  0.00    +0.000 A 
ATOM     15  C   UNL     1       0.016  11.244  21.723  0.00  0.00    +0.000 A 
ATOM     16  C   UNL     1       0.221  12.629  21.532  0.00  0.00    +0.000 A 
ATOM     17  C   UNL     1       1.264  13.238  20.631  0.00  0.00    +0.000 C 
ATOM     18  C   UNL     1      -0.596  13.548  22.233  0.00  0.00    +0.000 A 
ENDBRANCH   7  15
ENDBRANCH   1   8
BRANCH   4  19
ATOM     19  S   UNL     1       4.384   5.582  17.559  0.00  0.00    +0.000 S 
ATOM     20  O   UNL     1       4.820   6.102  16.285  0.00  0.00    +0.000 OA
ATOM     21  O   UNL     1       5.322   5.174  18.587  0.00  0.00    +0.000 OA
BRANCH  19  22
ATOM     22  N   UNL     1       3.364   4.264  17.302  0.00  0.00    +0.000 NA
ATOM     23  H   UNL     1       3.183   4.101  16.313  0.00  0.00    +0.000 HD
BRANCH  22  24
ATOM     24  C   UNL     1       3.696   3.052  18.063  0.00  0.00    +0.000 C 
BRANCH  24  25
ATOM     25  C   UNL     1       2.896   2.939  19.326  0.00  0.00    +0.000 A 
ATOM     26  C   UNL     1       1.523   3.192  19.347  0.00  0.00    +0.000 A 
ATOM     27  C   UNL     1       0.831   3.120  20.552  0.00  0.00    +0.000 A 
ATOM     28  C   UNL     1       1.539   2.792  21.698  0.00  0.00    +0.000 A 
ATOM     29  N   UNL     1       2.864   2.535  21.714  0.00  0.00    +0.000 NA
ATOM     30  C   UNL     1       3.511   2.617  20.532  0.00  0.00    +0.000 A 
ENDBRANCH  24  25
ENDBRANCH  22  24
ENDBRANCH  19  22
ENDBRANCH   4  19
TORSDOF 6
ENDMDL
MODEL 3
REMARK VINA RESULT:      -8.4      0.638      1.114
REMARK  Name = 
REMARK  8 active torsions:
REMARK  status: ('A' for Active; 'I' for Inactive)
REMARK    1  A    between atoms: C_1  and  C_2
REMARK    2  A    between atoms: C_5  and  N_6
REMARK    3  A    between atoms: C_7  and  C_9
REMARK    4  A    between atoms: C_12  and  S_13
REMARK    5  A    between atoms: S_13  and  N_16
REMARK    6  A    between atoms: N_16  and  C_17
REMARK    7  A    between atoms: C_17  and  C_18
REMARK    8  A    between atoms: C_26  and  C_27
REMARK                            x       y       z     vdW  Elec       q    Type
REMARK                         _______ _______ _______ _____ _____    ______ ____
ROOT
ATOM      1  C   UNL     1       2.251   8.030  18.714  0.00  0.00    +0.000 A 
ATOM      2  C   UNL     1       2.367   6.983  19.644  0.00  0.00    +0.000 A 
ATOM      3  C   UNL     1       3.282   5.952  19.448  0.00  0.00    +0.000 A 
ATOM      4  C   UNL     1       4.093   5.962  18.314  0.00  0.00    +0.000 A 
ATOM      5  C   UNL     1       3.985   6.997  17.376  0.00  0.00    +0.000 A 
ATOM      6  C   UNL     1       3.048   8.022  17.565  0.00  0.00    +0.000 A 
ENDROOT
BRANCH   1   8
ATOM      7  N   UNL     1       1.062   9.412  20.354  0.00  0.00    +0.000 N 
ATOM      8  C   UNL     1       1.250   9.092  19.017  0.00  0.00    +0.000 C 
ATOM      9  O   UNL     1       0.656   9.565  18.055  0.00  0.00    +0.000 OA
ATOM     10  H   UNL     1       1.599   8.896  21.028  0.00  0.00    +0.000 HD
BRANCH   7  15
ATOM     11  C   UNL     1      -2.809  13.147  22.415  0.00  0.00    +0.000 C 
ATOM     12  C   UNL     1      -1.801  12.173  21.887  0.00  0.00    +0.000 A 
ATOM     13  C   UNL     1      -1.423  12.208  20.552  0.00  0.00    +0.000 A 
ATOM     14  C   UNL     1      -0.482  11.304  20.061  0.00  0.00    +0.000 A 
ATOM     15  C   UNL     1       0.113  10.332  20.878  0.00  0.00    +0.000 A 
ATOM     16  C   UNL     1      -0.265  10.284  22.238  0.00  0.00    +0.000 A 
ATOM     17  C   UNL     1       0.265   9.305  23.254  0.00  0.00    +0.000 C 
ATOM     18  C   UNL     1      -1.220  11.210  22.720  0.00  0.00    +0.000 A 
ENDBRANCH   7  15
ENDBRANCH   1   8
BRANCH   4  19
ATOM     19  S   UNL     1       5.311   4.678  18.122  0.00  0.00    +0.000 S 
ATOM     20  O   UNL     1       6.159   5.059  17.018  0.00  0.00    +0.000 OA
ATOM     21  O   UNL     1       5.845   4.392  19.440  0.00  0.00    +0.000 OA
BRANCH  19  22
ATOM     22  N   UNL     1       4.395   3.333  17.682  0.00  0.00    +0.000 NA
ATOM     23  H   UNL     1       4.624   2.996  16.747  0.00  0.00    +0.000 HD
BRANCH  22  24
ATOM     24  C   UNL     1       4.299   2.275  18.697  0.00  0.00    +0.000 C 
BRANCH  24  25
ATOM     25  C   UNL     1       3.142   2.485  19.627  0.00  0.00    +0.000 A 
ATOM     26  C   UNL     1       1.853   2.723  19.147  0.00  0.00    +0.000 A 
ATOM     27  C   UNL     1       0.818   2.959  20.047  0.00  0.00    +0.000 A 
ATOM     28  C   UNL     1       1.111   2.943  21.402  0.00  0.00    +0.000 A 
ATOM     29  N   UNL     1       2.343   2.709  21.902  0.00  0.00    +0.000 NA
ATOM     30  C   UNL     1       3.328   2.489  21.006  0.00  0.00    +0.000 A 
ENDBRANCH  24  25
ENDBRANCH  22  24
ENDBRANCH  19  22
ENDBRANCH   4  19
TORSDOF 6
ENDMDL
MODEL 4
REMARK VINA RESULT:      -8.4      0.617      1.645
REMARK  Name = 
REMARK  8 active torsions:
REMARK  status: ('A' for Active; 'I' for Inactive)
REMARK    1  A    between atoms: C_1  and  C_2
REMARK    2  A    between atoms: C_5  and  N_6
REMARK    3  A    between atoms: C_7  and  C_9
REMARK    4  A    between atoms: C_12  and  S_13
REMARK    5  A    between atoms: S_13  and  N_16
REMARK    6  A    between atoms: N_16  and  C_17
REMARK    7  A    between atoms: C_17  and  C_18
REMARK    8  A    between atoms: C_26  and  C_27
REMARK                            x       y       z     vdW  Elec       q    Type
REMARK                         _______ _______ _______ _____ _____    ______ ____
ROOT
ATOM      1  C   UNL     1       2.255   7.976  18.923  0.00  0.00    +0.000 A 
ATOM      2  C   UNL     1       2.417   6.861  19.762  0.00  0.00    +0.000 A 
ATOM      3  C   UNL     1       3.292   5.833  19.423  0.00  0.00    +0.000 A 
ATOM      4  C   UNL     1       4.018   5.914  18.235  0.00  0.00    +0.000 A 
ATOM      5  C   UNL     1       3.863   7.018  17.386  0.00  0.00    +0.000 A 
ATOM      6  C   UNL     1       2.966   8.041  17.719  0.00  0.00    +0.000 A 
ENDROOT
BRANCH   1   8
ATOM      7  N   UNL     1       1.385   9.416  20.706  0.00  0.00    +0.000 N 
ATOM      8  C   UNL     1       1.302   9.028  19.376  0.00  0.00    +0.000 C 
ATOM      9  O   UNL     1       0.505   9.434  18.538  0.00  0.00    +0.000 OA
ATOM     10  H   UNL     1       2.068   8.950  21.277  0.00  0.00    +0.000 HD
BRANCH   7  15
ATOM     11  C   UNL     1      -2.064  13.122  23.455  0.00  0.00    +0.000 C 
ATOM     12  C   UNL     1      -1.165  12.164  22.735  0.00  0.00    +0.000 A 
ATOM     13  C   UNL     1      -1.210  10.807  23.024  0.00  0.00    +0.000 A 
ATOM     14  C   UNL     1      -0.375   9.915  22.351  0.00  0.00    +0.000 A 
ATOM     15  C   UNL     1       0.534  10.340  21.372  0.00  0.00    +0.000 A 
ATOM     16  C   UNL     1       0.591  11.720  21.070  0.00  0.00    +0.000 A 
ATOM     17  C   UNL     1       1.509  12.351  20.056  0.00  0.00    +0.000 C 
ATOM     18  C   UNL     1      -0.265  12.611  21.762  0.00  0.00    +0.000 A 
ENDBRANCH   7  15
ENDBRANCH   1   8
BRANCH   4  19
ATOM     19  S   UNL     1       5.191   4.630  17.859  0.00  0.00    +0.000 S 
ATOM     20  O   UNL     1       5.855   5.006  16.635  0.00  0.00    +0.000 OA
ATOM     21  O   UNL     1       5.924   4.347  19.078  0.00  0.00    +0.000 OA
BRANCH  19  22
ATOM     22  N   UNL     1       4.217   3.283  17.573  0.00  0.00    +0.000 NA
ATOM     23  H   UNL     1       4.322   2.922  16.625  0.00  0.00    +0.000 HD
BRANCH  22  24
ATOM     24  C   UNL     1       4.245   2.250  18.618  0.00  0.00    +0.000 C 
BRANCH  24  25
ATOM     25  C   UNL     1       3.159   2.442  19.634  0.00  0.00    +0.000 A 
ATOM     26  C   UNL     1       1.836   2.678  19.254  0.00  0.00    +0.000 A 
ATOM     27  C   UNL     1       0.870   2.897  20.231  0.00  0.00    +0.000 A 
ATOM     28  C   UNL     1       1.263   2.868  21.560  0.00  0.00    +0.000 A 
ATOM     29  N   UNL     1       2.530   2.637  21.964  0.00  0.00    +0.000 NA
ATOM     30  C   UNL     1       3.446   2.432  20.995  0.00  0.00    +0.000 A 
ENDBRANCH  24  25
ENDBRANCH  22  24
ENDBRANCH  19  22
ENDBRANCH   4  19
TORSDOF 6
ENDMDL
MODEL 5
REMARK VINA RESULT:      -8.4      1.172      1.265
REMARK  Name = 
REMARK  8 active torsions:
REMARK  status: ('A' for Active; 'I' for Inactive)
REMARK    1  A    between atoms: C_1  and  C_2
REMARK    2  A    between atoms: C_5  and  N_6
REMARK    3  A    between atoms: C_7  and  C_9
REMARK    4  A    between atoms: C_12  and  S_13
REMARK    5  A    between atoms: S_13  and  N_16
REMARK    6  A    between atoms: N_16  and  C_17
REMARK    7  A    between atoms: C_17  and  C_18
REMARK    8  A    between atoms: C_26  and  C_27
REMARK                            x       y       z     vdW  Elec       q    Type
REMARK                         _______ _______ _______ _____ _____    ______ ____
ROOT
ATOM      1  C   UNL     1       2.578   7.883  18.427  0.00  0.00    +0.000 A 
ATOM      2  C   UNL     1       3.493   7.826  17.363  0.00  0.00    +0.000 A 
ATOM      3  C   UNL     1       4.340   6.732  17.208  0.00  0.00    +0.000 A 
ATOM      4  C   UNL     1       4.277   5.681  18.122  0.00  0.00    +0.000 A 
ATOM      5  C   UNL     1       3.373   5.727  19.192  0.00  0.00    +0.000 A 
ATOM      6  C   UNL     1       2.537   6.839  19.357  0.00  0.00    +0.000 A 
ENDROOT
BRANCH   1   8
ATOM      7  N   UNL     1       0.856   9.180  19.595  0.00  0.00    +0.000 N 
ATOM      8  C   UNL     1       1.708   9.091  18.503  0.00  0.00    +0.000 C 
ATOM      9  O   UNL     1       1.799   9.883  17.572  0.00  0.00    +0.000 OA
ATOM     10  H   UNL     1       0.870   8.419  20.251  0.00  0.00    +0.000 HD
BRANCH   7  15
ATOM     11  C   UNL     1      -3.086  13.282  20.504  0.00  0.00    +0.000 C 
ATOM     12  C   UNL     1      -2.059  12.215  20.275  0.00  0.00    +0.000 A 
ATOM     13  C   UNL     1      -1.761  11.792  18.988  0.00  0.00    +0.000 A 
ATOM     14  C   UNL     1      -0.802  10.802  18.775  0.00  0.00    +0.000 A 
ATOM     15  C   UNL     1      -0.109  10.197  19.833  0.00  0.00    +0.000 A 
ATOM     16  C   UNL     1      -0.405  10.617  21.149  0.00  0.00    +0.000 A 
ATOM     17  C   UNL     1       0.233  10.072  22.401  0.00  0.00    +0.000 C 
ATOM     18  C   UNL     1      -1.380  11.624  21.347  0.00  0.00    +0.000 A 
ENDBRANCH   7  15
ENDBRANCH   1   8
BRANCH   4  19
ATOM     19  S   UNL     1       5.312   4.256  17.861  0.00  0.00    +0.000 S 
ATOM     20  O   UNL     1       6.095   4.513  16.676  0.00  0.00    +0.000 OA
ATOM     21  O   UNL     1       5.925   3.930  19.134  0.00  0.00    +0.000 OA
BRANCH  19  22
ATOM     22  N   UNL     1       4.206   3.024  17.541  0.00  0.00    +0.000 NA
ATOM     23  H   UNL     1       4.294   2.660  16.592  0.00  0.00    +0.000 HD
BRANCH  22  24
ATOM     24  C   UNL     1       4.099   1.987  18.576  0.00  0.00    +0.000 C 
BRANCH  24  25
ATOM     25  C   UNL     1       3.064   2.321  19.608  0.00  0.00    +0.000 A 
ATOM     26  C   UNL     1       1.748   2.624  19.252  0.00  0.00    +0.000 A 
ATOM     27  C   UNL     1       0.833   2.974  20.240  0.00  0.00    +0.000 A 
ATOM     28  C   UNL     1       1.268   3.004  21.556  0.00  0.00    +0.000 A 
ATOM     29  N   UNL     1       2.529   2.712  21.937  0.00  0.00    +0.000 NA
ATOM     30  C   UNL     1       3.396   2.380  20.958  0.00  0.00    +0.000 A 
ENDBRANCH  24  25
ENDBRANCH  22  24
ENDBRANCH  19  22
ENDBRANCH   4  19
TORSDOF 6
ENDMDL
MODEL 6
REMARK VINA RESULT:      -8.3      2.713      4.314
REMARK  Name = 
REMARK  8 active torsions:
REMARK  status: ('A' for Active; 'I' for Inactive)
REMARK    1  A    between atoms: C_1  and  C_2
REMARK    2  A    between atoms: C_5  and  N_6
REMARK    3  A    between atoms: C_7  and  C_9
REMARK    4  A    between atoms: C_12  and  S_13
REMARK    5  A    between atoms: S_13  and  N_16
REMARK    6  A    between atoms: N_16  and  C_17
REMARK    7  A    between atoms: C_17  and  C_18
REMARK    8  A    between atoms: C_26  and  C_27
REMARK                            x       y       z     vdW  Elec       q    Type
REMARK                         _______ _______ _______ _____ _____    ______ ____
ROOT
ATOM      1  C   UNL     1       1.939   7.544  19.719  0.00  0.00    +0.000 A 
ATOM      2  C   UNL     1       2.644   7.330  18.523  0.00  0.00    +0.000 A 
ATOM      3  C   UNL     1       3.196   6.085  18.234  0.00  0.00    +0.000 A 
ATOM      4  C   UNL     1       3.046   5.039  19.144  0.00  0.00    +0.000 A 
ATOM      5  C   UNL     1       2.349   5.241  20.343  0.00  0.00    +0.000 A 
ATOM      6  C   UNL     1       1.812   6.500  20.641  0.00  0.00    +0.000 A 
ENDROOT
BRANCH   1   8
ATOM      7  N   UNL     1       1.325   9.745  18.828  0.00  0.00    +0.000 N 
ATOM      8  C   UNL     1       1.376   8.908  19.934  0.00  0.00    +0.000 C 
ATOM      9  O   UNL     1       1.040   9.180  21.080  0.00  0.00    +0.000 OA
ATOM     10  H   UNL     1       1.685   9.383  17.963  0.00  0.00    +0.000 HD
BRANCH   7  15
ATOM     11  C   UNL     1      -0.332  15.261  18.750  0.00  0.00    +0.000 C 
ATOM     12  C   UNL     1       0.091  13.825  18.770  0.00  0.00    +0.000 A 
ATOM     13  C   UNL     1       1.425  13.488  18.953  0.00  0.00    +0.000 A 
ATOM     14  C   UNL     1       1.818  12.150  18.976  0.00  0.00    +0.000 A 
ATOM     15  C   UNL     1       0.901  11.102  18.814  0.00  0.00    +0.000 A 
ATOM     16  C   UNL     1      -0.460  11.431  18.624  0.00  0.00    +0.000 A 
ATOM     17  C   UNL     1      -1.576  10.438  18.427  0.00  0.00    +0.000 C 
ATOM     18  C   UNL     1      -0.842  12.794  18.606  0.00  0.00    +0.000 A 
ENDBRANCH   7  15
ENDBRANCH   1   8
BRANCH   4  19
ATOM     19  S   UNL     1       3.690   3.436  18.719  0.00  0.00    +0.000 S 
ATOM     20  O   UNL     1       3.259   2.520  19.747  0.00  0.00    +0.000 OA
ATOM     21  O   UNL     1       3.398   3.213  17.316  0.00  0.00    +0.000 OA
BRANCH  19  22
ATOM     22  N   UNL     1       5.360   3.645  18.825  0.00  0.00    +0.000 NA
ATOM     23  H   UNL     1       5.816   2.882  19.324  0.00  0.00    +0.000 HD
BRANCH  22  24
ATOM     24  C   UNL     1       6.028   4.033  17.575  0.00  0.00    +0.000 C 
BRANCH  24  25
ATOM     25  C   UNL     1       6.739   5.347  17.696  0.00  0.00    +0.000 A 
ATOM     26  C   UNL     1       7.594   5.620  18.765  0.00  0.00    +0.000 A 
ATOM     27  C   UNL     1       8.196   6.871  18.861  0.00  0.00    +0.000 A 
ATOM     28  C   UNL     1       7.922   7.808  17.877  0.00  0.00    +0.000 A 
ATOM     29  N   UNL     1       7.106   7.577  16.827  0.00  0.00    +0.000 NA
ATOM     30  C   UNL     1       6.533   6.357  16.761  0.00  0.00    +0.000 A 
ENDBRANCH  24  25
ENDBRANCH  22  24
ENDBRANCH  19  22
ENDBRANCH   4  19
TORSDOF 6
ENDMDL
MODEL 7
REMARK VINA RESULT:      -8.2      2.546      4.116
REMARK  Name = 
REMARK  8 active torsions:
REMARK  status: ('A' for Active; 'I' for Inactive)
REMARK    1  A    between atoms: C_1  and  C_2
REMARK    2  A    between atoms: C_5  and  N_6
REMARK    3  A    between atoms: C_7  and  C_9
REMARK    4  A    between atoms: C_12  and  S_13
REMARK    5  A    between atoms: S_13  and  N_16
REMARK    6  A    between atoms: N_16  and  C_17
REMARK    7  A    between atoms: C_17  and  C_18
REMARK    8  A    between atoms: C_26  and  C_27
REMARK                            x       y       z     vdW  Elec       q    Type
REMARK                         _______ _______ _______ _____ _____    ______ ____
ROOT
ATOM      1  C   UNL     1       2.140   7.403  18.672  0.00  0.00    +0.000 A 
ATOM      2  C   UNL     1       2.429   6.942  19.967  0.00  0.00    +0.000 A 
ATOM      3  C   UNL     1       2.773   5.612  20.192  0.00  0.00    +0.000 A 
ATOM      4  C   UNL     1       2.833   4.728  19.115  0.00  0.00    +0.000 A 
ATOM      5  C   UNL     1       2.542   5.173  17.819  0.00  0.00    +0.000 A 
ATOM      6  C   UNL     1       2.175   6.507  17.599  0.00  0.00    +0.000 A 
ENDROOT
BRANCH   1   8
ATOM      7  N   UNL     1       1.039   9.409  19.554  0.00  0.00    +0.000 N 
ATOM      8  C   UNL     1       1.792   8.845  18.532  0.00  0.00    +0.000 C 
ATOM      9  O   UNL     1       2.173   9.397  17.507  0.00  0.00    +0.000 OA
ATOM     10  H   UNL     1       0.767   8.805  20.309  0.00  0.00    +0.000 HD
BRANCH   7  15
ATOM     11  C   UNL     1      -0.957  14.809  19.737  0.00  0.00    +0.000 C 
ATOM     12  C   UNL     1      -0.444  13.403  19.685  0.00  0.00    +0.000 A 
ATOM     13  C   UNL     1       0.676  13.037  20.417  0.00  0.00    +0.000 A 
ATOM     14  C   UNL     1       1.151  11.726  20.371  0.00  0.00    +0.000 A 
ATOM     15  C   UNL     1       0.532  10.736  19.596  0.00  0.00    +0.000 A 
ATOM     16  C   UNL     1      -0.609  11.096  18.844  0.00  0.00    +0.000 A 
ATOM     17  C   UNL     1      -1.393  10.168  17.953  0.00  0.00    +0.000 C 
ATOM     18  C   UNL     1      -1.078  12.431  18.903  0.00  0.00    +0.000 A 
ENDBRANCH   7  15
ENDBRANCH   1   8
BRANCH   4  19
ATOM     19  S   UNL     1       3.352   3.052  19.412  0.00  0.00    +0.000 S 
ATOM     20  O   UNL     1       3.221   2.812  20.829  0.00  0.00    +0.000 OA
ATOM     21  O   UNL     1       2.696   2.217  18.424  0.00  0.00    +0.000 OA
BRANCH  19  22
ATOM     22  N   UNL     1       4.988   3.071  19.001  0.00  0.00    +0.000 NA
ATOM     23  H   UNL     1       5.217   2.378  18.290  0.00  0.00    +0.000 HD
BRANCH  22  24
ATOM     24  C   UNL     1       5.560   4.402  18.753  0.00  0.00    +0.000 C 
BRANCH  24  25
ATOM     25  C   UNL     1       6.011   4.569  17.333  0.00  0.00    +0.000 A 
ATOM     26  C   UNL     1       5.455   3.818  16.296  0.00  0.00    +0.000 A 
ATOM     27  C   UNL     1       5.937   3.973  15.000  0.00  0.00    +0.000 A 
ATOM     28  C   UNL     1       6.962   4.882  14.786  0.00  0.00    +0.000 A 
ATOM     29  N   UNL     1       7.519   5.629  15.762  0.00  0.00    +0.000 NA
ATOM     30  C   UNL     1       7.035   5.454  17.009  0.00  0.00    +0.000 A 
ENDBRANCH  24  25
ENDBRANCH  22  24
ENDBRANCH  19  22
ENDBRANCH   4  19
TORSDOF 6
ENDMDL
MODEL 8
REMARK VINA RESULT:      -8.2      1.335      1.875
REMARK  Name = 
REMARK  8 active torsions:
REMARK  status: ('A' for Active; 'I' for Inactive)
REMARK    1  A    between atoms: C_1  and  C_2
REMARK    2  A    between atoms: C_5  and  N_6
REMARK    3  A    between atoms: C_7  and  C_9
REMARK    4  A    between atoms: C_12  and  S_13
REMARK    5  A    between atoms: S_13  and  N_16
REMARK    6  A    between atoms: N_16  and  C_17
REMARK    7  A    between atoms: C_17  and  C_18
REMARK    8  A    between atoms: C_26  and  C_27
REMARK                            x       y       z     vdW  Elec       q    Type
REMARK                         _______ _______ _______ _____ _____    ______ ____
ROOT
ATOM      1  C   UNL     1       2.516   7.939  18.055  0.00  0.00    +0.000 A 
ATOM      2  C   UNL     1       3.815   7.996  17.523  0.00  0.00    +0.000 A 
ATOM      3  C   UNL     1       4.540   6.832  17.283  0.00  0.00    +0.000 A 
ATOM      4  C   UNL     1       3.967   5.594  17.574  0.00  0.00    +0.000 A 
ATOM      5  C   UNL     1       2.674   5.523  18.110  0.00  0.00    +0.000 A 
ATOM      6  C   UNL     1       1.955   6.697  18.370  0.00  0.00    +0.000 A 
ENDROOT
BRANCH   1   8
ATOM      7  N   UNL     1       0.842   9.269  19.255  0.00  0.00    +0.000 N 
ATOM      8  C   UNL     1       1.817   9.238  18.267  0.00  0.00    +0.000 C 
ATOM      9  O   UNL     1       2.144  10.156  17.525  0.00  0.00    +0.000 OA
ATOM     10  H   UNL     1       0.661   8.413  19.747  0.00  0.00    +0.000 HD
BRANCH   7  15
ATOM     11  C   UNL     1      -2.510  13.758  20.595  0.00  0.00    +0.000 C 
ATOM     12  C   UNL     1      -1.643  12.589  20.241  0.00  0.00    +0.000 A 
ATOM     13  C   UNL     1      -0.559  12.252  21.038  0.00  0.00    +0.000 A 
ATOM     14  C   UNL     1       0.246  11.161  20.709  0.00  0.00    +0.000 A 
ATOM     15  C   UNL     1       0.002  10.370  19.578  0.00  0.00    +0.000 A 
ATOM     16  C   UNL     1      -1.098  10.704  18.757  0.00  0.00    +0.000 A 
ATOM     17  C   UNL     1      -1.502   9.972  17.503  0.00  0.00    +0.000 C 
ATOM     18  C   UNL     1      -1.905  11.813  19.106  0.00  0.00    +0.000 A 
ENDBRANCH   7  15
ENDBRANCH   1   8
BRANCH   4  19
ATOM     19  S   UNL     1       4.879   4.116  17.186  0.00  0.00    +0.000 S 
ATOM     20  O   UNL     1       5.347   4.252  15.827  0.00  0.00    +0.000 OA
ATOM     21  O   UNL     1       5.783   3.866  18.291  0.00  0.00    +0.000 OA
BRANCH  19  22
ATOM     22  N   UNL     1       3.706   2.905  17.252  0.00  0.00    +0.000 NA
ATOM     23  H   UNL     1       3.545   2.472  16.343  0.00  0.00    +0.000 HD
BRANCH  22  24
ATOM     24  C   UNL     1       3.848   1.950  18.359  0.00  0.00    +0.000 C 
BRANCH  24  25
ATOM     25  C   UNL     1       2.942   2.277  19.508  0.00  0.00    +0.000 A 
ATOM     26  C   UNL     1       1.584   2.539  19.317  0.00  0.00    +0.000 A 
ATOM     27  C   UNL     1       0.791   2.884  20.408  0.00  0.00    +0.000 A 
ATOM     28  C   UNL     1       1.388   2.951  21.657  0.00  0.00    +0.000 A 
ATOM     29  N   UNL     1       2.695   2.698  21.880  0.00  0.00    +0.000 NA
ATOM     30  C   UNL     1       3.440   2.371  20.804  0.00  0.00    +0.000 A 
ENDBRANCH  24  25
ENDBRANCH  22  24
ENDBRANCH  19  22
ENDBRANCH   4  19
TORSDOF 6
ENDMDL
MODEL 9
REMARK VINA RESULT:      -8.2      3.093      4.612
REMARK  Name = 
REMARK  8 active torsions:
REMARK  status: ('A' for Active; 'I' for Inactive)
REMARK    1  A    between atoms: C_1  and  C_2
REMARK    2  A    between atoms: C_5  and  N_6
REMARK    3  A    between atoms: C_7  and  C_9
REMARK    4  A    between atoms: C_12  and  S_13
REMARK    5  A    between atoms: S_13  and  N_16
REMARK    6  A    between atoms: N_16  and  C_17
REMARK    7  A    between atoms: C_17  and  C_18
REMARK    8  A    between atoms: C_26  and  C_27
REMARK                            x       y       z     vdW  Elec       q    Type
REMARK                         _______ _______ _______ _____ _____    ______ ____
ROOT
ATOM      1  C   UNL     1       2.271   7.968  18.837  0.00  0.00    +0.000 A 
ATOM      2  C   UNL     1       3.110   7.792  17.725  0.00  0.00    +0.000 A 
ATOM      3  C   UNL     1       3.849   6.622  17.566  0.00  0.00    +0.000 A 
ATOM      4  C   UNL     1       3.751   5.614  18.524  0.00  0.00    +0.000 A 
ATOM      5  C   UNL     1       2.921   5.778  19.641  0.00  0.00    +0.000 A 
ATOM      6  C   UNL     1       2.196   6.965  19.810  0.00  0.00    +0.000 A 
ENDROOT
BRANCH   1   8
ATOM      7  N   UNL     1       0.454   9.298  19.809  0.00  0.00    +0.000 N 
ATOM      8  C   UNL     1       1.514   9.250  18.914  0.00  0.00    +0.000 C 
ATOM      9  O   UNL     1       1.877  10.139  18.153  0.00  0.00    +0.000 OA
ATOM     10  H   UNL     1       0.257   8.462  20.331  0.00  0.00    +0.000 HD
BRANCH   7  15
ATOM     11  C   UNL     1      -3.150  13.721  20.602  0.00  0.00    +0.000 C 
ATOM     12  C   UNL     1      -2.217  12.569  20.389  0.00  0.00    +0.000 A 
ATOM     13  C   UNL     1      -1.285  12.231  21.360  0.00  0.00    +0.000 A 
ATOM     14  C   UNL     1      -0.419  11.156  21.163  0.00  0.00    +0.000 A 
ATOM     15  C   UNL     1      -0.446  10.382  19.995  0.00  0.00    +0.000 A 
ATOM     16  C   UNL     1      -1.388  10.717  18.996  0.00  0.00    +0.000 A 
ATOM     17  C   UNL     1      -1.552  10.003  17.680  0.00  0.00    +0.000 C 
ATOM     18  C   UNL     1      -2.261  11.810  19.213  0.00  0.00    +0.000 A 
ENDBRANCH   7  15
ENDBRANCH   1   8
BRANCH   4  19
ATOM     19  S   UNL     1       4.640   4.095  18.261  0.00  0.00    +0.000 S 
ATOM     20  O   UNL     1       5.484   3.892  19.414  0.00  0.00    +0.000 OA
ATOM     21  O   UNL     1       3.677   3.102  17.827  0.00  0.00    +0.000 OA
BRANCH  19  22
ATOM     22  N   UNL     1       5.605   4.434  16.919  0.00  0.00    +0.000 NA
ATOM     23  H   UNL     1       6.596   4.294  17.109  0.00  0.00    +0.000 HD
BRANCH  22  24
ATOM     24  C   UNL     1       5.145   3.855  15.650  0.00  0.00    +0.000 C 
BRANCH  24  25
ATOM     25  C   UNL     1       6.035   4.229  14.502  0.00  0.00    +0.000 A 
ATOM     26  C   UNL     1       5.883   3.648  13.241  0.00  0.00    +0.000 A 
ATOM     27  C   UNL     1       6.762   3.991  12.218  0.00  0.00    +0.000 A 
ATOM     28  C   UNL     1       7.762   4.910  12.492  0.00  0.00    +0.000 A 
ATOM     29  N   UNL     1       7.935   5.495  13.696  0.00  0.00    +0.000 NA
ATOM     30  C   UNL     1       7.071   5.141  14.671  0.00  0.00    +0.000 A 
ENDBRANCH  24  25
ENDBRANCH  22  24
ENDBRANCH  19  22
ENDBRANCH   4  19
TORSDOF 6
ENDMDL
