MODEL 1
REMARK VINA RESULT:      -7.6      0.000      0.000
REMARK  Name = 
REMARK  7 active torsions:
REMARK  status: ('A' for Active; 'I' for Inactive)
REMARK    1  A    between atoms: C_1  and  C_2
REMARK    2  A    between atoms: C_2  and  C_3
REMARK    3  A    between atoms: C_3  and  N_4
REMARK    4  A    between atoms: N_4  and  C_5
REMARK    5  A    between atoms: N_16  and  C_17
REMARK    6  A    between atoms: C_17  and  C_18
REMARK    7  A    between atoms: C_18  and  C_19
REMARK                            x       y       z     vdW  Elec       q    Type
REMARK                         _______ _______ _______ _____ _____    ______ ____
ROOT
ATOM      1  C   UNL     1       6.130   5.273  16.347  0.00  0.00    +0.000 C 
ATOM      2  C   UNL     1       5.637   6.735  16.618  0.00  0.00    +0.000 C 
ATOM      3  C   UNL     1       4.404   6.736  17.487  0.00  0.00    +0.000 A 
ATOM      4  C   UNL     1       3.429   7.729  17.541  0.00  0.00    +0.000 A 
ATOM      5  C   UNL     1       2.320   7.598  18.419  0.00  0.00    +0.000 A 
ATOM      6  C   UNL     1       2.168   6.484  19.269  0.00  0.00    +0.000 A 
ATOM      7  C   UNL     1       3.151   5.527  19.223  0.00  0.00    +0.000 A 
ATOM      8  C   UNL     1       4.221   5.683  18.352  0.00  0.00    +0.000 A 
ATOM      9  N   UNL     1       5.063   4.591  18.474  0.00  0.00    +0.000 N 
ATOM     10  C   UNL     1       4.566   3.726  19.452  0.00  0.00    +0.000 A 
ATOM     11  O   UNL     1       5.059   2.674  19.820  0.00  0.00    +0.000 OA
ATOM     12  N   UNL     1       3.355   4.318  19.910  0.00  0.00    +0.000 N 
ATOM     13  C   UNL     1       6.261   4.493  17.687  0.00  0.00    +0.000 C 
ENDROOT
BRANCH   1  14
ATOM     14  N   UNL     1       7.379   5.271  15.552  0.00  0.00    +0.000 NA
ATOM     15  H   UNL     1       7.803   6.199  15.587  0.00  0.00    +0.000 HD
BRANCH  14  16
ATOM     16  C   UNL     1       7.114   4.919  14.150  0.00  0.00    +0.000 C 
BRANCH  16  18
ATOM     17  C   UNL     1       5.820   3.446  12.603  0.00  0.00    +0.000 C 
ATOM     18  C   UNL     1       5.880   4.032  14.008  0.00  0.00    +0.000 C 
ENDBRANCH  16  18
ENDBRANCH  14  16
ENDBRANCH   1  14
BRANCH  12  19
ATOM     19  C   UNL     1       2.474   3.720  20.876  0.00  0.00    +0.000 C 
BRANCH  19  20
ATOM     20  C   UNL     1       1.717   2.503  20.340  0.00  0.00    +0.000 C 
ATOM     21  C   UNL     1       0.851   2.803  19.124  0.00  0.00    +0.000 C 
ENDBRANCH  19  20
ENDBRANCH  12  19
TORSDOF 5
ENDMDL
MODEL 2
REMARK VINA RESULT:      -7.3      1.087      1.299
REMARK  Name = 
REMARK  7 active torsions:
REMARK  status: ('A' for Active; 'I' for Inactive)
REMARK    1  A    between atoms: C_1  and  C_2
REMARK    2  A    between atoms: C_2  and  C_3
REMARK    3  A    between atoms: C_3  and  N_4
REMARK    4  A    between atoms: N_4  and  C_5
REMARK    5  A    between atoms: N_16  and  C_17
REMARK    6  A    between atoms: C_17  and  C_18
REMARK    7  A    between atoms: C_18  and  C_19
REMARK                            x       y       z     vdW  Elec       q    Type
REMARK                         _______ _______ _______ _____ _____    ______ ____
ROOT
ATOM      1  C   UNL     1       5.940   4.989  15.841  0.00  0.00    +0.000 C 
ATOM      2  C   UNL     1       5.755   6.379  16.540  0.00  0.00    +0.000 C 
ATOM      3  C   UNL     1       4.416   6.463  17.227  0.00  0.00    +0.000 A 
ATOM      4  C   UNL     1       3.703   7.625  17.515  0.00  0.00    +0.000 A 
ATOM      5  C   UNL     1       2.448   7.550  18.178  0.00  0.00    +0.000 A 
ATOM      6  C   UNL     1       1.887   6.321  18.579  0.00  0.00    +0.000 A 
ATOM      7  C   UNL     1       2.614   5.188  18.312  0.00  0.00    +0.000 A 
ATOM      8  C   UNL     1       3.836   5.293  17.660  0.00  0.00    +0.000 A 
ATOM      9  N   UNL     1       4.365   4.026  17.490  0.00  0.00    +0.000 N 
ATOM     10  C   UNL     1       3.508   3.082  18.060  0.00  0.00    +0.000 A 
ATOM     11  O   UNL     1       3.667   1.874  18.098  0.00  0.00    +0.000 OA
ATOM     12  N   UNL     1       2.401   3.822  18.565  0.00  0.00    +0.000 N 
ATOM     13  C   UNL     1       5.634   3.839  16.843  0.00  0.00    +0.000 C 
ENDROOT
BRANCH   1  14
ATOM     14  N   UNL     1       7.282   4.878  15.224  0.00  0.00    +0.000 NA
ATOM     15  H   UNL     1       7.820   5.721  15.431  0.00  0.00    +0.000 HD
BRANCH  14  16
ATOM     16  C   UNL     1       7.184   4.717  13.768  0.00  0.00    +0.000 C 
BRANCH  16  18
ATOM     17  C   UNL     1       6.247   3.199  12.020  0.00  0.00    +0.000 C 
ATOM     18  C   UNL     1       5.986   3.860  13.368  0.00  0.00    +0.000 C 
ENDBRANCH  16  18
ENDBRANCH  14  16
ENDBRANCH   1  14
BRANCH  12  19
ATOM     19  C   UNL     1       1.241   3.233  19.176  0.00  0.00    +0.000 C 
BRANCH  19  20
ATOM     20  C   UNL     1       1.118   3.537  20.671  0.00  0.00    +0.000 C 
ATOM     21  C   UNL     1       2.077   2.736  21.543  0.00  0.00    +0.000 C 
ENDBRANCH  19  20
ENDBRANCH  12  19
TORSDOF 5
ENDMDL
MODEL 3
REMARK VINA RESULT:      -7.0      1.530      1.903
REMARK  Name = 
REMARK  7 active torsions:
REMARK  status: ('A' for Active; 'I' for Inactive)
REMARK    1  A    between atoms: C_1  and  C_2
REMARK    2  A    between atoms: C_2  and  C_3
REMARK    3  A    between atoms: C_3  and  N_4
REMARK    4  A    between atoms: N_4  and  C_5
REMARK    5  A    between atoms: N_16  and  C_17
REMARK    6  A    between atoms: C_17  and  C_18
REMARK    7  A    between atoms: C_18  and  C_19
REMARK                            x       y       z     vdW  Elec       q    Type
REMARK                         _______ _______ _______ _____ _____    ______ ____
ROOT
ATOM      1  C   UNL     1       5.641   4.174  14.848  0.00  0.00    +0.000 C 
ATOM      2  C   UNL     1       5.927   5.590  15.456  0.00  0.00    +0.000 C 
ATOM      3  C   UNL     1       4.851   5.985  16.435  0.00  0.00    +0.000 A 
ATOM      4  C   UNL     1       4.489   7.283  16.789  0.00  0.00    +0.000 A 
ATOM      5  C   UNL     1       3.454   7.504  17.738  0.00  0.00    +0.000 A 
ATOM      6  C   UNL     1       2.772   6.440  18.361  0.00  0.00    +0.000 A 
ATOM      7  C   UNL     1       3.159   5.168  18.021  0.00  0.00    +0.000 A 
ATOM      8  C   UNL     1       4.172   4.984  17.088  0.00  0.00    +0.000 A 
ATOM      9  N   UNL     1       4.370   3.628  16.900  0.00  0.00    +0.000 N 
ATOM     10  C   UNL     1       3.508   2.911  17.735  0.00  0.00    +0.000 A 
ATOM     11  O   UNL     1       3.420   1.699  17.833  0.00  0.00    +0.000 OA
ATOM     12  N   UNL     1       2.742   3.890  18.429  0.00  0.00    +0.000 N 
ATOM     13  C   UNL     1       5.368   3.148  15.985  0.00  0.00    +0.000 C 
ENDROOT
BRANCH   1  14
ATOM     14  N   UNL     1       6.731   3.755  13.939  0.00  0.00    +0.000 NA
ATOM     15  H   UNL     1       7.565   4.312  14.130  0.00  0.00    +0.000 HD
BRANCH  14  16
ATOM     16  C   UNL     1       6.347   3.935  12.533  0.00  0.00    +0.000 C 
BRANCH  16  18
ATOM     17  C   UNL     1       4.258   3.262  11.340  0.00  0.00    +0.000 C 
ATOM     18  C   UNL     1       5.531   2.757  12.009  0.00  0.00    +0.000 C 
ENDBRANCH  16  18
ENDBRANCH  14  16
ENDBRANCH   1  14
BRANCH  12  19
ATOM     19  C   UNL     1       1.677   3.586  19.347  0.00  0.00    +0.000 C 
BRANCH  19  20
ATOM     20  C   UNL     1       2.093   3.685  20.817  0.00  0.00    +0.000 C 
ATOM     21  C   UNL     1       1.417   2.660  21.718  0.00  0.00    +0.000 C 
ENDBRANCH  19  20
ENDBRANCH  12  19
TORSDOF 5
ENDMDL
MODEL 4
REMARK VINA RESULT:      -7.0      0.904      1.035
REMARK  Name = 
REMARK  7 active torsions:
REMARK  status: ('A' for Active; 'I' for Inactive)
REMARK    1  A    between atoms: C_1  and  C_2
REMARK    2  A    between atoms: C_2  and  C_3
REMARK    3  A    between atoms: C_3  and  N_4
REMARK    4  A    between atoms: N_4  and  C_5
REMARK    5  A    between atoms: N_16  and  C_17
REMARK    6  A    between atoms: C_17  and  C_18
REMARK    7  A    between atoms: C_18  and  C_19
REMARK                            x       y       z     vdW  Elec       q    Type
REMARK                         _______ _______ _______ _____ _____    ______ ____
ROOT
ATOM      1  C   UNL     1       5.246   5.460  15.841  0.00  0.00    +0.000 C 
ATOM      2  C   UNL     1       4.933   6.966  16.140  0.00  0.00    +0.000 C 
ATOM      3  C   UNL     1       3.953   7.098  17.278  0.00  0.00    +0.000 A 
ATOM      4  C   UNL     1       3.089   8.167  17.508  0.00  0.00    +0.000 A 
ATOM      5  C   UNL     1       2.222   8.157  18.633  0.00  0.00    +0.000 A 
ATOM      6  C   UNL     1       2.207   7.093  19.557  0.00  0.00    +0.000 A 
ATOM      7  C   UNL     1       3.083   6.060  19.330  0.00  0.00    +0.000 A 
ATOM      8  C   UNL     1       3.916   6.097  18.220  0.00  0.00    +0.000 A 
ATOM      9  N   UNL     1       4.687   4.949  18.198  0.00  0.00    +0.000 N 
ATOM     10  C   UNL     1       4.387   4.164  19.315  0.00  0.00    +0.000 A 
ATOM     11  O   UNL     1       4.883   3.092  19.613  0.00  0.00    +0.000 OA
ATOM     12  N   UNL     1       3.367   4.867  20.016  0.00  0.00    +0.000 N 
ATOM     13  C   UNL     1       5.647   4.725  17.153  0.00  0.00    +0.000 C 
ENDROOT
BRANCH   1  14
ATOM     14  N   UNL     1       6.260   5.329  14.770  0.00  0.00    +0.000 NA
ATOM     15  H   UNL     1       5.981   5.897  13.969  0.00  0.00    +0.000 HD
BRANCH  14  16
ATOM     16  C   UNL     1       6.400   3.931  14.342  0.00  0.00    +0.000 C 
BRANCH  16  18
ATOM     17  C   UNL     1       5.070   3.510  12.270  0.00  0.00    +0.000 C 
ATOM     18  C   UNL     1       6.459   3.804  12.822  0.00  0.00    +0.000 C 
ENDBRANCH  16  18
ENDBRANCH  14  16
ENDBRANCH   1  14
BRANCH  12  19
ATOM     19  C   UNL     1       2.711   4.379  21.198  0.00  0.00    +0.000 C 
BRANCH  19  20
ATOM     20  C   UNL     1       1.458   3.550  20.902  0.00  0.00    +0.000 C 
ATOM     21  C   UNL     1       1.282   2.350  21.822  0.00  0.00    +0.000 C 
ENDBRANCH  19  20
ENDBRANCH  12  19
TORSDOF 5
ENDMDL
MODEL 5
REMARK VINA RESULT:      -6.7      1.054      1.209
REMARK  Name = 
REMARK  7 active torsions:
REMARK  status: ('A' for Active; 'I' for Inactive)
REMARK    1  A    between atoms: C_1  and  C_2
REMARK    2  A    between atoms: C_2  and  C_3
REMARK    3  A    between atoms: C_3  and  N_4
REMARK    4  A    between atoms: N_4  and  C_5
REMARK    5  A    between atoms: N_16  and  C_17
REMARK    6  A    between atoms: C_17  and  C_18
REMARK    7  A    between atoms: C_18  and  C_19
REMARK                            x       y       z     vdW  Elec       q    Type
REMARK                         _______ _______ _______ _____ _____    ______ ____
ROOT
ATOM      1  C   UNL     1       5.317   4.201  15.557  0.00  0.00    +0.000 C 
ATOM      2  C   UNL     1       5.399   5.752  15.764  0.00  0.00    +0.000 C 
ATOM      3  C   UNL     1       4.458   6.202  16.852  0.00  0.00    +0.000 A 
ATOM      4  C   UNL     1       3.896   7.469  16.990  0.00  0.00    +0.000 A 
ATOM      5  C   UNL     1       3.026   7.753  18.078  0.00  0.00    +0.000 A 
ATOM      6  C   UNL     1       2.711   6.786  19.053  0.00  0.00    +0.000 A 
ATOM      7  C   UNL     1       3.293   5.551  18.917  0.00  0.00    +0.000 A 
ATOM      8  C   UNL     1       4.136   5.303  17.842  0.00  0.00    +0.000 A 
ATOM      9  N   UNL     1       4.582   3.995  17.911  0.00  0.00    +0.000 N 
ATOM     10  C   UNL     1       4.058   3.385  19.054  0.00  0.00    +0.000 A 
ATOM     11  O   UNL     1       4.250   2.240  19.428  0.00  0.00    +0.000 OA
ATOM     12  N   UNL     1       3.238   4.368  19.675  0.00  0.00    +0.000 N 
ATOM     13  C   UNL     1       5.478   3.469  16.920  0.00  0.00    +0.000 C 
ENDROOT
BRANCH   1  14
ATOM     14  N   UNL     1       6.290   3.748  14.537  0.00  0.00    +0.000 NA
ATOM     15  H   UNL     1       7.213   4.122  14.761  0.00  0.00    +0.000 HD
BRANCH  14  16
ATOM     16  C   UNL     1       5.901   4.202  13.196  0.00  0.00    +0.000 C 
BRANCH  16  18
ATOM     17  C   UNL     1       5.585   2.268  11.646  0.00  0.00    +0.000 C 
ATOM     18  C   UNL     1       6.547   3.359  12.099  0.00  0.00    +0.000 C 
ENDBRANCH  16  18
ENDBRANCH  14  16
ENDBRANCH   1  14
BRANCH  12  19
ATOM     19  C   UNL     1       2.446   4.139  20.852  0.00  0.00    +0.000 C 
BRANCH  19  20
ATOM     20  C   UNL     1       0.958   3.934  20.556  0.00  0.00    +0.000 C 
ATOM     21  C   UNL     1       0.674   2.796  19.585  0.00  0.00    +0.000 C 
ENDBRANCH  19  20
ENDBRANCH  12  19
TORSDOF 5
ENDMDL
MODEL 6
REMARK VINA RESULT:      -6.6      2.310      5.977
REMARK  Name = 
REMARK  7 active torsions:
REMARK  status: ('A' for Active; 'I' for Inactive)
REMARK    1  A    between atoms: C_1  and  C_2
REMARK    2  A    between atoms: C_2  and  C_3
REMARK    3  A    between atoms: C_3  and  N_4
REMARK    4  A    between atoms: N_4  and  C_5
REMARK    5  A    between atoms: N_16  and  C_17
REMARK    6  A    between atoms: C_17  and  C_18
REMARK    7  A    between atoms: C_18  and  C_19
REMARK                            x       y       z     vdW  Elec       q    Type
REMARK                         _______ _______ _______ _____ _____    ______ ____
ROOT
ATOM      1  C   UNL     1       3.532   3.244  18.481  0.00  0.00    +0.000 C 
ATOM      2  C   UNL     1       3.919   2.811  17.025  0.00  0.00    +0.000 C 
ATOM      3  C   UNL     1       4.872   3.800  16.403  0.00  0.00    +0.000 A 
ATOM      4  C   UNL     1       5.050   4.036  15.042  0.00  0.00    +0.000 A 
ATOM      5  C   UNL     1       5.997   4.999  14.600  0.00  0.00    +0.000 A 
ATOM      6  C   UNL     1       6.792   5.734  15.502  0.00  0.00    +0.000 A 
ATOM      7  C   UNL     1       6.623   5.471  16.838  0.00  0.00    +0.000 A 
ATOM      8  C   UNL     1       5.688   4.526  17.240  0.00  0.00    +0.000 A 
ATOM      9  N   UNL     1       5.689   4.450  18.621  0.00  0.00    +0.000 N 
ATOM     10  C   UNL     1       6.651   5.324  19.135  0.00  0.00    +0.000 A 
ATOM     11  O   UNL     1       6.924   5.507  20.309  0.00  0.00    +0.000 OA
ATOM     12  N   UNL     1       7.226   5.972  18.005  0.00  0.00    +0.000 N 
ATOM     13  C   UNL     1       4.814   3.543  19.310  0.00  0.00    +0.000 C 
ENDROOT
BRANCH   1  14
ATOM     14  N   UNL     1       2.651   2.240  19.118  0.00  0.00    +0.000 NA
ATOM     15  H   UNL     1       2.689   1.369  18.586  0.00  0.00    +0.000 HD
BRANCH  14  16
ATOM     16  C   UNL     1       1.261   2.710  19.167  0.00  0.00    +0.000 C 
BRANCH  16  18
ATOM     17  C   UNL     1       1.725   2.709  21.621  0.00  0.00    +0.000 C 
ATOM     18  C   UNL     1       0.928   3.369  20.503  0.00  0.00    +0.000 C 
ENDBRANCH  16  18
ENDBRANCH  14  16
ENDBRANCH   1  14
BRANCH  12  19
ATOM     19  C   UNL     1       8.218   7.009  18.082  0.00  0.00    +0.000 C 
BRANCH  19  20
ATOM     20  C   UNL     1       7.684   8.392  17.699  0.00  0.00    +0.000 C 
ATOM     21  C   UNL     1       8.532   9.545  18.220  0.00  0.00    +0.000 C 
ENDBRANCH  19  20
ENDBRANCH  12  19
TORSDOF 5
ENDMDL
MODEL 7
REMARK VINA RESULT:      -6.5      2.201      3.832
REMARK  Name = 
REMARK  7 active torsions:
REMARK  status: ('A' for Active; 'I' for Inactive)
REMARK    1  A    between atoms: C_1  and  C_2
REMARK    2  A    between atoms: C_2  and  C_3
REMARK    3  A    between atoms: C_3  and  N_4
REMARK    4  A    between atoms: N_4  and  C_5
REMARK    5  A    between atoms: N_16  and  C_17
REMARK    6  A    between atoms: C_17  and  C_18
REMARK    7  A    between atoms: C_18  and  C_19
REMARK                            x       y       z     vdW  Elec       q    Type
REMARK                         _______ _______ _______ _____ _____    ______ ____
ROOT
ATOM      1  C   UNL     1       4.976   3.970  17.219  0.00  0.00    +0.000 C 
ATOM      2  C   UNL     1       3.857   2.944  17.607  0.00  0.00    +0.000 C 
ATOM      3  C   UNL     1       2.986   3.487  18.712  0.00  0.00    +0.000 A 
ATOM      4  C   UNL     1       2.246   2.741  19.626  0.00  0.00    +0.000 A 
ATOM      5  C   UNL     1       1.460   3.394  20.614  0.00  0.00    +0.000 A 
ATOM      6  C   UNL     1       1.385   4.798  20.701  0.00  0.00    +0.000 A 
ATOM      7  C   UNL     1       2.098   5.518  19.776  0.00  0.00    +0.000 A 
ATOM      8  C   UNL     1       2.860   4.852  18.825  0.00  0.00    +0.000 A 
ATOM      9  N   UNL     1       3.495   5.784  18.023  0.00  0.00    +0.000 N 
ATOM     10  C   UNL     1       3.127   7.071  18.424  0.00  0.00    +0.000 A 
ATOM     11  O   UNL     1       3.494   8.125  17.934  0.00  0.00    +0.000 OA
ATOM     12  N   UNL     1       2.257   6.894  19.536  0.00  0.00    +0.000 N 
ATOM     13  C   UNL     1       4.350   5.368  16.946  0.00  0.00    +0.000 C 
ENDROOT
BRANCH   1  14
ATOM     14  N   UNL     1       5.789   3.469  16.089  0.00  0.00    +0.000 NA
ATOM     15  H   UNL     1       6.211   2.575  16.345  0.00  0.00    +0.000 HD
BRANCH  14  16
ATOM     16  C   UNL     1       6.854   4.418  15.740  0.00  0.00    +0.000 C 
BRANCH  16  18
ATOM     17  C   UNL     1       5.922   3.795  13.508  0.00  0.00    +0.000 C 
ATOM     18  C   UNL     1       6.880   4.723  14.245  0.00  0.00    +0.000 C 
ENDBRANCH  16  18
ENDBRANCH  14  16
ENDBRANCH   1  14
BRANCH  12  19
ATOM     19  C   UNL     1       1.695   7.970  20.306  0.00  0.00    +0.000 C 
BRANCH  19  20
ATOM     20  C   UNL     1       1.023   9.047  19.450  0.00  0.00    +0.000 C 
ATOM     21  C   UNL     1       0.009   9.892  20.208  0.00  0.00    +0.000 C 
ENDBRANCH  19  20
ENDBRANCH  12  19
TORSDOF 5
ENDMDL
MODEL 8
REMARK VINA RESULT:      -6.3      2.072      2.957
REMARK  Name = 
REMARK  7 active torsions:
REMARK  status: ('A' for Active; 'I' for Inactive)
REMARK    1  A    between atoms: C_1  and  C_2
REMARK    2  A    between atoms: C_2  and  C_3
REMARK    3  A    between atoms: C_3  and  N_4
REMARK    4  A    between atoms: N_4  and  C_5
REMARK    5  A    between atoms: N_16  and  C_17
REMARK    6  A    between atoms: C_17  and  C_18
REMARK    7  A    between atoms: C_18  and  C_19
REMARK                            x       y       z     vdW  Elec       q    Type
REMARK                         _______ _______ _______ _____ _____    ______ ____
ROOT
ATOM      1  C   UNL     1       6.212   4.730  14.598  0.00  0.00    +0.000 C 
ATOM      2  C   UNL     1       7.390   4.684  15.629  0.00  0.00    +0.000 C 
ATOM      3  C   UNL     1       6.887   4.897  17.034  0.00  0.00    +0.000 A 
ATOM      4  C   UNL     1       7.618   5.396  18.110  0.00  0.00    +0.000 A 
ATOM      5  C   UNL     1       7.010   5.536  19.386  0.00  0.00    +0.000 A 
ATOM      6  C   UNL     1       5.669   5.169  19.619  0.00  0.00    +0.000 A 
ATOM      7  C   UNL     1       4.971   4.655  18.556  0.00  0.00    +0.000 A 
ATOM      8  C   UNL     1       5.592   4.533  17.320  0.00  0.00    +0.000 A 
ATOM      9  N   UNL     1       4.688   4.011  16.411  0.00  0.00    +0.000 N 
ATOM     10  C   UNL     1       3.475   3.755  17.056  0.00  0.00    +0.000 A 
ATOM     11  O   UNL     1       2.465   3.288  16.559  0.00  0.00    +0.000 OA
ATOM     12  N   UNL     1       3.659   4.175  18.403  0.00  0.00    +0.000 N 
ATOM     13  C   UNL     1       5.069   3.775  15.046  0.00  0.00    +0.000 C 
ENDROOT
BRANCH   1  14
ATOM     14  N   UNL     1       6.694   4.452  13.226  0.00  0.00    +0.000 NA
ATOM     15  H   UNL     1       6.593   5.292  12.655  0.00  0.00    +0.000 HD
BRANCH  14  16
ATOM     16  C   UNL     1       5.932   3.359  12.608  0.00  0.00    +0.000 C 
BRANCH  16  18
ATOM     17  C   UNL     1       6.085   1.268  11.251  0.00  0.00    +0.000 C 
ATOM     18  C   UNL     1       6.765   2.590  11.586  0.00  0.00    +0.000 C 
ENDBRANCH  16  18
ENDBRANCH  14  16
ENDBRANCH   1  14
BRANCH  12  19
ATOM     19  C   UNL     1       2.629   4.155  19.407  0.00  0.00    +0.000 C 
BRANCH  19  20
ATOM     20  C   UNL     1       2.404   2.772  20.022  0.00  0.00    +0.000 C 
ATOM     21  C   UNL     1       2.392   2.769  21.545  0.00  0.00    +0.000 C 
ENDBRANCH  19  20
ENDBRANCH  12  19
TORSDOF 5
ENDMDL
MODEL 9
REMARK VINA RESULT:      -6.3      2.361      6.364
REMARK  Name = 
REMARK  7 active torsions:
REMARK  status: ('A' for Active; 'I' for Inactive)
REMARK    1  A    between atoms: C_1  and  C_2
REMARK    2  A    between atoms: C_2  and  C_3
REMARK    3  A    between atoms: C_3  and  N_4
REMARK    4  A    between atoms: N_4  and  C_5
REMARK    5  A    between atoms: N_16  and  C_17
REMARK    6  A    between atoms: C_17  and  C_18
REMARK    7  A    between atoms: C_18  and  C_19
REMARK                            x       y       z     vdW  Elec       q    Type
REMARK                         _______ _______ _______ _____ _____    ______ ____
ROOT
ATOM      1  C   UNL     1       1.946   6.518  20.038  0.00  0.00    +0.000 C 
ATOM      2  C   UNL     1       1.574   5.077  20.528  0.00  0.00    +0.000 C 
ATOM      3  C   UNL     1       2.033   4.035  19.541  0.00  0.00    +0.000 A 
ATOM      4  C   UNL     1       1.492   2.763  19.366  0.00  0.00    +0.000 A 
ATOM      5  C   UNL     1       2.037   1.880  18.395  0.00  0.00    +0.000 A 
ATOM      6  C   UNL     1       3.137   2.240  17.591  0.00  0.00    +0.000 A 
ATOM      7  C   UNL     1       3.675   3.486  17.794  0.00  0.00    +0.000 A 
ATOM      8  C   UNL     1       3.118   4.328  18.748  0.00  0.00    +0.000 A 
ATOM      9  N   UNL     1       3.815   5.523  18.756  0.00  0.00    +0.000 N 
ATOM     10  C   UNL     1       4.857   5.461  17.826  0.00  0.00    +0.000 A 
ATOM     11  O   UNL     1       5.671   6.333  17.577  0.00  0.00    +0.000 OA
ATOM     12  N   UNL     1       4.753   4.179  17.217  0.00  0.00    +0.000 N 
ATOM     13  C   UNL     1       3.452   6.582  19.656  0.00  0.00    +0.000 C 
ENDROOT
BRANCH   1  14
ATOM     14  N   UNL     1       1.557   7.537  21.038  0.00  0.00    +0.000 NA
ATOM     15  H   UNL     1       0.771   7.189  21.589  0.00  0.00    +0.000 HD
BRANCH  14  16
ATOM     16  C   UNL     1       1.166   8.795  20.388  0.00  0.00    +0.000 C 
BRANCH  16  18
ATOM     17  C   UNL     1      -0.048   9.239  22.525  0.00  0.00    +0.000 C 
ATOM     18  C   UNL     1      -0.094   9.391  21.009  0.00  0.00    +0.000 C 
ENDBRANCH  16  18
ENDBRANCH  14  16
ENDBRANCH   1  14
BRANCH  12  19
ATOM     19  C   UNL     1       5.593   3.719  16.145  0.00  0.00    +0.000 C 
BRANCH  19  20
ATOM     20  C   UNL     1       5.330   4.432  14.816  0.00  0.00    +0.000 C 
ATOM     21  C   UNL     1       6.187   3.923  13.664  0.00  0.00    +0.000 C 
ENDBRANCH  19  20
ENDBRANCH  12  19
TORSDOF 5
ENDMDL
