MODEL 1
REMARK VINA RESULT:      -6.5      0.000      0.000
REMARK  Name = 
REMARK  9 active torsions:
REMARK  status: ('A' for Active; 'I' for Inactive)
REMARK    1  A    between atoms: C_1  and  O_2
REMARK    2  A    between atoms: O_2  and  C_3
REMARK    3  A    between atoms: C_5  and  C_6
REMARK    4  A    between atoms: C_8  and  C_9
REMARK    5  A    between atoms: N_16  and  C_17
REMARK    6  A    between atoms: C_24  and  O_25
REMARK    7  A    between atoms: O_25  and  C_26
REMARK    8  A    between atoms: C_27  and  O_28
REMARK    9  A    between atoms: O_28  and  C_29
REMARK                            x       y       z     vdW  Elec       q    Type
REMARK                         _______ _______ _______ _____ _____    ______ ____
ROOT
ATOM      1  C   UNL     1      -0.910  11.414  20.351  0.00  0.00    +0.000 C 
ATOM      2  C   UNL     1      -0.528   9.949  20.145  0.00  0.00    +0.000 C 
ATOM      3  C   UNL     1       0.794  10.111  19.448  0.00  0.00    +0.000 C 
ATOM      4  N   UNL     1       1.174  11.338  19.235  0.00  0.00    +0.000 NA
ATOM      5  N   UNL     1       0.224  12.144  19.771  0.00  0.00    +0.000 N 
ENDROOT
BRANCH   1   8
ATOM      6  C   UNL     1      -3.797  11.462  17.850  0.00  0.00    +0.000 A 
ATOM      7  C   UNL     1      -2.506  11.339  18.394  0.00  0.00    +0.000 A 
ATOM      8  C   UNL     1      -2.211  11.808  19.674  0.00  0.00    +0.000 A 
ATOM      9  C   UNL     1      -3.196  12.537  20.347  0.00  0.00    +0.000 A 
ATOM     10  C   UNL     1      -4.468  12.752  19.793  0.00  0.00    +0.000 A 
ATOM     11  C   UNL     1      -4.792  12.200  18.534  0.00  0.00    +0.000 A 
BRANCH   6  13
ATOM     12  C   UNL     1      -3.043  10.933  15.662  0.00  0.00    +0.000 C 
ATOM     13  O   UNL     1      -4.084  10.878  16.641  0.00  0.00    +0.000 OA
ENDBRANCH   6  13
BRANCH  10  14
ATOM     14  O   UNL     1      -5.257  13.485  20.645  0.00  0.00    +0.000 OA
ATOM     15  C   UNL     1      -5.760  12.889  21.829  0.00  0.00    +0.000 C 
ENDBRANCH  10  14
BRANCH  11  16
ATOM     16  O   UNL     1      -6.062  12.443  18.088  0.00  0.00    +0.000 OA
ATOM     17  C   UNL     1      -7.113  11.527  18.336  0.00  0.00    +0.000 C 
ENDBRANCH  11  16
ENDBRANCH   1   8
BRANCH   3  18
ATOM     18  C   UNL     1       1.598   8.939  19.069  0.00  0.00    +0.000 A 
ATOM     19  C   UNL     1       2.212   8.893  17.823  0.00  0.00    +0.000 A 
ATOM     20  C   UNL     1       2.990   7.781  17.513  0.00  0.00    +0.000 A 
ATOM     21  C   UNL     1       3.122   6.765  18.454  0.00  0.00    +0.000 A 
ATOM     22  C   UNL     1       2.474   6.899  19.671  0.00  0.00    +0.000 A 
ATOM     23  N   UNL     1       1.715   7.966  20.007  0.00  0.00    +0.000 NA
ENDBRANCH   3  18
BRANCH   5  24
ATOM     24  C   UNL     1       0.380  13.528  19.741  0.00  0.00    +0.000 A 
ATOM     25  C   UNL     1       1.034  14.193  20.791  0.00  0.00    +0.000 A 
ATOM     26  C   UNL     1       1.207  15.579  20.792  0.00  0.00    +0.000 A 
ATOM     27  C   UNL     1       0.707  16.340  19.741  0.00  0.00    +0.000 A 
ATOM     28  C   UNL     1       0.053  15.709  18.687  0.00  0.00    +0.000 A 
ATOM     29  C   UNL     1      -0.100  14.318  18.686  0.00  0.00    +0.000 A 
ENDBRANCH   5  24
TORSDOF 6
ENDMDL
MODEL 2
REMARK VINA RESULT:      -6.4      1.238      1.488
REMARK  Name = 
REMARK  9 active torsions:
REMARK  status: ('A' for Active; 'I' for Inactive)
REMARK    1  A    between atoms: C_1  and  O_2
REMARK    2  A    between atoms: O_2  and  C_3
REMARK    3  A    between atoms: C_5  and  C_6
REMARK    4  A    between atoms: C_8  and  C_9
REMARK    5  A    between atoms: N_16  and  C_17
REMARK    6  A    between atoms: C_24  and  O_25
REMARK    7  A    between atoms: O_25  and  C_26
REMARK    8  A    between atoms: C_27  and  O_28
REMARK    9  A    between atoms: O_28  and  C_29
REMARK                            x       y       z     vdW  Elec       q    Type
REMARK                         _______ _______ _______ _____ _____    ______ ____
ROOT
ATOM      1  C   UNL     1      -0.079  10.734  19.987  0.00  0.00    +0.000 C 
ATOM      2  C   UNL     1       0.195   9.231  19.956  0.00  0.00    +0.000 C 
ATOM      3  C   UNL     1       1.505   9.210  19.219  0.00  0.00    +0.000 C 
ATOM      4  N   UNL     1       1.964  10.371  18.849  0.00  0.00    +0.000 NA
ATOM      5  N   UNL     1       1.087  11.304  19.300  0.00  0.00    +0.000 N 
ENDROOT
BRANCH   1   8
ATOM      6  C   UNL     1      -3.004  10.709  17.531  0.00  0.00    +0.000 A 
ATOM      7  C   UNL     1      -1.712  10.564  18.067  0.00  0.00    +0.000 A 
ATOM      8  C   UNL     1      -1.367  11.136  19.291  0.00  0.00    +0.000 A 
ATOM      9  C   UNL     1      -2.297  11.982  19.903  0.00  0.00    +0.000 A 
ATOM     10  C   UNL     1      -3.565  12.216  19.347  0.00  0.00    +0.000 A 
ATOM     11  C   UNL     1      -3.942  11.566  18.152  0.00  0.00    +0.000 A 
BRANCH   6  13
ATOM     12  C   UNL     1      -3.024  10.680  15.157  0.00  0.00    +0.000 C 
ATOM     13  O   UNL     1      -3.346  10.028  16.388  0.00  0.00    +0.000 OA
ENDBRANCH   6  13
BRANCH  10  14
ATOM     14  O   UNL     1      -4.295  13.073  20.134  0.00  0.00    +0.000 OA
ATOM     15  C   UNL     1      -3.909  13.297  21.479  0.00  0.00    +0.000 C 
ENDBRANCH  10  14
BRANCH  11  16
ATOM     16  O   UNL     1      -5.205  11.837  17.701  0.00  0.00    +0.000 OA
ATOM     17  C   UNL     1      -6.319  11.083  18.143  0.00  0.00    +0.000 C 
ENDBRANCH  11  16
ENDBRANCH   1   8
BRANCH   3  18
ATOM     18  C   UNL     1       2.215   7.946  18.973  0.00  0.00    +0.000 A 
ATOM     19  C   UNL     1       2.977   7.792  17.821  0.00  0.00    +0.000 A 
ATOM     20  C   UNL     1       3.658   6.592  17.638  0.00  0.00    +0.000 A 
ATOM     21  C   UNL     1       3.551   5.599  18.607  0.00  0.00    +0.000 A 
ATOM     22  C   UNL     1       2.769   5.843  19.724  0.00  0.00    +0.000 A 
ATOM     23  N   UNL     1       2.097   6.998  19.936  0.00  0.00    +0.000 NA
ENDBRANCH   3  18
BRANCH   5  24
ATOM     24  C   UNL     1       1.338  12.659  19.095  0.00  0.00    +0.000 A 
ATOM     25  C   UNL     1       2.275  13.070  18.132  0.00  0.00    +0.000 A 
ATOM     26  C   UNL     1       2.552  14.420  17.902  0.00  0.00    +0.000 A 
ATOM     27  C   UNL     1       1.905  15.396  18.650  0.00  0.00    +0.000 A 
ATOM     28  C   UNL     1       0.973  15.019  19.612  0.00  0.00    +0.000 A 
ATOM     29  C   UNL     1       0.689  13.666  19.824  0.00  0.00    +0.000 A 
ENDBRANCH   5  24
TORSDOF 6
ENDMDL
MODEL 3
REMARK VINA RESULT:      -6.4      3.264      6.984
REMARK  Name = 
REMARK  9 active torsions:
REMARK  status: ('A' for Active; 'I' for Inactive)
REMARK    1  A    between atoms: C_1  and  O_2
REMARK    2  A    between atoms: O_2  and  C_3
REMARK    3  A    between atoms: C_5  and  C_6
REMARK    4  A    between atoms: C_8  and  C_9
REMARK    5  A    between atoms: N_16  and  C_17
REMARK    6  A    between atoms: C_24  and  O_25
REMARK    7  A    between atoms: O_25  and  C_26
REMARK    8  A    between atoms: C_27  and  O_28
REMARK    9  A    between atoms: O_28  and  C_29
REMARK                            x       y       z     vdW  Elec       q    Type
REMARK                         _______ _______ _______ _____ _____    ______ ____
ROOT
ATOM      1  C   UNL     1       0.065  10.768  17.932  0.00  0.00    +0.000 C 
ATOM      2  C   UNL     1      -1.423  10.434  17.834  0.00  0.00    +0.000 C 
ATOM      3  C   UNL     1      -2.009  11.580  18.610  0.00  0.00    +0.000 C 
ATOM      4  N   UNL     1      -1.151  12.427  19.101  0.00  0.00    +0.000 NA
ATOM      5  N   UNL     1       0.081  12.014  18.708  0.00  0.00    +0.000 N 
ENDROOT
BRANCH   1   8
ATOM      6  C   UNL     1       1.359   8.396  20.632  0.00  0.00    +0.000 A 
ATOM      7  C   UNL     1       0.825   9.534  20.002  0.00  0.00    +0.000 A 
ATOM      8  C   UNL     1       0.890   9.692  18.617  0.00  0.00    +0.000 A 
ATOM      9  C   UNL     1       1.631   8.759  17.886  0.00  0.00    +0.000 A 
ATOM     10  C   UNL     1       2.250   7.659  18.499  0.00  0.00    +0.000 A 
ATOM     11  C   UNL     1       2.108   7.454  19.890  0.00  0.00    +0.000 A 
BRANCH   6  13
ATOM     12  C   UNL     1       0.563   9.306  22.676  0.00  0.00    +0.000 C 
ATOM     13  O   UNL     1       1.166   8.212  21.980  0.00  0.00    +0.000 OA
ENDBRANCH   6  13
BRANCH  10  14
ATOM     14  O   UNL     1       2.908   6.888  17.573  0.00  0.00    +0.000 OA
ATOM     15  C   UNL     1       4.314   6.998  17.435  0.00  0.00    +0.000 C 
ENDBRANCH  10  14
BRANCH  11  16
ATOM     16  O   UNL     1       2.727   6.342  20.392  0.00  0.00    +0.000 OA
ATOM     17  C   UNL     1       2.028   5.119  20.540  0.00  0.00    +0.000 C 
ENDBRANCH  11  16
ENDBRANCH   1   8
BRANCH   3  18
ATOM     18  C   UNL     1      -3.464  11.724  18.764  0.00  0.00    +0.000 A 
ATOM     19  C   UNL     1      -4.323  11.059  17.896  0.00  0.00    +0.000 A 
ATOM     20  C   UNL     1      -5.694  11.197  18.093  0.00  0.00    +0.000 A 
ATOM     21  C   UNL     1      -6.150  11.989  19.141  0.00  0.00    +0.000 A 
ATOM     22  C   UNL     1      -5.220  12.613  19.956  0.00  0.00    +0.000 A 
ATOM     23  N   UNL     1      -3.882  12.498  19.796  0.00  0.00    +0.000 NA
ENDBRANCH   3  18
BRANCH   5  24
ATOM     24  C   UNL     1       1.210  12.757  19.045  0.00  0.00    +0.000 A 
ATOM     25  C   UNL     1       1.465  13.093  20.385  0.00  0.00    +0.000 A 
ATOM     26  C   UNL     1       2.587  13.838  20.758  0.00  0.00    +0.000 A 
ATOM     27  C   UNL     1       3.476  14.283  19.786  0.00  0.00    +0.000 A 
ATOM     28  C   UNL     1       3.248  13.967  18.450  0.00  0.00    +0.000 A 
ATOM     29  C   UNL     1       2.131  13.206  18.088  0.00  0.00    +0.000 A 
ENDBRANCH   5  24
TORSDOF 6
ENDMDL
MODEL 4
REMARK VINA RESULT:      -6.4      1.948      5.707
REMARK  Name = 
REMARK  9 active torsions:
REMARK  status: ('A' for Active; 'I' for Inactive)
REMARK    1  A    between atoms: C_1  and  O_2
REMARK    2  A    between atoms: O_2  and  C_3
REMARK    3  A    between atoms: C_5  and  C_6
REMARK    4  A    between atoms: C_8  and  C_9
REMARK    5  A    between atoms: N_16  and  C_17
REMARK    6  A    between atoms: C_24  and  O_25
REMARK    7  A    between atoms: O_25  and  C_26
REMARK    8  A    between atoms: C_27  and  O_28
REMARK    9  A    between atoms: O_28  and  C_29
REMARK                            x       y       z     vdW  Elec       q    Type
REMARK                         _______ _______ _______ _____ _____    ______ ____
ROOT
ATOM      1  C   UNL     1      -0.456  12.247  18.771  0.00  0.00    +0.000 C 
ATOM      2  C   UNL     1      -0.098  13.680  18.380  0.00  0.00    +0.000 C 
ATOM      3  C   UNL     1       0.483  14.175  19.675  0.00  0.00    +0.000 C 
ATOM      4  N   UNL     1       0.491  13.319  20.655  0.00  0.00    +0.000 NA
ATOM      5  N   UNL     1      -0.023  12.160  20.171  0.00  0.00    +0.000 N 
ENDROOT
BRANCH   1   8
ATOM      6  C   UNL     1      -4.218  12.284  19.434  0.00  0.00    +0.000 A 
ATOM      7  C   UNL     1      -2.828  12.323  19.640  0.00  0.00    +0.000 A 
ATOM      8  C   UNL     1      -1.936  11.929  18.642  0.00  0.00    +0.000 A 
ATOM      9  C   UNL     1      -2.464  11.355  17.482  0.00  0.00    +0.000 A 
ATOM     10  C   UNL     1      -3.848  11.223  17.284  0.00  0.00    +0.000 A 
ATOM     11  C   UNL     1      -4.750  11.703  18.259  0.00  0.00    +0.000 A 
BRANCH   6  13
ATOM     12  C   UNL     1      -4.560  12.791  21.728  0.00  0.00    +0.000 C 
ATOM     13  O   UNL     1      -5.062  12.797  20.389  0.00  0.00    +0.000 OA
ENDBRANCH   6  13
BRANCH  10  14
ATOM     14  O   UNL     1      -4.115  10.639  16.070  0.00  0.00    +0.000 OA
ATOM     15  C   UNL     1      -3.103  10.575  15.080  0.00  0.00    +0.000 C 
ENDBRANCH  10  14
BRANCH  11  16
ATOM     16  O   UNL     1      -6.077  11.551  17.966  0.00  0.00    +0.000 OA
ATOM     17  C   UNL     1      -6.863  10.568  18.616  0.00  0.00    +0.000 C 
ENDBRANCH  11  16
ENDBRANCH   1   8
BRANCH   3  18
ATOM     18  C   UNL     1       1.027  15.537  19.788  0.00  0.00    +0.000 A 
ATOM     19  C   UNL     1       2.216  15.865  19.147  0.00  0.00    +0.000 A 
ATOM     20  C   UNL     1       2.682  17.172  19.253  0.00  0.00    +0.000 A 
ATOM     21  C   UNL     1       1.947  18.094  19.991  0.00  0.00    +0.000 A 
ATOM     22  C   UNL     1       0.772  17.677  20.594  0.00  0.00    +0.000 A 
ATOM     23  N   UNL     1       0.288  16.417  20.509  0.00  0.00    +0.000 NA
ENDBRANCH   3  18
BRANCH   5  24
ATOM     24  C   UNL     1      -0.097  11.032  20.985  0.00  0.00    +0.000 A 
ATOM     25  C   UNL     1      -0.606  11.131  22.291  0.00  0.00    +0.000 A 
ATOM     26  C   UNL     1      -0.694  10.020  23.134  0.00  0.00    +0.000 A 
ATOM     27  C   UNL     1      -0.252   8.779  22.691  0.00  0.00    +0.000 A 
ATOM     28  C   UNL     1       0.259   8.650  21.404  0.00  0.00    +0.000 A 
ATOM     29  C   UNL     1       0.327   9.765  20.560  0.00  0.00    +0.000 A 
ENDBRANCH   5  24
TORSDOF 6
ENDMDL
MODEL 5
REMARK VINA RESULT:      -6.4      1.973      5.790
REMARK  Name = 
REMARK  9 active torsions:
REMARK  status: ('A' for Active; 'I' for Inactive)
REMARK    1  A    between atoms: C_1  and  O_2
REMARK    2  A    between atoms: O_2  and  C_3
REMARK    3  A    between atoms: C_5  and  C_6
REMARK    4  A    between atoms: C_8  and  C_9
REMARK    5  A    between atoms: N_16  and  C_17
REMARK    6  A    between atoms: C_24  and  O_25
REMARK    7  A    between atoms: O_25  and  C_26
REMARK    8  A    between atoms: C_27  and  O_28
REMARK    9  A    between atoms: O_28  and  C_29
REMARK                            x       y       z     vdW  Elec       q    Type
REMARK                         _______ _______ _______ _____ _____    ______ ____
ROOT
ATOM      1  C   UNL     1      -0.521  12.402  18.832  0.00  0.00    +0.000 C 
ATOM      2  C   UNL     1      -0.196  13.846  18.449  0.00  0.00    +0.000 C 
ATOM      3  C   UNL     1       0.365  14.351  19.749  0.00  0.00    +0.000 C 
ATOM      4  N   UNL     1       0.389  13.490  20.727  0.00  0.00    +0.000 NA
ATOM      5  N   UNL     1      -0.093  12.321  20.235  0.00  0.00    +0.000 N 
ENDROOT
BRANCH   1   8
ATOM      6  C   UNL     1      -4.281  12.309  19.501  0.00  0.00    +0.000 A 
ATOM      7  C   UNL     1      -2.892  12.379  19.707  0.00  0.00    +0.000 A 
ATOM      8  C   UNL     1      -1.991  12.048  18.694  0.00  0.00    +0.000 A 
ATOM      9  C   UNL     1      -2.505  11.503  17.513  0.00  0.00    +0.000 A 
ATOM     10  C   UNL     1      -3.885  11.339  17.312  0.00  0.00    +0.000 A 
ATOM     11  C   UNL     1      -4.798  11.757  18.305  0.00  0.00    +0.000 A 
BRANCH   6  13
ATOM     12  C   UNL     1      -4.550  12.989  21.759  0.00  0.00    +0.000 C 
ATOM     13  O   UNL     1      -5.136  12.762  20.475  0.00  0.00    +0.000 OA
ENDBRANCH   6  13
BRANCH  10  14
ATOM     14  O   UNL     1      -4.139  10.794  16.078  0.00  0.00    +0.000 OA
ATOM     15  C   UNL     1      -3.070  10.560  15.176  0.00  0.00    +0.000 C 
ENDBRANCH  10  14
BRANCH  11  16
ATOM     16  O   UNL     1      -6.121  11.578  18.009  0.00  0.00    +0.000 OA
ATOM     17  C   UNL     1      -6.884  10.566  18.640  0.00  0.00    +0.000 C 
ENDBRANCH  11  16
ENDBRANCH   1   8
BRANCH   3  18
ATOM     18  C   UNL     1       0.873  15.725  19.871  0.00  0.00    +0.000 A 
ATOM     19  C   UNL     1       0.806  16.588  18.784  0.00  0.00    +0.000 A 
ATOM     20  C   UNL     1       1.269  17.891  18.948  0.00  0.00    +0.000 A 
ATOM     21  C   UNL     1       1.779  18.276  20.183  0.00  0.00    +0.000 A 
ATOM     22  C   UNL     1       1.804  17.347  21.210  0.00  0.00    +0.000 A 
ATOM     23  N   UNL     1       1.359  16.076  21.088  0.00  0.00    +0.000 NA
ENDBRANCH   3  18
BRANCH   5  24
ATOM     24  C   UNL     1      -0.144  11.188  21.044  0.00  0.00    +0.000 A 
ATOM     25  C   UNL     1       0.289   9.945  20.554  0.00  0.00    +0.000 A 
ATOM     26  C   UNL     1       0.251   8.790  21.339  0.00  0.00    +0.000 A 
ATOM     27  C   UNL     1      -0.244   8.850  22.636  0.00  0.00    +0.000 A 
ATOM     28  C   UNL     1      -0.682  10.067  23.149  0.00  0.00    +0.000 A 
ATOM     29  C   UNL     1      -0.624  11.223  22.362  0.00  0.00    +0.000 A 
ENDBRANCH   5  24
TORSDOF 6
ENDMDL
MODEL 6
REMARK VINA RESULT:      -6.4      3.457      7.001
REMARK  Name = 
REMARK  9 active torsions:
REMARK  status: ('A' for Active; 'I' for Inactive)
REMARK    1  A    between atoms: C_1  and  O_2
REMARK    2  A    between atoms: O_2  and  C_3
REMARK    3  A    between atoms: C_5  and  C_6
REMARK    4  A    between atoms: C_8  and  C_9
REMARK    5  A    between atoms: N_16  and  C_17
REMARK    6  A    between atoms: C_24  and  O_25
REMARK    7  A    between atoms: O_25  and  C_26
REMARK    8  A    between atoms: C_27  and  O_28
REMARK    9  A    between atoms: O_28  and  C_29
REMARK                            x       y       z     vdW  Elec       q    Type
REMARK                         _______ _______ _______ _____ _____    ______ ____
ROOT
ATOM      1  C   UNL     1      -2.195  13.931  21.704  0.00  0.00    +0.000 C 
ATOM      2  C   UNL     1      -2.327  15.226  22.504  0.00  0.00    +0.000 C 
ATOM      3  C   UNL     1      -1.465  14.900  23.690  0.00  0.00    +0.000 C 
ATOM      4  N   UNL     1      -0.926  13.715  23.689  0.00  0.00    +0.000 NA
ATOM      5  N   UNL     1      -1.298  13.114  22.530  0.00  0.00    +0.000 N 
ENDROOT
BRANCH   1   8
ATOM      6  C   UNL     1      -5.685  12.515  22.343  0.00  0.00    +0.000 A 
ATOM      7  C   UNL     1      -4.356  12.927  22.546  0.00  0.00    +0.000 A 
ATOM      8  C   UNL     1      -3.516  13.218  21.470  0.00  0.00    +0.000 A 
ATOM      9  C   UNL     1      -3.985  12.949  20.181  0.00  0.00    +0.000 A 
ATOM     10  C   UNL     1      -5.279  12.454  19.952  0.00  0.00    +0.000 A 
ATOM     11  C   UNL     1      -6.157  12.243  21.038  0.00  0.00    +0.000 A 
BRANCH   6  13
ATOM     12  C   UNL     1      -7.253  13.523  23.813  0.00  0.00    +0.000 C 
ATOM     13  O   UNL     1      -6.520  12.359  23.422  0.00  0.00    +0.000 OA
ENDBRANCH   6  13
BRANCH  10  14
ATOM     14  O   UNL     1      -5.506  12.278  18.609  0.00  0.00    +0.000 OA
ATOM     15  C   UNL     1      -5.163  11.050  17.991  0.00  0.00    +0.000 C 
ENDBRANCH  10  14
BRANCH  11  16
ATOM     16  O   UNL     1      -7.403  11.782  20.713  0.00  0.00    +0.000 OA
ATOM     17  C   UNL     1      -7.692  10.396  20.700  0.00  0.00    +0.000 C 
ENDBRANCH  11  16
ENDBRANCH   1   8
BRANCH   3  18
ATOM     18  C   UNL     1      -1.239  15.888  24.756  0.00  0.00    +0.000 A 
ATOM     19  C   UNL     1      -1.820  17.148  24.668  0.00  0.00    +0.000 A 
ATOM     20  C   UNL     1      -1.607  18.045  25.712  0.00  0.00    +0.000 A 
ATOM     21  C   UNL     1      -0.827  17.650  26.794  0.00  0.00    +0.000 A 
ATOM     22  C   UNL     1      -0.290  16.373  26.795  0.00  0.00    +0.000 A 
ATOM     23  N   UNL     1      -0.479  15.476  25.801  0.00  0.00    +0.000 NA
ENDBRANCH   3  18
BRANCH   5  24
ATOM     24  C   UNL     1      -0.831  11.839  22.220  0.00  0.00    +0.000 A 
ATOM     25  C   UNL     1      -1.008  10.778  23.124  0.00  0.00    +0.000 A 
ATOM     26  C   UNL     1      -0.551   9.488  22.845  0.00  0.00    +0.000 A 
ATOM     27  C   UNL     1       0.117   9.233  21.654  0.00  0.00    +0.000 A 
ATOM     28  C   UNL     1       0.310  10.264  20.740  0.00  0.00    +0.000 A 
ATOM     29  C   UNL     1      -0.167  11.549  21.019  0.00  0.00    +0.000 A 
ENDBRANCH   5  24
TORSDOF 6
ENDMDL
MODEL 7
REMARK VINA RESULT:      -6.3      1.219      1.681
REMARK  Name = 
REMARK  9 active torsions:
REMARK  status: ('A' for Active; 'I' for Inactive)
REMARK    1  A    between atoms: C_1  and  O_2
REMARK    2  A    between atoms: O_2  and  C_3
REMARK    3  A    between atoms: C_5  and  C_6
REMARK    4  A    between atoms: C_8  and  C_9
REMARK    5  A    between atoms: N_16  and  C_17
REMARK    6  A    between atoms: C_24  and  O_25
REMARK    7  A    between atoms: O_25  and  C_26
REMARK    8  A    between atoms: C_27  and  O_28
REMARK    9  A    between atoms: O_28  and  C_29
REMARK                            x       y       z     vdW  Elec       q    Type
REMARK                         _______ _______ _______ _____ _____    ______ ____
ROOT
ATOM      1  C   UNL     1      -0.344  10.900  20.417  0.00  0.00    +0.000 C 
ATOM      2  C   UNL     1      -0.185   9.386  20.552  0.00  0.00    +0.000 C 
ATOM      3  C   UNL     1       1.134   9.190  19.859  0.00  0.00    +0.000 C 
ATOM      4  N   UNL     1       1.687  10.268  19.381  0.00  0.00    +0.000 NA
ATOM      5  N   UNL     1       0.875  11.306  19.707  0.00  0.00    +0.000 N 
ENDROOT
BRANCH   1   8
ATOM      6  C   UNL     1      -3.124  10.909  17.797  0.00  0.00    +0.000 A 
ATOM      7  C   UNL     1      -1.867  10.746  18.407  0.00  0.00    +0.000 A 
ATOM      8  C   UNL     1      -1.584  11.319  19.647  0.00  0.00    +0.000 A 
ATOM      9  C   UNL     1      -2.534  12.183  20.201  0.00  0.00    +0.000 A 
ATOM     10  C   UNL     1      -3.763  12.434  19.572  0.00  0.00    +0.000 A 
ATOM     11  C   UNL     1      -4.082  11.784  18.359  0.00  0.00    +0.000 A 
BRANCH   6  13
ATOM     12  C   UNL     1      -2.891  10.803  15.436  0.00  0.00    +0.000 C 
ATOM     13  O   UNL     1      -3.411  10.229  16.639  0.00  0.00    +0.000 OA
ENDBRANCH   6  13
BRANCH  10  14
ATOM     14  O   UNL     1      -4.523  13.306  20.312  0.00  0.00    +0.000 OA
ATOM     15  C   UNL     1      -4.980  12.927  21.599  0.00  0.00    +0.000 C 
ENDBRANCH  10  14
BRANCH  11  16
ATOM     16  O   UNL     1      -5.312  12.074  17.835  0.00  0.00    +0.000 OA
ATOM     17  C   UNL     1      -6.445  11.283  18.145  0.00  0.00    +0.000 C 
ENDBRANCH  11  16
ENDBRANCH   1   8
BRANCH   3  18
ATOM     18  C   UNL     1       1.750   7.858  19.766  0.00  0.00    +0.000 A 
ATOM     19  C   UNL     1       1.471   6.896  20.730  0.00  0.00    +0.000 A 
ATOM     20  C   UNL     1       2.049   5.638  20.591  0.00  0.00    +0.000 A 
ATOM     21  C   UNL     1       2.879   5.391  19.502  0.00  0.00    +0.000 A 
ATOM     22  C   UNL     1       3.098   6.411  18.590  0.00  0.00    +0.000 A 
ATOM     23  N   UNL     1       2.550   7.643  18.692  0.00  0.00    +0.000 NA
ENDBRANCH   3  18
BRANCH   5  24
ATOM     24  C   UNL     1       1.233  12.609  19.368  0.00  0.00    +0.000 A 
ATOM     25  C   UNL     1       2.132  12.847  18.315  0.00  0.00    +0.000 A 
ATOM     26  C   UNL     1       2.512  14.141  17.950  0.00  0.00    +0.000 A 
ATOM     27  C   UNL     1       2.012  15.233  18.650  0.00  0.00    +0.000 A 
ATOM     28  C   UNL     1       1.121  15.028  19.699  0.00  0.00    +0.000 A 
ATOM     29  C   UNL     1       0.732  13.729  20.047  0.00  0.00    +0.000 A 
ENDBRANCH   5  24
TORSDOF 6
ENDMDL
MODEL 8
REMARK VINA RESULT:      -6.3      1.614      2.077
REMARK  Name = 
REMARK  9 active torsions:
REMARK  status: ('A' for Active; 'I' for Inactive)
REMARK    1  A    between atoms: C_1  and  O_2
REMARK    2  A    between atoms: O_2  and  C_3
REMARK    3  A    between atoms: C_5  and  C_6
REMARK    4  A    between atoms: C_8  and  C_9
REMARK    5  A    between atoms: N_16  and  C_17
REMARK    6  A    between atoms: C_24  and  O_25
REMARK    7  A    between atoms: O_25  and  C_26
REMARK    8  A    between atoms: C_27  and  O_28
REMARK    9  A    between atoms: O_28  and  C_29
REMARK                            x       y       z     vdW  Elec       q    Type
REMARK                         _______ _______ _______ _____ _____    ______ ____
ROOT
ATOM      1  C   UNL     1       0.397  10.217  19.619  0.00  0.00    +0.000 C 
ATOM      2  C   UNL     1       0.659   8.736  19.348  0.00  0.00    +0.000 C 
ATOM      3  C   UNL     1       1.963   8.824  18.606  0.00  0.00    +0.000 C 
ATOM      4  N   UNL     1       2.428  10.026  18.419  0.00  0.00    +0.000 NA
ATOM      5  N   UNL     1       1.562  10.881  19.020  0.00  0.00    +0.000 N 
ENDROOT
BRANCH   1   8
ATOM      6  C   UNL     1      -2.690  10.437  17.380  0.00  0.00    +0.000 A 
ATOM      7  C   UNL     1      -1.382  10.174  17.825  0.00  0.00    +0.000 A 
ATOM      8  C   UNL     1      -0.894  10.733  19.007  0.00  0.00    +0.000 A 
ATOM      9  C   UNL     1      -1.688  11.679  19.661  0.00  0.00    +0.000 A 
ATOM     10  C   UNL     1      -2.964  12.028  19.191  0.00  0.00    +0.000 A 
ATOM     11  C   UNL     1      -3.491  11.396  18.043  0.00  0.00    +0.000 A 
BRANCH   6  13
ATOM     12  C   UNL     1      -2.913  10.382  15.017  0.00  0.00    +0.000 C 
ATOM     13  O   UNL     1      -3.181   9.773  16.283  0.00  0.00    +0.000 OA
ENDBRANCH   6  13
BRANCH  10  14
ATOM     14  O   UNL     1      -3.546  12.968  20.005  0.00  0.00    +0.000 OA
ATOM     15  C   UNL     1      -3.765  12.677  21.375  0.00  0.00    +0.000 C 
ENDBRANCH  10  14
BRANCH  11  16
ATOM     16  O   UNL     1      -4.750  11.784  17.677  0.00  0.00    +0.000 OA
ATOM     17  C   UNL     1      -5.894  11.081  18.128  0.00  0.00    +0.000 C 
ENDBRANCH  11  16
ENDBRANCH   1   8
BRANCH   3  18
ATOM     18  C   UNL     1       2.661   7.610  18.156  0.00  0.00    +0.000 A 
ATOM     19  C   UNL     1       2.122   6.358  18.431  0.00  0.00    +0.000 A 
ATOM     20  C   UNL     1       2.797   5.235  17.962  0.00  0.00    +0.000 A 
ATOM     21  C   UNL     1       3.975   5.404  17.242  0.00  0.00    +0.000 A 
ATOM     22  C   UNL     1       4.435   6.691  17.015  0.00  0.00    +0.000 A 
ATOM     23  N   UNL     1       3.804   7.805  17.452  0.00  0.00    +0.000 NA
ENDBRANCH   3  18
BRANCH   5  24
ATOM     24  C   UNL     1       1.822  12.250  19.030  0.00  0.00    +0.000 A 
ATOM     25  C   UNL     1       1.578  13.011  20.185  0.00  0.00    +0.000 A 
ATOM     26  C   UNL     1       1.826  14.385  20.229  0.00  0.00    +0.000 A 
ATOM     27  C   UNL     1       2.311  15.036  19.101  0.00  0.00    +0.000 A 
ATOM     28  C   UNL     1       2.562  14.309  17.942  0.00  0.00    +0.000 A 
ATOM     29  C   UNL     1       2.326  12.930  17.912  0.00  0.00    +0.000 A 
ENDBRANCH   5  24
TORSDOF 6
ENDMDL
MODEL 9
REMARK VINA RESULT:      -6.2      3.217      5.597
REMARK  Name = 
REMARK  9 active torsions:
REMARK  status: ('A' for Active; 'I' for Inactive)
REMARK    1  A    between atoms: C_1  and  O_2
REMARK    2  A    between atoms: O_2  and  C_3
REMARK    3  A    between atoms: C_5  and  C_6
REMARK    4  A    between atoms: C_8  and  C_9
REMARK    5  A    between atoms: N_16  and  C_17
REMARK    6  A    between atoms: C_24  and  O_25
REMARK    7  A    between atoms: O_25  and  C_26
REMARK    8  A    between atoms: C_27  and  O_28
REMARK    9  A    between atoms: O_28  and  C_29
REMARK                            x       y       z     vdW  Elec       q    Type
REMARK                         _______ _______ _______ _____ _____    ______ ____
ROOT
ATOM      1  C   UNL     1       0.622  11.525  18.877  0.00  0.00    +0.000 C 
ATOM      2  C   UNL     1       1.569  10.489  18.273  0.00  0.00    +0.000 C 
ATOM      3  C   UNL     1       1.394   9.361  19.250  0.00  0.00    +0.000 C 
ATOM      4  N   UNL     1       0.576   9.590  20.237  0.00  0.00    +0.000 NA
ATOM      5  N   UNL     1       0.072  10.836  20.051  0.00  0.00    +0.000 N 
ENDROOT
BRANCH   1   8
ATOM      6  C   UNL     1       1.454  15.248  19.087  0.00  0.00    +0.000 A 
ATOM      7  C   UNL     1       1.051  13.999  18.583  0.00  0.00    +0.000 A 
ATOM      8  C   UNL     1       1.309  12.819  19.282  0.00  0.00    +0.000 A 
ATOM      9  C   UNL     1       2.109  12.897  20.425  0.00  0.00    +0.000 A 
ATOM     10  C   UNL     1       2.601  14.121  20.904  0.00  0.00    +0.000 A 
ATOM     11  C   UNL     1       2.264  15.324  20.244  0.00  0.00    +0.000 A 
BRANCH   6  13
ATOM     12  C   UNL     1      -0.206  16.920  18.801  0.00  0.00    +0.000 C 
ATOM     13  O   UNL     1       1.074  16.397  18.438  0.00  0.00    +0.000 OA
ENDBRANCH   6  13
BRANCH  10  14
ATOM     14  O   UNL     1       3.351  13.938  22.039  0.00  0.00    +0.000 OA
ATOM     15  C   UNL     1       4.760  14.086  21.985  0.00  0.00    +0.000 C 
ENDBRANCH  10  14
BRANCH  11  16
ATOM     16  O   UNL     1       2.770  16.467  20.798  0.00  0.00    +0.000 OA
ATOM     17  C   UNL     1       2.092  17.134  21.848  0.00  0.00    +0.000 C 
ENDBRANCH  11  16
ENDBRANCH   1   8
BRANCH   3  18
ATOM     18  C   UNL     1       2.093   8.081  19.061  0.00  0.00    +0.000 A 
ATOM     19  C   UNL     1       2.854   7.868  17.918  0.00  0.00    +0.000 A 
ATOM     20  C   UNL     1       3.526   6.656  17.790  0.00  0.00    +0.000 A 
ATOM     21  C   UNL     1       3.411   5.709  18.803  0.00  0.00    +0.000 A 
ATOM     22  C   UNL     1       2.631   6.011  19.908  0.00  0.00    +0.000 A 
ATOM     23  N   UNL     1       1.969   7.179  20.067  0.00  0.00    +0.000 NA
ENDBRANCH   3  18
BRANCH   5  24
ATOM     24  C   UNL     1      -0.879  11.346  20.932  0.00  0.00    +0.000 A 
ATOM     25  C   UNL     1      -0.813  11.041  22.302  0.00  0.00    +0.000 A 
ATOM     26  C   UNL     1      -1.751  11.536  23.212  0.00  0.00    +0.000 A 
ATOM     27  C   UNL     1      -2.795  12.336  22.765  0.00  0.00    +0.000 A 
ATOM     28  C   UNL     1      -2.887  12.654  21.413  0.00  0.00    +0.000 A 
ATOM     29  C   UNL     1      -1.933  12.169  20.511  0.00  0.00    +0.000 A 
ENDBRANCH   5  24
TORSDOF 6
ENDMDL
