MODEL 1
REMARK VINA RESULT:      -7.6      0.000      0.000
REMARK  Name = 
REMARK  4 active torsions:
REMARK  status: ('A' for Active; 'I' for Inactive)
REMARK    1  A    between atoms: C_4  and  C_5
REMARK    2  A    between atoms: C_5  and  N_6
REMARK    3  A    between atoms: N_6  and  C_7
REMARK    4  A    between atoms: C_7  and  C_8
REMARK                            x       y       z     vdW  Elec       q    Type
REMARK                         _______ _______ _______ _____ _____    ______ ____
ROOT
ATOM      1  C   UNL     1       2.950   4.595  19.564  0.00  0.00    +0.000 C 
ATOM      2  C   UNL     1       1.622   4.219  18.887  0.00  0.00    +0.000 C 
ATOM      3  O   UNL     1       1.616   2.815  18.566  0.00  0.00    +0.000 OA
ATOM      4  C   UNL     1       2.513   2.481  17.486  0.00  0.00    +0.000 C 
ATOM      5  C   UNL     1       3.789   3.238  17.625  0.00  0.00    +0.000 A 
ATOM      6  N   UNL     1       4.769   3.385  16.744  0.00  0.00    +0.000 NA
ATOM      7  C   UNL     1       5.691   4.194  17.375  0.00  0.00    +0.000 A 
ATOM      8  C   UNL     1       6.848   4.844  16.930  0.00  0.00    +0.000 A 
ATOM      9  C   UNL     1       7.521   5.650  17.855  0.00  0.00    +0.000 A 
ATOM     10  C   UNL     1       7.083   5.705  19.173  0.00  0.00    +0.000 A 
ATOM     11  N   UNL     1       5.969   5.106  19.646  0.00  0.00    +0.000 NA
ATOM     12  C   UNL     1       5.310   4.432  18.688  0.00  0.00    +0.000 A 
ATOM     13  N   UNL     1       4.016   4.024  18.732  0.00  0.00    +0.000 N 
ENDROOT
BRANCH   1  14
ATOM     14  C   UNL     1       3.114   6.140  19.698  0.00  0.00    +0.000 C 
BRANCH  14  15
ATOM     15  N   UNL     1       2.151   6.927  20.484  0.00  0.00    +0.000 NA
ATOM     16  H   UNL     1       1.284   6.378  20.508  0.00  0.00    +0.000 HD
BRANCH  15  17
ATOM     17  C   UNL     1       1.773   8.218  19.877  0.00  0.00    +0.000 C 
BRANCH  17  21
ATOM     18  C   UNL     1      -0.661  10.621  22.569  0.00  0.00    +0.000 A 
ATOM     19  C   UNL     1      -0.678  10.867  21.197  0.00  0.00    +0.000 A 
ATOM     20  C   UNL     1       0.076  10.075  20.330  0.00  0.00    +0.000 A 
ATOM     21  C   UNL     1       0.890   9.038  20.813  0.00  0.00    +0.000 A 
ATOM     22  C   UNL     1       0.854   8.768  22.194  0.00  0.00    +0.000 A 
ATOM     23  C   UNL     1       0.089   9.558  23.065  0.00  0.00    +0.000 A 
ENDBRANCH  17  21
ENDBRANCH  15  17
ENDBRANCH  14  15
ENDBRANCH   1  14
TORSDOF 4
ENDMDL
MODEL 2
REMARK VINA RESULT:      -7.5      1.075      1.273
REMARK  Name = 
REMARK  4 active torsions:
REMARK  status: ('A' for Active; 'I' for Inactive)
REMARK    1  A    between atoms: C_4  and  C_5
REMARK    2  A    between atoms: C_5  and  N_6
REMARK    3  A    between atoms: N_6  and  C_7
REMARK    4  A    between atoms: C_7  and  C_8
REMARK                            x       y       z     vdW  Elec       q    Type
REMARK                         _______ _______ _______ _____ _____    ______ ____
ROOT
ATOM      1  C   UNL     1       2.441   4.589  20.298  0.00  0.00    +0.000 C 
ATOM      2  C   UNL     1       0.944   4.244  20.272  0.00  0.00    +0.000 C 
ATOM      3  O   UNL     1       0.770   2.820  20.145  0.00  0.00    +0.000 OA
ATOM      4  C   UNL     1       1.131   2.324  18.839  0.00  0.00    +0.000 C 
ATOM      5  C   UNL     1       2.368   2.999  18.355  0.00  0.00    +0.000 A 
ATOM      6  N   UNL     1       2.897   2.993  17.140  0.00  0.00    +0.000 NA
ATOM      7  C   UNL     1       4.018   3.792  17.241  0.00  0.00    +0.000 A 
ATOM      8  C   UNL     1       4.901   4.314  16.289  0.00  0.00    +0.000 A 
ATOM      9  C   UNL     1       5.917   5.155  16.758  0.00  0.00    +0.000 A 
ATOM     10  C   UNL     1       6.067   5.365  18.124  0.00  0.00    +0.000 A 
ATOM     11  N   UNL     1       5.234   4.893  19.077  0.00  0.00    +0.000 NA
ATOM     12  C   UNL     1       4.221   4.179  18.558  0.00  0.00    +0.000 A 
ATOM     13  N   UNL     1       3.052   3.869  19.174  0.00  0.00    +0.000 N 
ENDROOT
BRANCH   1  14
ATOM     14  C   UNL     1       2.684   6.125  20.174  0.00  0.00    +0.000 C 
BRANCH  14  15
ATOM     15  N   UNL     1       1.851   7.074  20.928  0.00  0.00    +0.000 NA
ATOM     16  H   UNL     1       0.957   6.600  21.096  0.00  0.00    +0.000 HD
BRANCH  15  17
ATOM     17  C   UNL     1       1.504   8.305  20.191  0.00  0.00    +0.000 C 
BRANCH  17  21
ATOM     18  C   UNL     1      -0.927  10.990  22.606  0.00  0.00    +0.000 A 
ATOM     19  C   UNL     1      -0.802  11.198  21.233  0.00  0.00    +0.000 A 
ATOM     20  C   UNL     1      -0.051  10.318  20.453  0.00  0.00    +0.000 A 
ATOM     21  C   UNL     1       0.621   9.226  21.028  0.00  0.00    +0.000 A 
ATOM     22  C   UNL     1       0.439   8.999  22.405  0.00  0.00    +0.000 A 
ATOM     23  C   UNL     1      -0.323   9.878  23.188  0.00  0.00    +0.000 A 
ENDBRANCH  17  21
ENDBRANCH  15  17
ENDBRANCH  14  15
ENDBRANCH   1  14
TORSDOF 4
ENDMDL
MODEL 3
REMARK VINA RESULT:      -7.5      0.281      1.004
REMARK  Name = 
REMARK  4 active torsions:
REMARK  status: ('A' for Active; 'I' for Inactive)
REMARK    1  A    between atoms: C_4  and  C_5
REMARK    2  A    between atoms: C_5  and  N_6
REMARK    3  A    between atoms: N_6  and  C_7
REMARK    4  A    between atoms: C_7  and  C_8
REMARK                            x       y       z     vdW  Elec       q    Type
REMARK                         _______ _______ _______ _____ _____    ______ ____
ROOT
ATOM      1  C   UNL     1       2.958   4.664  19.631  0.00  0.00    +0.000 C 
ATOM      2  C   UNL     1       1.614   4.294  18.983  0.00  0.00    +0.000 C 
ATOM      3  O   UNL     1       1.589   2.887  18.674  0.00  0.00    +0.000 OA
ATOM      4  C   UNL     1       2.463   2.536  17.581  0.00  0.00    +0.000 C 
ATOM      5  C   UNL     1       3.748   3.282  17.688  0.00  0.00    +0.000 A 
ATOM      6  N   UNL     1       4.712   3.413  16.788  0.00  0.00    +0.000 NA
ATOM      7  C   UNL     1       5.653   4.219  17.394  0.00  0.00    +0.000 A 
ATOM      8  C   UNL     1       6.807   4.855  16.921  0.00  0.00    +0.000 A 
ATOM      9  C   UNL     1       7.504   5.663  17.825  0.00  0.00    +0.000 A 
ATOM     10  C   UNL     1       7.093   5.734  19.151  0.00  0.00    +0.000 A 
ATOM     11  N   UNL     1       5.982   5.149  19.651  0.00  0.00    +0.000 NA
ATOM     12  C   UNL     1       5.299   4.473  18.712  0.00  0.00    +0.000 A 
ATOM     13  N   UNL     1       4.003   4.076  18.784  0.00  0.00    +0.000 N 
ENDROOT
BRANCH   1  14
ATOM     14  C   UNL     1       3.139   6.209  19.748  0.00  0.00    +0.000 C 
BRANCH  14  15
ATOM     15  N   UNL     1       2.209   7.009  20.560  0.00  0.00    +0.000 NA
ATOM     16  H   UNL     1       1.385   6.418  20.718  0.00  0.00    +0.000 HD
BRANCH  15  17
ATOM     17  C   UNL     1       1.693   8.218  19.890  0.00  0.00    +0.000 C 
BRANCH  17  21
ATOM     18  C   UNL     1      -0.527  10.775  22.626  0.00  0.00    +0.000 A 
ATOM     19  C   UNL     1      -0.251   9.452  22.968  0.00  0.00    +0.000 A 
ATOM     20  C   UNL     1       0.490   8.642  22.107  0.00  0.00    +0.000 A 
ATOM     21  C   UNL     1       0.947   9.122  20.868  0.00  0.00    +0.000 A 
ATOM     22  C   UNL     1       0.707  10.475  20.562  0.00  0.00    +0.000 A 
ATOM     23  C   UNL     1      -0.031  11.292  21.432  0.00  0.00    +0.000 A 
ENDBRANCH  17  21
ENDBRANCH  15  17
ENDBRANCH  14  15
ENDBRANCH   1  14
TORSDOF 4
ENDMDL
MODEL 4
REMARK VINA RESULT:      -7.5      1.849      3.652
REMARK  Name = 
REMARK  4 active torsions:
REMARK  status: ('A' for Active; 'I' for Inactive)
REMARK    1  A    between atoms: C_4  and  C_5
REMARK    2  A    between atoms: C_5  and  N_6
REMARK    3  A    between atoms: N_6  and  C_7
REMARK    4  A    between atoms: C_7  and  C_8
REMARK                            x       y       z     vdW  Elec       q    Type
REMARK                         _______ _______ _______ _____ _____    ______ ____
ROOT
ATOM      1  C   UNL     1       3.464   5.789  17.638  0.00  0.00    +0.000 C 
ATOM      2  C   UNL     1       4.841   6.455  17.493  0.00  0.00    +0.000 C 
ATOM      3  O   UNL     1       5.790   5.510  16.965  0.00  0.00    +0.000 OA
ATOM      4  C   UNL     1       6.144   4.480  17.912  0.00  0.00    +0.000 C 
ATOM      5  C   UNL     1       4.936   4.029  18.659  0.00  0.00    +0.000 A 
ATOM      6  N   UNL     1       4.863   3.276  19.746  0.00  0.00    +0.000 NA
ATOM      7  C   UNL     1       3.515   3.188  20.024  0.00  0.00    +0.000 A 
ATOM      8  C   UNL     1       2.801   2.682  21.117  0.00  0.00    +0.000 A 
ATOM      9  C   UNL     1       1.409   2.818  21.084  0.00  0.00    +0.000 A 
ATOM     10  C   UNL     1       0.791   3.353  19.960  0.00  0.00    +0.000 A 
ATOM     11  N   UNL     1       1.437   3.863  18.889  0.00  0.00    +0.000 NA
ATOM     12  C   UNL     1       2.772   3.798  19.024  0.00  0.00    +0.000 A 
ATOM     13  N   UNL     1       3.691   4.511  18.323  0.00  0.00    +0.000 N 
ENDROOT
BRANCH   1  14
ATOM     14  C   UNL     1       2.469   6.683  18.440  0.00  0.00    +0.000 C 
BRANCH  14  15
ATOM     15  N   UNL     1       2.729   7.005  19.852  0.00  0.00    +0.000 NA
ATOM     16  H   UNL     1       3.326   6.253  20.212  0.00  0.00    +0.000 HD
BRANCH  15  17
ATOM     17  C   UNL     1       1.532   6.995  20.714  0.00  0.00    +0.000 C 
BRANCH  17  21
ATOM     18  C   UNL     1      -0.060  10.993  21.373  0.00  0.00    +0.000 A 
ATOM     19  C   UNL     1      -0.011  10.075  22.420  0.00  0.00    +0.000 A 
ATOM     20  C   UNL     1       0.531   8.805  22.218  0.00  0.00    +0.000 A 
ATOM     21  C   UNL     1       1.008   8.408  20.958  0.00  0.00    +0.000 A 
ATOM     22  C   UNL     1       1.001   9.365  19.926  0.00  0.00    +0.000 A 
ATOM     23  C   UNL     1       0.464  10.645  20.131  0.00  0.00    +0.000 A 
ENDBRANCH  17  21
ENDBRANCH  15  17
ENDBRANCH  14  15
ENDBRANCH   1  14
TORSDOF 4
ENDMDL
MODEL 5
REMARK VINA RESULT:      -7.5      1.854      3.545
REMARK  Name = 
REMARK  4 active torsions:
REMARK  status: ('A' for Active; 'I' for Inactive)
REMARK    1  A    between atoms: C_4  and  C_5
REMARK    2  A    between atoms: C_5  and  N_6
REMARK    3  A    between atoms: N_6  and  C_7
REMARK    4  A    between atoms: C_7  and  C_8
REMARK                            x       y       z     vdW  Elec       q    Type
REMARK                         _______ _______ _______ _____ _____    ______ ____
ROOT
ATOM      1  C   UNL     1       3.480   5.769  17.637  0.00  0.00    +0.000 C 
ATOM      2  C   UNL     1       4.846   6.465  17.531  0.00  0.00    +0.000 C 
ATOM      3  O   UNL     1       5.834   5.536  17.045  0.00  0.00    +0.000 OA
ATOM      4  C   UNL     1       6.179   4.525  18.015  0.00  0.00    +0.000 C 
ATOM      5  C   UNL     1       4.958   4.054  18.726  0.00  0.00    +0.000 A 
ATOM      6  N   UNL     1       4.866   3.310  19.818  0.00  0.00    +0.000 NA
ATOM      7  C   UNL     1       3.511   3.194  20.053  0.00  0.00    +0.000 A 
ATOM      8  C   UNL     1       2.773   2.683  21.126  0.00  0.00    +0.000 A 
ATOM      9  C   UNL     1       1.380   2.786  21.046  0.00  0.00    +0.000 A 
ATOM     10  C   UNL     1       0.788   3.295  19.897  0.00  0.00    +0.000 A 
ATOM     11  N   UNL     1       1.457   3.810  18.842  0.00  0.00    +0.000 NA
ATOM     12  C   UNL     1       2.788   3.776  19.021  0.00  0.00    +0.000 A 
ATOM     13  N   UNL     1       3.713   4.503  18.344  0.00  0.00    +0.000 N 
ENDROOT
BRANCH   1  14
ATOM     14  C   UNL     1       2.439   6.648  18.397  0.00  0.00    +0.000 C 
BRANCH  14  15
ATOM     15  N   UNL     1       2.725   7.134  19.755  0.00  0.00    +0.000 NA
ATOM     16  H   UNL     1       3.434   6.502  20.143  0.00  0.00    +0.000 HD
BRANCH  15  17
ATOM     17  C   UNL     1       1.585   7.054  20.688  0.00  0.00    +0.000 C 
BRANCH  17  21
ATOM     18  C   UNL     1      -0.017  11.018  21.509  0.00  0.00    +0.000 A 
ATOM     19  C   UNL     1       0.456  10.700  20.236  0.00  0.00    +0.000 A 
ATOM     20  C   UNL     1       0.938   9.420  19.963  0.00  0.00    +0.000 A 
ATOM     21  C   UNL     1       0.990   8.433  20.962  0.00  0.00    +0.000 A 
ATOM     22  C   UNL     1       0.458   8.753  22.225  0.00  0.00    +0.000 A 
ATOM     23  C   UNL     1      -0.034  10.038  22.498  0.00  0.00    +0.000 A 
ENDBRANCH  17  21
ENDBRANCH  15  17
ENDBRANCH  14  15
ENDBRANCH   1  14
TORSDOF 4
ENDMDL
MODEL 6
REMARK VINA RESULT:      -7.4      1.314      1.804
REMARK  Name = 
REMARK  4 active torsions:
REMARK  status: ('A' for Active; 'I' for Inactive)
REMARK    1  A    between atoms: C_4  and  C_5
REMARK    2  A    between atoms: C_5  and  N_6
REMARK    3  A    between atoms: N_6  and  C_7
REMARK    4  A    between atoms: C_7  and  C_8
REMARK                            x       y       z     vdW  Elec       q    Type
REMARK                         _______ _______ _______ _____ _____    ______ ____
ROOT
ATOM      1  C   UNL     1       2.422   5.013  20.216  0.00  0.00    +0.000 C 
ATOM      2  C   UNL     1       1.081   4.293  20.430  0.00  0.00    +0.000 C 
ATOM      3  O   UNL     1       1.313   2.914  20.773  0.00  0.00    +0.000 OA
ATOM      4  C   UNL     1       1.805   2.134  19.663  0.00  0.00    +0.000 C 
ATOM      5  C   UNL     1       2.806   2.918  18.885  0.00  0.00    +0.000 A 
ATOM      6  N   UNL     1       3.322   2.657  17.693  0.00  0.00    +0.000 NA
ATOM      7  C   UNL     1       4.174   3.713  17.440  0.00  0.00    +0.000 A 
ATOM      8  C   UNL     1       4.881   4.111  16.299  0.00  0.00    +0.000 A 
ATOM      9  C   UNL     1       5.618   5.297  16.390  0.00  0.00    +0.000 A 
ATOM     10  C   UNL     1       5.696   5.973  17.602  0.00  0.00    +0.000 A 
ATOM     11  N   UNL     1       5.024   5.634  18.724  0.00  0.00    +0.000 NA
ATOM     12  C   UNL     1       4.254   4.548  18.545  0.00  0.00    +0.000 A 
ATOM     13  N   UNL     1       3.216   4.156  19.327  0.00  0.00    +0.000 N 
ENDROOT
BRANCH   1  14
ATOM     14  C   UNL     1       2.226   6.431  19.594  0.00  0.00    +0.000 C 
BRANCH  14  15
ATOM     15  N   UNL     1       2.082   7.610  20.461  0.00  0.00    +0.000 NA
ATOM     16  H   UNL     1       2.911   7.627  21.065  0.00  0.00    +0.000 HD
BRANCH  15  17
ATOM     17  C   UNL     1       0.933   7.554  21.386  0.00  0.00    +0.000 C 
BRANCH  17  21
ATOM     18  C   UNL     1      -0.892  11.462  21.979  0.00  0.00    +0.000 A 
ATOM     19  C   UNL     1      -0.797  10.562  23.040  0.00  0.00    +0.000 A 
ATOM     20  C   UNL     1      -0.182   9.323  22.859  0.00  0.00    +0.000 A 
ATOM     21  C   UNL     1       0.326   8.937  21.607  0.00  0.00    +0.000 A 
ATOM     22  C   UNL     1       0.272   9.878  20.562  0.00  0.00    +0.000 A 
ATOM     23  C   UNL     1      -0.339  11.127  20.746  0.00  0.00    +0.000 A 
ENDBRANCH  17  21
ENDBRANCH  15  17
ENDBRANCH  14  15
ENDBRANCH   1  14
TORSDOF 4
ENDMDL
MODEL 7
REMARK VINA RESULT:      -7.4      2.495      7.372
REMARK  Name = 
REMARK  4 active torsions:
REMARK  status: ('A' for Active; 'I' for Inactive)
REMARK    1  A    between atoms: C_4  and  C_5
REMARK    2  A    between atoms: C_5  and  N_6
REMARK    3  A    between atoms: N_6  and  C_7
REMARK    4  A    between atoms: C_7  and  C_8
REMARK                            x       y       z     vdW  Elec       q    Type
REMARK                         _______ _______ _______ _____ _____    ______ ____
ROOT
ATOM      1  C   UNL     1       4.157   3.894  18.639  0.00  0.00    +0.000 C 
ATOM      2  C   UNL     1       4.631   2.839  19.652  0.00  0.00    +0.000 C 
ATOM      3  O   UNL     1       3.507   2.070  20.120  0.00  0.00    +0.000 OA
ATOM      4  C   UNL     1       2.631   2.823  20.984  0.00  0.00    +0.000 C 
ATOM      5  C   UNL     1       2.457   4.207  20.461  0.00  0.00    +0.000 A 
ATOM      6  N   UNL     1       1.922   5.262  21.060  0.00  0.00    +0.000 NA
ATOM      7  C   UNL     1       2.035   6.284  20.140  0.00  0.00    +0.000 A 
ATOM      8  C   UNL     1       1.815   7.664  20.221  0.00  0.00    +0.000 A 
ATOM      9  C   UNL     1       2.095   8.420  19.078  0.00  0.00    +0.000 A 
ATOM     10  C   UNL     1       2.485   7.785  17.905  0.00  0.00    +0.000 A 
ATOM     11  N   UNL     1       2.721   6.460  17.782  0.00  0.00    +0.000 NA
ATOM     12  C   UNL     1       2.534   5.803  18.938  0.00  0.00    +0.000 A 
ATOM     13  N   UNL     1       3.005   4.569  19.251  0.00  0.00    +0.000 N 
ENDROOT
BRANCH   1  14
ATOM     14  C   UNL     1       5.285   4.917  18.298  0.00  0.00    +0.000 C 
BRANCH  14  15
ATOM     15  N   UNL     1       5.674   5.157  16.900  0.00  0.00    +0.000 NA
ATOM     16  H   UNL     1       5.269   6.063  16.640  0.00  0.00    +0.000 HD
BRANCH  15  17
ATOM     17  C   UNL     1       5.114   4.192  15.934  0.00  0.00    +0.000 C 
BRANCH  17  21
ATOM     18  C   UNL     1       7.241   4.319  12.138  0.00  0.00    +0.000 A 
ATOM     19  C   UNL     1       6.081   3.557  12.268  0.00  0.00    +0.000 A 
ATOM     20  C   UNL     1       5.380   3.543  13.474  0.00  0.00    +0.000 A 
ATOM     21  C   UNL     1       5.836   4.264  14.591  0.00  0.00    +0.000 A 
ATOM     22  C   UNL     1       6.977   5.071  14.426  0.00  0.00    +0.000 A 
ATOM     23  C   UNL     1       7.678   5.092  13.211  0.00  0.00    +0.000 A 
ENDBRANCH  17  21
ENDBRANCH  15  17
ENDBRANCH  14  15
ENDBRANCH   1  14
TORSDOF 4
ENDMDL
MODEL 8
REMARK VINA RESULT:      -7.3      2.194      3.901
REMARK  Name = 
REMARK  4 active torsions:
REMARK  status: ('A' for Active; 'I' for Inactive)
REMARK    1  A    between atoms: C_4  and  C_5
REMARK    2  A    between atoms: C_5  and  N_6
REMARK    3  A    between atoms: N_6  and  C_7
REMARK    4  A    between atoms: C_7  and  C_8
REMARK                            x       y       z     vdW  Elec       q    Type
REMARK                         _______ _______ _______ _____ _____    ______ ____
ROOT
ATOM      1  C   UNL     1       3.818   6.070  17.670  0.00  0.00    +0.000 C 
ATOM      2  C   UNL     1       5.264   6.563  17.507  0.00  0.00    +0.000 C 
ATOM      3  O   UNL     1       6.060   5.547  16.869  0.00  0.00    +0.000 OA
ATOM      4  C   UNL     1       6.312   4.411  17.724  0.00  0.00    +0.000 C 
ATOM      5  C   UNL     1       5.084   4.063  18.493  0.00  0.00    +0.000 A 
ATOM      6  N   UNL     1       4.955   3.244  19.527  0.00  0.00    +0.000 NA
ATOM      7  C   UNL     1       3.617   3.309  19.862  0.00  0.00    +0.000 A 
ATOM      8  C   UNL     1       2.885   2.818  20.949  0.00  0.00    +0.000 A 
ATOM      9  C   UNL     1       1.523   3.133  20.992  0.00  0.00    +0.000 A 
ATOM     10  C   UNL     1       0.938   3.826  19.940  0.00  0.00    +0.000 A 
ATOM     11  N   UNL     1       1.604   4.330  18.878  0.00  0.00    +0.000 NA
ATOM     12  C   UNL     1       2.924   4.084  18.944  0.00  0.00    +0.000 A 
ATOM     13  N   UNL     1       3.901   4.725  18.253  0.00  0.00    +0.000 N 
ENDROOT
BRANCH   1  14
ATOM     14  C   UNL     1       2.980   7.021  18.581  0.00  0.00    +0.000 C 
BRANCH  14  15
ATOM     15  N   UNL     1       1.760   7.661  18.066  0.00  0.00    +0.000 NA
ATOM     16  H   UNL     1       1.579   7.238  17.148  0.00  0.00    +0.000 HD
BRANCH  15  17
ATOM     17  C   UNL     1       1.889   9.108  17.806  0.00  0.00    +0.000 C 
BRANCH  17  21
ATOM     18  C   UNL     1      -1.416  11.256  19.651  0.00  0.00    +0.000 A 
ATOM     19  C   UNL     1      -0.161  11.243  20.257  0.00  0.00    +0.000 A 
ATOM     20  C   UNL     1       0.908  10.583  19.649  0.00  0.00    +0.000 A 
ATOM     21  C   UNL     1       0.743   9.893  18.437  0.00  0.00    +0.000 A 
ATOM     22  C   UNL     1      -0.516   9.963  17.811  0.00  0.00    +0.000 A 
ATOM     23  C   UNL     1      -1.588  10.633  18.418  0.00  0.00    +0.000 A 
ENDBRANCH  17  21
ENDBRANCH  15  17
ENDBRANCH  14  15
ENDBRANCH   1  14
TORSDOF 4
ENDMDL
MODEL 9
REMARK VINA RESULT:      -7.3      2.484      7.401
REMARK  Name = 
REMARK  4 active torsions:
REMARK  status: ('A' for Active; 'I' for Inactive)
REMARK    1  A    between atoms: C_4  and  C_5
REMARK    2  A    between atoms: C_5  and  N_6
REMARK    3  A    between atoms: N_6  and  C_7
REMARK    4  A    between atoms: C_7  and  C_8
REMARK                            x       y       z     vdW  Elec       q    Type
REMARK                         _______ _______ _______ _____ _____    ______ ____
ROOT
ATOM      1  C   UNL     1       3.700   4.105  17.432  0.00  0.00    +0.000 C 
ATOM      2  C   UNL     1       4.091   2.653  17.751  0.00  0.00    +0.000 C 
ATOM      3  O   UNL     1       2.914   1.824  17.784  0.00  0.00    +0.000 OA
ATOM      4  C   UNL     1       2.077   2.082  18.932  0.00  0.00    +0.000 C 
ATOM      5  C   UNL     1       2.000   3.546  19.194  0.00  0.00    +0.000 A 
ATOM      6  N   UNL     1       1.527   4.176  20.260  0.00  0.00    +0.000 NA
ATOM      7  C   UNL     1       1.718   5.516  19.990  0.00  0.00    +0.000 A 
ATOM      8  C   UNL     1       1.586   6.670  20.771  0.00  0.00    +0.000 A 
ATOM      9  C   UNL     1       1.929   7.886  20.170  0.00  0.00    +0.000 A 
ATOM     10  C   UNL     1       2.293   7.918  18.829  0.00  0.00    +0.000 A 
ATOM     11  N   UNL     1       2.445   6.832  18.040  0.00  0.00    +0.000 NA
ATOM     12  C   UNL     1       2.200   5.688  18.701  0.00  0.00    +0.000 A 
ATOM     13  N   UNL     1       2.586   4.441  18.328  0.00  0.00    +0.000 N 
ENDROOT
BRANCH   1  14
ATOM     14  C   UNL     1       4.896   5.086  17.637  0.00  0.00    +0.000 C 
BRANCH  14  15
ATOM     15  N   UNL     1       5.437   5.847  16.501  0.00  0.00    +0.000 NA
ATOM     16  H   UNL     1       4.806   5.672  15.711  0.00  0.00    +0.000 HD
BRANCH  15  17
ATOM     17  C   UNL     1       6.766   5.399  16.040  0.00  0.00    +0.000 C 
BRANCH  17  21
ATOM     18  C   UNL     1       6.680   3.814  11.987  0.00  0.00    +0.000 A 
ATOM     19  C   UNL     1       5.707   3.436  12.910  0.00  0.00    +0.000 A 
ATOM     20  C   UNL     1       5.714   3.969  14.199  0.00  0.00    +0.000 A 
ATOM     21  C   UNL     1       6.711   4.870  14.610  0.00  0.00    +0.000 A 
ATOM     22  C   UNL     1       7.653   5.284  13.650  0.00  0.00    +0.000 A 
ATOM     23  C   UNL     1       7.641   4.754  12.351  0.00  0.00    +0.000 A 
ENDBRANCH  17  21
ENDBRANCH  15  17
ENDBRANCH  14  15
ENDBRANCH   1  14
TORSDOF 4
ENDMDL
