MODEL 1
REMARK VINA RESULT:      -8.8      0.000      0.000
REMARK  Name = 
REMARK  7 active torsions:
REMARK  status: ('A' for Active; 'I' for Inactive)
REMARK    1  A    between atoms: C_1  and  C_2
REMARK    2  A    between atoms: C_4  and  C_5
REMARK    3  A    between atoms: C_15  and  C_16
REMARK    4  A    between atoms: C_15  and  C_17
REMARK    5  A    between atoms: C_19  and  C_21
REMARK    6  A    between atoms: C_21  and  O_22
REMARK    7  A    between atoms: O_22  and  C_23
REMARK                            x       y       z     vdW  Elec       q    Type
REMARK                         _______ _______ _______ _____ _____    ______ ____
ROOT
ATOM      1  C   UNL     1      -3.771  10.366  15.494  0.00  0.00    +0.000 C 
ATOM      2  C   UNL     1      -2.981  10.605  16.746  0.00  0.00    +0.000 A 
ATOM      3  C   UNL     1      -1.752  10.004  16.951  0.00  0.00    +0.000 A 
ATOM      4  C   UNL     1      -0.976  10.276  18.101  0.00  0.00    +0.000 A 
ATOM      5  C   UNL     1       0.443   9.791  17.965  0.00  0.00    +0.000 C 
ATOM      6  C   UNL     1      -1.524  11.032  19.173  0.00  0.00    +0.000 A 
ATOM      7  C   UNL     1      -2.783  11.670  18.948  0.00  0.00    +0.000 A 
ATOM      8  C   UNL     1      -3.448  11.482  17.718  0.00  0.00    +0.000 A 
ATOM      9  C   UNL     1      -3.372  12.574  19.964  0.00  0.00    +0.000 A 
ATOM     10  C   UNL     1      -2.536  13.116  20.874  0.00  0.00    +0.000 A 
ATOM     11  S   UNL     1      -3.210  14.272  22.009  0.00  0.00    +0.000 S 
ATOM     12  S   UNL     1      -4.979  14.463  21.063  0.00  0.00    +0.000 S 
ATOM     13  C   UNL     1      -4.814  13.021  20.065  0.00  0.00    +0.000 A 
ATOM     14  S   UNL     1      -6.207  12.355  19.405  0.00  0.00    +0.000 S 
ATOM     15  C   UNL     1      -1.031  12.750  20.949  0.00  0.00    +0.000 C 
ATOM     16  C   UNL     1      -0.502  13.002  22.396  0.00  0.00    +0.000 C 
ATOM     17  C   UNL     1      -0.235  13.712  20.034  0.00  0.00    +0.000 C 
ATOM     18  N   UNL     1      -0.846  11.305  20.439  0.00  0.00    +0.000 N 
ATOM     19  C   UNL     1       0.069  10.440  21.076  0.00  0.00    +0.000 C 
ATOM     20  O   UNL     1       0.851  10.837  21.951  0.00  0.00    +0.000 OA
ENDROOT
BRANCH  19  21
ATOM     21  C   UNL     1       0.102   8.932  20.809  0.00  0.00    +0.000 C 
BRANCH  21  22
ATOM     22  O   UNL     1       1.481   8.523  20.862  0.00  0.00    +0.000 OA
BRANCH  22  23
ATOM     23  C   UNL     1       1.733   7.289  20.432  0.00  0.00    +0.000 A 
ATOM     24  N   UNL     1       1.273   6.226  21.053  0.00  0.00    +0.000 NA
ATOM     25  C   UNL     1       1.630   5.085  20.350  0.00  0.00    +0.000 A 
ATOM     26  C   UNL     1       1.296   3.769  20.731  0.00  0.00    +0.000 A 
ATOM     27  C   UNL     1       1.702   2.691  19.940  0.00  0.00    +0.000 A 
ATOM     28  C   UNL     1       2.434   2.915  18.775  0.00  0.00    +0.000 A 
ATOM     29  C   UNL     1       2.776   4.212  18.376  0.00  0.00    +0.000 A 
ATOM     30  C   UNL     1       2.360   5.292  19.185  0.00  0.00    +0.000 A 
ATOM     31  S   UNL     1       2.612   6.984  18.991  0.00  0.00    +0.000 S 
ENDBRANCH  22  23
ENDBRANCH  21  22
ENDBRANCH  19  21
TORSDOF 3
ENDMDL
MODEL 2
REMARK VINA RESULT:      -8.5      0.913      1.423
REMARK  Name = 
REMARK  7 active torsions:
REMARK  status: ('A' for Active; 'I' for Inactive)
REMARK    1  A    between atoms: C_1  and  C_2
REMARK    2  A    between atoms: C_4  and  C_5
REMARK    3  A    between atoms: C_15  and  C_16
REMARK    4  A    between atoms: C_15  and  C_17
REMARK    5  A    between atoms: C_19  and  C_21
REMARK    6  A    between atoms: C_21  and  O_22
REMARK    7  A    between atoms: O_22  and  C_23
REMARK                            x       y       z     vdW  Elec       q    Type
REMARK                         _______ _______ _______ _____ _____    ______ ____
ROOT
ATOM      1  C   UNL     1      -3.494  10.484  15.346  0.00  0.00    +0.000 C 
ATOM      2  C   UNL     1      -2.793  10.655  16.660  0.00  0.00    +0.000 A 
ATOM      3  C   UNL     1      -1.574  10.051  16.912  0.00  0.00    +0.000 A 
ATOM      4  C   UNL     1      -0.880  10.261  18.126  0.00  0.00    +0.000 A 
ATOM      5  C   UNL     1       0.550   9.794  18.059  0.00  0.00    +0.000 C 
ATOM      6  C   UNL     1      -1.507  10.950  19.200  0.00  0.00    +0.000 A 
ATOM      7  C   UNL     1      -2.754  11.591  18.928  0.00  0.00    +0.000 A 
ATOM      8  C   UNL     1      -3.333  11.471  17.646  0.00  0.00    +0.000 A 
ATOM      9  C   UNL     1      -3.420  12.430  19.952  0.00  0.00    +0.000 A 
ATOM     10  C   UNL     1      -2.653  12.924  20.947  0.00  0.00    +0.000 A 
ATOM     11  S   UNL     1      -3.415  14.007  22.098  0.00  0.00    +0.000 S 
ATOM     12  S   UNL     1      -5.118  14.241  21.047  0.00  0.00    +0.000 S 
ATOM     13  C   UNL     1      -4.871  12.860  19.981  0.00  0.00    +0.000 A 
ATOM     14  S   UNL     1      -6.209  12.225  19.190  0.00  0.00    +0.000 S 
ATOM     15  C   UNL     1      -1.154  12.564  21.102  0.00  0.00    +0.000 C 
ATOM     16  C   UNL     1      -0.726  12.735  22.594  0.00  0.00    +0.000 C 
ATOM     17  C   UNL     1      -0.308  13.584  20.300  0.00  0.00    +0.000 C 
ATOM     18  N   UNL     1      -0.919  11.152  20.523  0.00  0.00    +0.000 N 
ATOM     19  C   UNL     1      -0.039  10.259  21.170  0.00  0.00    +0.000 C 
ATOM     20  O   UNL     1       0.678  10.609  22.117  0.00  0.00    +0.000 OA
ENDROOT
BRANCH  19  21
ATOM     21  C   UNL     1       0.027   8.769  20.820  0.00  0.00    +0.000 C 
BRANCH  21  22
ATOM     22  O   UNL     1       1.365   8.324  21.113  0.00  0.00    +0.000 OA
BRANCH  22  23
ATOM     23  C   UNL     1       1.817   7.323  20.362  0.00  0.00    +0.000 A 
ATOM     24  N   UNL     1       2.564   7.528  19.302  0.00  0.00    +0.000 NA
ATOM     25  C   UNL     1       2.943   6.311  18.756  0.00  0.00    +0.000 A 
ATOM     26  C   UNL     1       3.755   6.160  17.613  0.00  0.00    +0.000 A 
ATOM     27  C   UNL     1       4.082   4.881  17.155  0.00  0.00    +0.000 A 
ATOM     28  C   UNL     1       3.609   3.755  17.828  0.00  0.00    +0.000 A 
ATOM     29  C   UNL     1       2.804   3.879  18.966  0.00  0.00    +0.000 A 
ATOM     30  C   UNL     1       2.481   5.178  19.417  0.00  0.00    +0.000 A 
ATOM     31  S   UNL     1       1.524   5.680  20.758  0.00  0.00    +0.000 S 
ENDBRANCH  22  23
ENDBRANCH  21  22
ENDBRANCH  19  21
TORSDOF 3
ENDMDL
MODEL 3
REMARK VINA RESULT:      -7.8      4.493      6.901
REMARK  Name = 
REMARK  7 active torsions:
REMARK  status: ('A' for Active; 'I' for Inactive)
REMARK    1  A    between atoms: C_1  and  C_2
REMARK    2  A    between atoms: C_4  and  C_5
REMARK    3  A    between atoms: C_15  and  C_16
REMARK    4  A    between atoms: C_15  and  C_17
REMARK    5  A    between atoms: C_19  and  C_21
REMARK    6  A    between atoms: C_21  and  O_22
REMARK    7  A    between atoms: O_22  and  C_23
REMARK                            x       y       z     vdW  Elec       q    Type
REMARK                         _______ _______ _______ _____ _____    ______ ____
ROOT
ATOM      1  C   UNL     1       0.052   9.637  23.117  0.00  0.00    +0.000 C 
ATOM      2  C   UNL     1      -0.720  10.850  22.692  0.00  0.00    +0.000 A 
ATOM      3  C   UNL     1      -1.976  11.124  23.205  0.00  0.00    +0.000 A 
ATOM      4  C   UNL     1      -2.680  12.299  22.855  0.00  0.00    +0.000 A 
ATOM      5  C   UNL     1      -3.850  12.561  23.765  0.00  0.00    +0.000 C 
ATOM      6  C   UNL     1      -2.197  13.141  21.816  0.00  0.00    +0.000 A 
ATOM      7  C   UNL     1      -0.891  12.868  21.306  0.00  0.00    +0.000 A 
ATOM      8  C   UNL     1      -0.168  11.762  21.801  0.00  0.00    +0.000 A 
ATOM      9  C   UNL     1      -0.259  13.764  20.308  0.00  0.00    +0.000 A 
ATOM     10  C   UNL     1      -0.726  15.027  20.222  0.00  0.00    +0.000 A 
ATOM     11  S   UNL     1       0.091  16.122  19.122  0.00  0.00    +0.000 S 
ATOM     12  S   UNL     1       1.661  14.909  18.771  0.00  0.00    +0.000 S 
ATOM     13  C   UNL     1       0.911  13.446  19.403  0.00  0.00    +0.000 A 
ATOM     14  S   UNL     1       1.548  11.965  18.931  0.00  0.00    +0.000 S 
ATOM     15  C   UNL     1      -1.942  15.526  21.045  0.00  0.00    +0.000 C 
ATOM     16  C   UNL     1      -2.614  16.729  20.310  0.00  0.00    +0.000 C 
ATOM     17  C   UNL     1      -1.437  16.085  22.398  0.00  0.00    +0.000 C 
ATOM     18  N   UNL     1      -2.882  14.332  21.316  0.00  0.00    +0.000 N 
ATOM     19  C   UNL     1      -4.281  14.504  21.260  0.00  0.00    +0.000 C 
ATOM     20  O   UNL     1      -4.804  15.621  21.144  0.00  0.00    +0.000 OA
ENDROOT
BRANCH  19  21
ATOM     21  C   UNL     1      -5.258  13.324  21.239  0.00  0.00    +0.000 C 
BRANCH  21  22
ATOM     22  O   UNL     1      -5.841  13.280  19.923  0.00  0.00    +0.000 OA
BRANCH  22  23
ATOM     23  C   UNL     1      -5.149  12.604  19.009  0.00  0.00    +0.000 A 
ATOM     24  N   UNL     1      -4.014  12.007  19.294  0.00  0.00    +0.000 NA
ATOM     25  C   UNL     1      -3.552  11.327  18.177  0.00  0.00    +0.000 A 
ATOM     26  C   UNL     1      -2.362  10.572  18.130  0.00  0.00    +0.000 A 
ATOM     27  C   UNL     1      -1.997   9.919  16.950  0.00  0.00    +0.000 A 
ATOM     28  C   UNL     1      -2.809  10.011  15.820  0.00  0.00    +0.000 A 
ATOM     29  C   UNL     1      -3.995  10.753  15.843  0.00  0.00    +0.000 A 
ATOM     30  C   UNL     1      -4.351  11.409  17.042  0.00  0.00    +0.000 A 
ATOM     31  S   UNL     1      -5.718  12.391  17.405  0.00  0.00    +0.000 S 
ENDBRANCH  22  23
ENDBRANCH  21  22
ENDBRANCH  19  21
TORSDOF 3
ENDMDL
MODEL 4
REMARK VINA RESULT:      -7.7      2.233      3.265
REMARK  Name = 
REMARK  7 active torsions:
REMARK  status: ('A' for Active; 'I' for Inactive)
REMARK    1  A    between atoms: C_1  and  C_2
REMARK    2  A    between atoms: C_4  and  C_5
REMARK    3  A    between atoms: C_15  and  C_16
REMARK    4  A    between atoms: C_15  and  C_17
REMARK    5  A    between atoms: C_19  and  C_21
REMARK    6  A    between atoms: C_21  and  O_22
REMARK    7  A    between atoms: O_22  and  C_23
REMARK                            x       y       z     vdW  Elec       q    Type
REMARK                         _______ _______ _______ _____ _____    ______ ____
ROOT
ATOM      1  C   UNL     1      -3.350  10.740  15.741  0.00  0.00    +0.000 C 
ATOM      2  C   UNL     1      -3.133  11.364  17.087  0.00  0.00    +0.000 A 
ATOM      3  C   UNL     1      -1.902  11.880  17.454  0.00  0.00    +0.000 A 
ATOM      4  C   UNL     1      -1.709  12.525  18.697  0.00  0.00    +0.000 A 
ATOM      5  C   UNL     1      -0.416  13.293  18.752  0.00  0.00    +0.000 C 
ATOM      6  C   UNL     1      -2.730  12.494  19.686  0.00  0.00    +0.000 A 
ATOM      7  C   UNL     1      -4.006  11.983  19.295  0.00  0.00    +0.000 A 
ATOM      8  C   UNL     1      -4.184  11.484  17.987  0.00  0.00    +0.000 A 
ATOM      9  C   UNL     1      -5.161  12.023  20.224  0.00  0.00    +0.000 A 
ATOM     10  C   UNL     1      -5.114  12.913  21.237  0.00  0.00    +0.000 A 
ATOM     11  S   UNL     1      -6.526  13.041  22.271  0.00  0.00    +0.000 S 
ATOM     12  S   UNL     1      -7.727  11.927  21.098  0.00  0.00    +0.000 S 
ATOM     13  C   UNL     1      -6.437  11.216  20.131  0.00  0.00    +0.000 A 
ATOM     14  S   UNL     1      -6.770   9.801  19.291  0.00  0.00    +0.000 S 
ATOM     15  C   UNL     1      -3.874  13.801  21.512  0.00  0.00    +0.000 C 
ATOM     16  C   UNL     1      -3.851  14.217  23.017  0.00  0.00    +0.000 C 
ATOM     17  C   UNL     1      -4.014  15.119  20.710  0.00  0.00    +0.000 C 
ATOM     18  N   UNL     1      -2.611  13.054  21.032  0.00  0.00    +0.000 N 
ATOM     19  C   UNL     1      -1.420  13.118  21.785  0.00  0.00    +0.000 C 
ATOM     20  O   UNL     1      -1.294  13.877  22.756  0.00  0.00    +0.000 OA
ENDROOT
BRANCH  19  21
ATOM     21  C   UNL     1      -0.229  12.190  21.526  0.00  0.00    +0.000 C 
BRANCH  21  22
ATOM     22  O   UNL     1      -0.722  10.839  21.596  0.00  0.00    +0.000 OA
BRANCH  22  23
ATOM     23  C   UNL     1       0.012   9.925  20.967  0.00  0.00    +0.000 A 
ATOM     24  N   UNL     1       0.427  10.093  19.732  0.00  0.00    +0.000 NA
ATOM     25  C   UNL     1       1.223   9.021  19.357  0.00  0.00    +0.000 A 
ATOM     26  C   UNL     1       1.840   8.879  18.098  0.00  0.00    +0.000 A 
ATOM     27  C   UNL     1       2.630   7.757  17.831  0.00  0.00    +0.000 A 
ATOM     28  C   UNL     1       2.809   6.780  18.810  0.00  0.00    +0.000 A 
ATOM     29  C   UNL     1       2.208   6.900  20.068  0.00  0.00    +0.000 A 
ATOM     30  C   UNL     1       1.412   8.038  20.323  0.00  0.00    +0.000 A 
ATOM     31  S   UNL     1       0.539   8.487  21.738  0.00  0.00    +0.000 S 
ENDBRANCH  22  23
ENDBRANCH  21  22
ENDBRANCH  19  21
TORSDOF 3
ENDMDL
MODEL 5
REMARK VINA RESULT:      -7.6      1.270      1.663
REMARK  Name = 
REMARK  7 active torsions:
REMARK  status: ('A' for Active; 'I' for Inactive)
REMARK    1  A    between atoms: C_1  and  C_2
REMARK    2  A    between atoms: C_4  and  C_5
REMARK    3  A    between atoms: C_15  and  C_16
REMARK    4  A    between atoms: C_15  and  C_17
REMARK    5  A    between atoms: C_19  and  C_21
REMARK    6  A    between atoms: C_21  and  O_22
REMARK    7  A    between atoms: O_22  and  C_23
REMARK                            x       y       z     vdW  Elec       q    Type
REMARK                         _______ _______ _______ _____ _____    ______ ____
ROOT
ATOM      1  C   UNL     1      -6.038  11.172  17.874  0.00  0.00    +0.000 C 
ATOM      2  C   UNL     1      -4.669  11.415  18.435  0.00  0.00    +0.000 A 
ATOM      3  C   UNL     1      -3.568  10.707  17.987  0.00  0.00    +0.000 A 
ATOM      4  C   UNL     1      -2.266  10.977  18.468  0.00  0.00    +0.000 A 
ATOM      5  C   UNL     1      -1.196  10.340  17.622  0.00  0.00    +0.000 C 
ATOM      6  C   UNL     1      -2.078  11.858  19.568  0.00  0.00    +0.000 A 
ATOM      7  C   UNL     1      -3.213  12.604  20.012  0.00  0.00    +0.000 A 
ATOM      8  C   UNL     1      -4.464  12.401  19.392  0.00  0.00    +0.000 A 
ATOM      9  C   UNL     1      -3.082  13.632  21.072  0.00  0.00    +0.000 A 
ATOM     10  C   UNL     1      -1.855  14.148  21.291  0.00  0.00    +0.000 A 
ATOM     11  S   UNL     1      -1.716  15.443  22.467  0.00  0.00    +0.000 S 
ATOM     12  S   UNL     1      -3.700  15.748  22.654  0.00  0.00    +0.000 S 
ATOM     13  C   UNL     1      -4.193  14.230  21.907  0.00  0.00    +0.000 A 
ATOM     14  S   UNL     1      -5.744  13.667  22.217  0.00  0.00    +0.000 S 
ATOM     15  C   UNL     1      -0.590  13.635  20.556  0.00  0.00    +0.000 C 
ATOM     16  C   UNL     1       0.675  13.931  21.422  0.00  0.00    +0.000 C 
ATOM     17  C   UNL     1      -0.407  14.445  19.249  0.00  0.00    +0.000 C 
ATOM     18  N   UNL     1      -0.791  12.147  20.200  0.00  0.00    +0.000 N 
ATOM     19  C   UNL     1       0.283  11.239  20.313  0.00  0.00    +0.000 C 
ATOM     20  O   UNL     1       1.440  11.613  20.550  0.00  0.00    +0.000 OA
ENDROOT
BRANCH  19  21
ATOM     21  C   UNL     1       0.091   9.721  20.250  0.00  0.00    +0.000 C 
BRANCH  21  22
ATOM     22  O   UNL     1       1.260   9.121  20.837  0.00  0.00    +0.000 OA
BRANCH  22  23
ATOM     23  C   UNL     1       1.661   7.979  20.285  0.00  0.00    +0.000 A 
ATOM     24  N   UNL     1       1.572   6.830  20.915  0.00  0.00    +0.000 NA
ATOM     25  C   UNL     1       1.997   5.806  20.081  0.00  0.00    +0.000 A 
ATOM     26  C   UNL     1       2.028   4.442  20.435  0.00  0.00    +0.000 A 
ATOM     27  C   UNL     1       2.468   3.492  19.509  0.00  0.00    +0.000 A 
ATOM     28  C   UNL     1       2.873   3.892  18.236  0.00  0.00    +0.000 A 
ATOM     29  C   UNL     1       2.850   5.240  17.862  0.00  0.00    +0.000 A 
ATOM     30  C   UNL     1       2.404   6.189  18.808  0.00  0.00    +0.000 A 
ATOM     31  S   UNL     1       2.257   7.900  18.678  0.00  0.00    +0.000 S 
ENDBRANCH  22  23
ENDBRANCH  21  22
ENDBRANCH  19  21
TORSDOF 3
ENDMDL
MODEL 6
REMARK VINA RESULT:      -7.6      1.471      1.788
REMARK  Name = 
REMARK  7 active torsions:
REMARK  status: ('A' for Active; 'I' for Inactive)
REMARK    1  A    between atoms: C_1  and  C_2
REMARK    2  A    between atoms: C_4  and  C_5
REMARK    3  A    between atoms: C_15  and  C_16
REMARK    4  A    between atoms: C_15  and  C_17
REMARK    5  A    between atoms: C_19  and  C_21
REMARK    6  A    between atoms: C_21  and  O_22
REMARK    7  A    between atoms: O_22  and  C_23
REMARK                            x       y       z     vdW  Elec       q    Type
REMARK                         _______ _______ _______ _____ _____    ______ ____
ROOT
ATOM      1  C   UNL     1      -5.464  11.496  16.800  0.00  0.00    +0.000 C 
ATOM      2  C   UNL     1      -4.462  11.684  17.899  0.00  0.00    +0.000 A 
ATOM      3  C   UNL     1      -3.133  11.337  17.732  0.00  0.00    +0.000 A 
ATOM      4  C   UNL     1      -2.173  11.570  18.743  0.00  0.00    +0.000 A 
ATOM      5  C   UNL     1      -0.761  11.432  18.239  0.00  0.00    +0.000 C 
ATOM      6  C   UNL     1      -2.583  11.996  20.036  0.00  0.00    +0.000 A 
ATOM      7  C   UNL     1      -3.951  12.376  20.197  0.00  0.00    +0.000 A 
ATOM      8  C   UNL     1      -4.838  12.262  19.105  0.00  0.00    +0.000 A 
ATOM      9  C   UNL     1      -4.439  12.946  21.475  0.00  0.00    +0.000 A 
ATOM     10  C   UNL     1      -3.524  13.493  22.303  0.00  0.00    +0.000 A 
ATOM     11  S   UNL     1      -4.110  14.266  23.765  0.00  0.00    +0.000 S 
ATOM     12  S   UNL     1      -6.055  14.228  23.237  0.00  0.00    +0.000 S 
ATOM     13  C   UNL     1      -5.875  13.047  21.943  0.00  0.00    +0.000 A 
ATOM     14  S   UNL     1      -7.244  12.219  21.435  0.00  0.00    +0.000 S 
ATOM     15  C   UNL     1      -2.002  13.452  22.009  0.00  0.00    +0.000 C 
ATOM     16  C   UNL     1      -1.207  13.563  23.348  0.00  0.00    +0.000 C 
ATOM     17  C   UNL     1      -1.618  14.705  21.183  0.00  0.00    +0.000 C 
ATOM     18  N   UNL     1      -1.690  12.189  21.178  0.00  0.00    +0.000 N 
ATOM     19  C   UNL     1      -0.517  11.448  21.429  0.00  0.00    +0.000 C 
ATOM     20  O   UNL     1       0.364  11.849  22.202  0.00  0.00    +0.000 OA
ENDROOT
BRANCH  19  21
ATOM     21  C   UNL     1      -0.284  10.049  20.848  0.00  0.00    +0.000 C 
BRANCH  21  22
ATOM     22  O   UNL     1       1.116   9.951  20.530  0.00  0.00    +0.000 OA
BRANCH  22  23
ATOM     23  C   UNL     1       1.531   8.756  20.117  0.00  0.00    +0.000 A 
ATOM     24  N   UNL     1       1.442   7.687  20.875  0.00  0.00    +0.000 NA
ATOM     25  C   UNL     1       1.882   6.577  20.169  0.00  0.00    +0.000 A 
ATOM     26  C   UNL     1       1.918   5.263  20.678  0.00  0.00    +0.000 A 
ATOM     27  C   UNL     1       2.374   4.216  19.873  0.00  0.00    +0.000 A 
ATOM     28  C   UNL     1       2.792   4.469  18.567  0.00  0.00    +0.000 A 
ATOM     29  C   UNL     1       2.764   5.765  18.039  0.00  0.00    +0.000 A 
ATOM     30  C   UNL     1       2.302   6.814  18.865  0.00  0.00    +0.000 A 
ATOM     31  S   UNL     1       2.145   8.497  18.537  0.00  0.00    +0.000 S 
ENDBRANCH  22  23
ENDBRANCH  21  22
ENDBRANCH  19  21
TORSDOF 3
ENDMDL
MODEL 7
REMARK VINA RESULT:      -7.6      1.847      2.467
REMARK  Name = 
REMARK  7 active torsions:
REMARK  status: ('A' for Active; 'I' for Inactive)
REMARK    1  A    between atoms: C_1  and  C_2
REMARK    2  A    between atoms: C_4  and  C_5
REMARK    3  A    between atoms: C_15  and  C_16
REMARK    4  A    between atoms: C_15  and  C_17
REMARK    5  A    between atoms: C_19  and  C_21
REMARK    6  A    between atoms: C_21  and  O_22
REMARK    7  A    between atoms: O_22  and  C_23
REMARK                            x       y       z     vdW  Elec       q    Type
REMARK                         _______ _______ _______ _____ _____    ______ ____
ROOT
ATOM      1  C   UNL     1      -6.027  11.878  17.078  0.00  0.00    +0.000 C 
ATOM      2  C   UNL     1      -4.920  12.015  18.079  0.00  0.00    +0.000 A 
ATOM      3  C   UNL     1      -3.610  11.707  17.755  0.00  0.00    +0.000 A 
ATOM      4  C   UNL     1      -2.554  11.894  18.676  0.00  0.00    +0.000 A 
ATOM      5  C   UNL     1      -1.200  11.820  18.022  0.00  0.00    +0.000 C 
ATOM      6  C   UNL     1      -2.835  12.225  20.030  0.00  0.00    +0.000 A 
ATOM      7  C   UNL     1      -4.185  12.564  20.355  0.00  0.00    +0.000 A 
ATOM      8  C   UNL     1      -5.178  12.503  19.354  0.00  0.00    +0.000 A 
ATOM      9  C   UNL     1      -4.546  13.038  21.712  0.00  0.00    +0.000 A 
ATOM     10  C   UNL     1      -3.559  13.549  22.477  0.00  0.00    +0.000 A 
ATOM     11  S   UNL     1      -4.002  14.212  24.040  0.00  0.00    +0.000 S 
ATOM     12  S   UNL     1      -5.990  14.167  23.713  0.00  0.00    +0.000 S 
ATOM     13  C   UNL     1      -5.927  13.078  22.330  0.00  0.00    +0.000 A 
ATOM     14  S   UNL     1      -7.330  12.255  21.909  0.00  0.00    +0.000 S 
ATOM     15  C   UNL     1      -2.075  13.561  22.027  0.00  0.00    +0.000 C 
ATOM     16  C   UNL     1      -1.148  13.599  23.283  0.00  0.00    +0.000 C 
ATOM     17  C   UNL     1      -1.796  14.873  21.254  0.00  0.00    +0.000 C 
ATOM     18  N   UNL     1      -1.832  12.362  21.085  0.00  0.00    +0.000 N 
ATOM     19  C   UNL     1      -0.629  11.630  21.165  0.00  0.00    +0.000 C 
ATOM     20  O   UNL     1       0.321  11.999  21.869  0.00  0.00    +0.000 OA
ENDROOT
BRANCH  19  21
ATOM     21  C   UNL     1      -0.437  10.279  20.469  0.00  0.00    +0.000 C 
BRANCH  21  22
ATOM     22  O   UNL     1       0.925  10.232  20.004  0.00  0.00    +0.000 OA
BRANCH  22  23
ATOM     23  C   UNL     1       1.416   9.016  19.781  0.00  0.00    +0.000 A 
ATOM     24  N   UNL     1       2.071   8.718  18.682  0.00  0.00    +0.000 NA
ATOM     25  C   UNL     1       2.522   7.408  18.749  0.00  0.00    +0.000 A 
ATOM     26  C   UNL     1       3.268   6.762  17.742  0.00  0.00    +0.000 A 
ATOM     27  C   UNL     1       3.680   5.439  17.920  0.00  0.00    +0.000 A 
ATOM     28  C   UNL     1       3.356   4.758  19.092  0.00  0.00    +0.000 A 
ATOM     29  C   UNL     1       2.619   5.378  20.107  0.00  0.00    +0.000 A 
ATOM     30  C   UNL     1       2.208   6.716  19.913  0.00  0.00    +0.000 A 
ATOM     31  S   UNL     1       1.300   7.757  20.941  0.00  0.00    +0.000 S 
ENDBRANCH  22  23
ENDBRANCH  21  22
ENDBRANCH  19  21
TORSDOF 3
ENDMDL
MODEL 8
REMARK VINA RESULT:      -7.4      1.798      2.412
REMARK  Name = 
REMARK  7 active torsions:
REMARK  status: ('A' for Active; 'I' for Inactive)
REMARK    1  A    between atoms: C_1  and  C_2
REMARK    2  A    between atoms: C_4  and  C_5
REMARK    3  A    between atoms: C_15  and  C_16
REMARK    4  A    between atoms: C_15  and  C_17
REMARK    5  A    between atoms: C_19  and  C_21
REMARK    6  A    between atoms: C_21  and  O_22
REMARK    7  A    between atoms: O_22  and  C_23
REMARK                            x       y       z     vdW  Elec       q    Type
REMARK                         _______ _______ _______ _____ _____    ______ ____
ROOT
ATOM      1  C   UNL     1      -6.497  11.622  18.392  0.00  0.00    +0.000 C 
ATOM      2  C   UNL     1      -5.130  11.929  18.928  0.00  0.00    +0.000 A 
ATOM      3  C   UNL     1      -3.986  11.517  18.268  0.00  0.00    +0.000 A 
ATOM      4  C   UNL     1      -2.697  11.857  18.735  0.00  0.00    +0.000 A 
ATOM      5  C   UNL     1      -1.626  11.602  17.709  0.00  0.00    +0.000 C 
ATOM      6  C   UNL     1      -2.536  12.476  20.005  0.00  0.00    +0.000 A 
ATOM      7  C   UNL     1      -3.719  12.921  20.672  0.00  0.00    +0.000 A 
ATOM      8  C   UNL     1      -4.979  12.683  20.084  0.00  0.00    +0.000 A 
ATOM      9  C   UNL     1      -3.638  13.681  21.942  0.00  0.00    +0.000 A 
ATOM     10  C   UNL     1      -2.476  14.308  22.219  0.00  0.00    +0.000 A 
ATOM     11  S   UNL     1      -2.413  15.300  23.666  0.00  0.00    +0.000 S 
ATOM     12  S   UNL     1      -4.396  15.254  24.019  0.00  0.00    +0.000 S 
ATOM     13  C   UNL     1      -4.745  13.896  22.951  0.00  0.00    +0.000 A 
ATOM     14  S   UNL     1      -6.176  13.052  23.191  0.00  0.00    +0.000 S 
ATOM     15  C   UNL     1      -1.220  14.175  21.321  0.00  0.00    +0.000 C 
ATOM     16  C   UNL     1       0.063  14.446  22.169  0.00  0.00    +0.000 C 
ATOM     17  C   UNL     1      -1.256  15.285  20.241  0.00  0.00    +0.000 C 
ATOM     18  N   UNL     1      -1.251  12.798  20.624  0.00  0.00    +0.000 N 
ATOM     19  C   UNL     1      -0.060  12.059  20.461  0.00  0.00    +0.000 C 
ATOM     20  O   UNL     1       1.053  12.536  20.725  0.00  0.00    +0.000 OA
ENDROOT
BRANCH  19  21
ATOM     21  C   UNL     1      -0.054  10.586  20.041  0.00  0.00    +0.000 C 
BRANCH  21  22
ATOM     22  O   UNL     1       1.123  10.380  19.237  0.00  0.00    +0.000 OA
BRANCH  22  23
ATOM     23  C   UNL     1       1.586   9.133  19.203  0.00  0.00    +0.000 A 
ATOM     24  N   UNL     1       1.394   8.290  20.192  0.00  0.00    +0.000 NA
ATOM     25  C   UNL     1       1.923   7.052  19.859  0.00  0.00    +0.000 A 
ATOM     26  C   UNL     1       1.886   5.913  20.689  0.00  0.00    +0.000 A 
ATOM     27  C   UNL     1       2.444   4.711  20.246  0.00  0.00    +0.000 A 
ATOM     28  C   UNL     1       3.034   4.636  18.985  0.00  0.00    +0.000 A 
ATOM     29  C   UNL     1       3.080   5.753  18.143  0.00  0.00    +0.000 A 
ATOM     30  C   UNL     1       2.513   6.962  18.604  0.00  0.00    +0.000 A 
ATOM     31  S   UNL     1       2.406   8.499  17.837  0.00  0.00    +0.000 S 
ENDBRANCH  22  23
ENDBRANCH  21  22
ENDBRANCH  19  21
TORSDOF 3
ENDMDL
MODEL 9
REMARK VINA RESULT:      -7.4      1.957      2.661
REMARK  Name = 
REMARK  7 active torsions:
REMARK  status: ('A' for Active; 'I' for Inactive)
REMARK    1  A    between atoms: C_1  and  C_2
REMARK    2  A    between atoms: C_4  and  C_5
REMARK    3  A    between atoms: C_15  and  C_16
REMARK    4  A    between atoms: C_15  and  C_17
REMARK    5  A    between atoms: C_19  and  C_21
REMARK    6  A    between atoms: C_21  and  O_22
REMARK    7  A    between atoms: O_22  and  C_23
REMARK                            x       y       z     vdW  Elec       q    Type
REMARK                         _______ _______ _______ _____ _____    ______ ____
ROOT
ATOM      1  C   UNL     1      -6.662  11.489  18.359  0.00  0.00    +0.000 C 
ATOM      2  C   UNL     1      -5.281  11.796  18.857  0.00  0.00    +0.000 A 
ATOM      3  C   UNL     1      -4.155  11.374  18.172  0.00  0.00    +0.000 A 
ATOM      4  C   UNL     1      -2.853  11.715  18.604  0.00  0.00    +0.000 A 
ATOM      5  C   UNL     1      -1.810  11.447  17.552  0.00  0.00    +0.000 C 
ATOM      6  C   UNL     1      -2.658  12.344  19.864  0.00  0.00    +0.000 A 
ATOM      7  C   UNL     1      -3.822  12.799  20.556  0.00  0.00    +0.000 A 
ATOM      8  C   UNL     1      -5.098  12.560  20.003  0.00  0.00    +0.000 A 
ATOM      9  C   UNL     1      -3.707  13.570  21.816  0.00  0.00    +0.000 A 
ATOM     10  C   UNL     1      -2.536  14.196  22.059  0.00  0.00    +0.000 A 
ATOM     11  S   UNL     1      -2.434  15.200  23.494  0.00  0.00    +0.000 S 
ATOM     12  S   UNL     1      -4.408  15.164  23.898  0.00  0.00    +0.000 S 
ATOM     13  C   UNL     1      -4.787  13.798  22.852  0.00  0.00    +0.000 A 
ATOM     14  S   UNL     1      -6.214  12.959  23.135  0.00  0.00    +0.000 S 
ATOM     15  C   UNL     1      -1.304  14.051  21.130  0.00  0.00    +0.000 C 
ATOM     16  C   UNL     1       0.000  14.325  21.943  0.00  0.00    +0.000 C 
ATOM     17  C   UNL     1      -1.365  15.151  20.042  0.00  0.00    +0.000 C 
ATOM     18  N   UNL     1      -1.357  12.667  20.447  0.00  0.00    +0.000 N 
ATOM     19  C   UNL     1      -0.173  11.924  20.260  0.00  0.00    +0.000 C 
ATOM     20  O   UNL     1       0.948  12.399  20.491  0.00  0.00    +0.000 OA
ENDROOT
BRANCH  19  21
ATOM     21  C   UNL     1      -0.182  10.447  19.853  0.00  0.00    +0.000 C 
BRANCH  21  22
ATOM     22  O   UNL     1       0.994  10.221  19.053  0.00  0.00    +0.000 OA
BRANCH  22  23
ATOM     23  C   UNL     1       1.509   8.996  19.118  0.00  0.00    +0.000 A 
ATOM     24  N   UNL     1       2.216   8.483  18.137  0.00  0.00    +0.000 NA
ATOM     25  C   UNL     1       2.679   7.228  18.503  0.00  0.00    +0.000 A 
ATOM     26  C   UNL     1       3.476   6.397  17.689  0.00  0.00    +0.000 A 
ATOM     27  C   UNL     1       3.895   5.152  18.165  0.00  0.00    +0.000 A 
ATOM     28  C   UNL     1       3.528   4.732  19.443  0.00  0.00    +0.000 A 
ATOM     29  C   UNL     1       2.740   5.540  20.269  0.00  0.00    +0.000 A 
ATOM     30  C   UNL     1       2.322   6.796  19.775  0.00  0.00    +0.000 A 
ATOM     31  S   UNL     1       1.357   8.014  20.516  0.00  0.00    +0.000 S 
ENDBRANCH  22  23
ENDBRANCH  21  22
ENDBRANCH  19  21
TORSDOF 3
ENDMDL
