MODEL 1
REMARK VINA RESULT:      -8.6      0.000      0.000
REMARK  Name = 
REMARK  10 active torsions:
REMARK  status: ('A' for Active; 'I' for Inactive)
REMARK    1  A    between atoms: C_1  and  C_2
REMARK    2  A    between atoms: C_5  and  C_6
REMARK    3  A    between atoms: C_6  and  C_8
REMARK    4  A    between atoms: N_16  and  C_17
REMARK    5  A    between atoms: C_21  and  O_22
REMARK    6  A    between atoms: O_22  and  C_23
REMARK    7  A    between atoms: C_23  and  C_24
REMARK    8  A    between atoms: C_23  and  C_25
REMARK    9  A    between atoms: C_23  and  C_26
REMARK   10  A    between atoms: C_26  and  O_28
REMARK                            x       y       z     vdW  Elec       q    Type
REMARK                         _______ _______ _______ _____ _____    ______ ____
ROOT
ATOM      1  C   UNL     1       4.522   4.841  18.845  0.00  0.00    +0.000 A 
ATOM      2  N   UNL     1       4.702   3.618  19.318  0.00  0.00    +0.000 NA
ATOM      3  C   UNL     1       3.629   3.349  20.110  0.00  0.00    +0.000 A 
ATOM      4  C   UNL     1       3.359   2.187  20.849  0.00  0.00    +0.000 A 
ATOM      5  C   UNL     1       2.169   2.103  21.575  0.00  0.00    +0.000 A 
ATOM      6  C   UNL     1       1.251   3.148  21.542  0.00  0.00    +0.000 A 
ATOM      7  C   UNL     1       1.501   4.306  20.796  0.00  0.00    +0.000 A 
ATOM      8  C   UNL     1       2.728   4.408  20.111  0.00  0.00    +0.000 A 
ATOM      9  N   UNL     1       3.317   5.382  19.294  0.00  0.00    +0.000 N 
ENDROOT
BRANCH   9  10
ATOM     10  C   UNL     1       2.766   6.669  18.994  0.00  0.00    +0.000 A 
ATOM     11  C   UNL     1       2.750   7.172  17.690  0.00  0.00    +0.000 A 
ATOM     12  C   UNL     1       2.228   8.442  17.439  0.00  0.00    +0.000 A 
ATOM     13  C   UNL     1       1.736   9.222  18.487  0.00  0.00    +0.000 A 
ATOM     14  C   UNL     1       1.777   8.748  19.798  0.00  0.00    +0.000 A 
ATOM     15  C   UNL     1       2.257   7.461  20.033  0.00  0.00    +0.000 A 
BRANCH  14  16
ATOM     16  O   UNL     1       1.330   9.620  20.746  0.00  0.00    +0.000 OA
BRANCH  16  17
ATOM     17  C   UNL     1      -0.067   9.699  21.123  0.00  0.00    +0.000 C 
ATOM     18  C   UNL     1      -0.900  10.346  20.011  0.00  0.00    +0.000 C 
ATOM     19  C   UNL     1      -0.651   8.396  21.687  0.00  0.00    +0.000 C 
BRANCH  17  20
ATOM     20  C   UNL     1      -0.097  10.700  22.299  0.00  0.00    +0.000 C 
ATOM     21  O   UNL     1      -0.316  10.396  23.467  0.00  0.00    +0.000 OA
BRANCH  20  22
ATOM     22  O   UNL     1       0.145  11.984  21.930  0.00  0.00    +0.000 OA
ATOM     23  H   UNL     1      -0.707  12.472  21.904  0.00  0.00    +0.000 HD
ENDBRANCH  20  22
ENDBRANCH  17  20
ENDBRANCH  16  17
ENDBRANCH  14  16
ENDBRANCH   9  10
BRANCH   1  24
ATOM     24  C   UNL     1       5.577   5.502  18.089  0.00  0.00    +0.000 C 
ATOM     25  O   UNL     1       6.279   6.405  18.542  0.00  0.00    +0.000 OA
BRANCH  24  30
ATOM     26  C   UNL     1       6.518   3.807  12.611  0.00  0.00    +0.000 C 
ATOM     27  C   UNL     1       6.293   4.193  14.042  0.00  0.00    +0.000 A 
ATOM     28  C   UNL     1       5.086   3.906  14.688  0.00  0.00    +0.000 A 
ATOM     29  C   UNL     1       4.871   4.322  16.005  0.00  0.00    +0.000 A 
ATOM     30  C   UNL     1       5.858   5.043  16.691  0.00  0.00    +0.000 A 
ATOM     31  C   UNL     1       7.081   5.297  16.056  0.00  0.00    +0.000 A 
ATOM     32  C   UNL     1       7.292   4.881  14.739  0.00  0.00    +0.000 A 
ENDBRANCH  24  30
ENDBRANCH   1  24
TORSDOF 7
ENDMDL
MODEL 2
REMARK VINA RESULT:      -8.6      0.096      1.041
REMARK  Name = 
REMARK  10 active torsions:
REMARK  status: ('A' for Active; 'I' for Inactive)
REMARK    1  A    between atoms: C_1  and  C_2
REMARK    2  A    between atoms: C_5  and  C_6
REMARK    3  A    between atoms: C_6  and  C_8
REMARK    4  A    between atoms: N_16  and  C_17
REMARK    5  A    between atoms: C_21  and  O_22
REMARK    6  A    between atoms: O_22  and  C_23
REMARK    7  A    between atoms: C_23  and  C_24
REMARK    8  A    between atoms: C_23  and  C_25
REMARK    9  A    between atoms: C_23  and  C_26
REMARK   10  A    between atoms: C_26  and  O_28
REMARK                            x       y       z     vdW  Elec       q    Type
REMARK                         _______ _______ _______ _____ _____    ______ ____
ROOT
ATOM      1  C   UNL     1       4.525   4.795  18.871  0.00  0.00    +0.000 A 
ATOM      2  N   UNL     1       4.704   3.577  19.356  0.00  0.00    +0.000 NA
ATOM      3  C   UNL     1       3.630   3.317  20.150  0.00  0.00    +0.000 A 
ATOM      4  C   UNL     1       3.359   2.163  20.900  0.00  0.00    +0.000 A 
ATOM      5  C   UNL     1       2.168   2.087  21.626  0.00  0.00    +0.000 A 
ATOM      6  C   UNL     1       1.252   3.133  21.583  0.00  0.00    +0.000 A 
ATOM      7  C   UNL     1       1.504   4.283  20.826  0.00  0.00    +0.000 A 
ATOM      8  C   UNL     1       2.730   4.377  20.140  0.00  0.00    +0.000 A 
ATOM      9  N   UNL     1       3.321   5.342  19.314  0.00  0.00    +0.000 N 
ENDROOT
BRANCH   9  10
ATOM     10  C   UNL     1       2.772   6.627  19.001  0.00  0.00    +0.000 A 
ATOM     11  C   UNL     1       2.769   7.123  17.694  0.00  0.00    +0.000 A 
ATOM     12  C   UNL     1       2.249   8.392  17.431  0.00  0.00    +0.000 A 
ATOM     13  C   UNL     1       1.744   9.176  18.470  0.00  0.00    +0.000 A 
ATOM     14  C   UNL     1       1.772   8.709  19.784  0.00  0.00    +0.000 A 
ATOM     15  C   UNL     1       2.251   7.424  20.031  0.00  0.00    +0.000 A 
BRANCH  14  16
ATOM     16  O   UNL     1       1.313   9.586  20.723  0.00  0.00    +0.000 OA
BRANCH  16  17
ATOM     17  C   UNL     1      -0.087   9.660  21.088  0.00  0.00    +0.000 C 
ATOM     18  C   UNL     1      -0.930  10.194  19.925  0.00  0.00    +0.000 C 
ATOM     19  C   UNL     1      -0.642   8.393  21.755  0.00  0.00    +0.000 C 
BRANCH  17  20
ATOM     20  C   UNL     1      -0.146  10.753  22.179  0.00  0.00    +0.000 C 
ATOM     21  O   UNL     1       0.158  11.929  22.005  0.00  0.00    +0.000 OA
BRANCH  20  22
ATOM     22  O   UNL     1      -0.574  10.298  23.385  0.00  0.00    +0.000 OA
ATOM     23  H   UNL     1       0.151  10.403  24.039  0.00  0.00    +0.000 HD
ENDBRANCH  20  22
ENDBRANCH  17  20
ENDBRANCH  16  17
ENDBRANCH  14  16
ENDBRANCH   9  10
BRANCH   1  24
ATOM     24  C   UNL     1       5.581   5.448  18.108  0.00  0.00    +0.000 C 
ATOM     25  O   UNL     1       6.334   6.302  18.577  0.00  0.00    +0.000 OA
BRANCH  24  30
ATOM     26  C   UNL     1       6.572   3.774  12.633  0.00  0.00    +0.000 C 
ATOM     27  C   UNL     1       6.302   4.258  14.026  0.00  0.00    +0.000 A 
ATOM     28  C   UNL     1       7.301   4.883  14.781  0.00  0.00    +0.000 A 
ATOM     29  C   UNL     1       7.051   5.278  16.098  0.00  0.00    +0.000 A 
ATOM     30  C   UNL     1       5.799   5.041  16.683  0.00  0.00    +0.000 A 
ATOM     31  C   UNL     1       4.789   4.450  15.914  0.00  0.00    +0.000 A 
ATOM     32  C   UNL     1       5.042   4.055  14.599  0.00  0.00    +0.000 A 
ENDBRANCH  24  30
ENDBRANCH   1  24
TORSDOF 7
ENDMDL
MODEL 3
REMARK VINA RESULT:      -8.5      2.404      7.618
REMARK  Name = 
REMARK  10 active torsions:
REMARK  status: ('A' for Active; 'I' for Inactive)
REMARK    1  A    between atoms: C_1  and  C_2
REMARK    2  A    between atoms: C_5  and  C_6
REMARK    3  A    between atoms: C_6  and  C_8
REMARK    4  A    between atoms: N_16  and  C_17
REMARK    5  A    between atoms: C_21  and  O_22
REMARK    6  A    between atoms: O_22  and  C_23
REMARK    7  A    between atoms: C_23  and  C_24
REMARK    8  A    between atoms: C_23  and  C_25
REMARK    9  A    between atoms: C_23  and  C_26
REMARK   10  A    between atoms: C_26  and  O_28
REMARK                            x       y       z     vdW  Elec       q    Type
REMARK                         _______ _______ _______ _____ _____    ______ ____
ROOT
ATOM      1  C   UNL     1       2.956   5.956  19.260  0.00  0.00    +0.000 A 
ATOM      2  N   UNL     1       1.882   5.644  19.969  0.00  0.00    +0.000 NA
ATOM      3  C   UNL     1       2.092   4.391  20.455  0.00  0.00    +0.000 A 
ATOM      4  C   UNL     1       1.242   3.611  21.253  0.00  0.00    +0.000 A 
ATOM      5  C   UNL     1       1.671   2.351  21.676  0.00  0.00    +0.000 A 
ATOM      6  C   UNL     1       2.938   1.889  21.332  0.00  0.00    +0.000 A 
ATOM      7  C   UNL     1       3.801   2.663  20.549  0.00  0.00    +0.000 A 
ATOM      8  C   UNL     1       3.342   3.909  20.080  0.00  0.00    +0.000 A 
ATOM      9  N   UNL     1       3.898   4.927  19.294  0.00  0.00    +0.000 N 
ENDROOT
BRANCH   9  10
ATOM     10  C   UNL     1       5.183   4.893  18.664  0.00  0.00    +0.000 A 
ATOM     11  C   UNL     1       6.314   5.437  19.279  0.00  0.00    +0.000 A 
ATOM     12  C   UNL     1       7.546   5.408  18.623  0.00  0.00    +0.000 A 
ATOM     13  C   UNL     1       7.652   4.852  17.346  0.00  0.00    +0.000 A 
ATOM     14  C   UNL     1       6.527   4.336  16.707  0.00  0.00    +0.000 A 
ATOM     15  C   UNL     1       5.310   4.327  17.386  0.00  0.00    +0.000 A 
BRANCH  14  16
ATOM     16  O   UNL     1       6.737   3.878  15.438  0.00  0.00    +0.000 OA
BRANCH  16  17
ATOM     17  C   UNL     1       6.205   4.559  14.276  0.00  0.00    +0.000 C 
ATOM     18  C   UNL     1       5.479   3.577  13.349  0.00  0.00    +0.000 C 
ATOM     19  C   UNL     1       5.423   5.843  14.589  0.00  0.00    +0.000 C 
BRANCH  17  20
ATOM     20  C   UNL     1       7.453   5.024  13.493  0.00  0.00    +0.000 C 
ATOM     21  O   UNL     1       8.341   5.733  13.954  0.00  0.00    +0.000 OA
BRANCH  20  22
ATOM     22  O   UNL     1       7.493   4.575  12.212  0.00  0.00    +0.000 OA
ATOM     23  H   UNL     1       6.964   3.750  12.148  0.00  0.00    +0.000 HD
ENDBRANCH  20  22
ENDBRANCH  17  20
ENDBRANCH  16  17
ENDBRANCH  14  16
ENDBRANCH   9  10
BRANCH   1  24
ATOM     24  C   UNL     1       2.985   7.174  18.462  0.00  0.00    +0.000 C 
ATOM     25  O   UNL     1       3.761   7.358  17.524  0.00  0.00    +0.000 OA
BRANCH  24  30
ATOM     26  C   UNL     1      -0.728  11.456  19.748  0.00  0.00    +0.000 C 
ATOM     27  C   UNL     1       0.186  10.314  19.416  0.00  0.00    +0.000 A 
ATOM     28  C   UNL     1       0.752   9.524  20.423  0.00  0.00    +0.000 A 
ATOM     29  C   UNL     1       1.646   8.499  20.100  0.00  0.00    +0.000 A 
ATOM     30  C   UNL     1       1.996   8.259  18.764  0.00  0.00    +0.000 A 
ATOM     31  C   UNL     1       1.400   9.026  17.755  0.00  0.00    +0.000 A 
ATOM     32  C   UNL     1       0.509  10.050  18.080  0.00  0.00    +0.000 A 
ENDBRANCH  24  30
ENDBRANCH   1  24
TORSDOF 7
ENDMDL
MODEL 4
REMARK VINA RESULT:      -8.4      3.405      6.601
REMARK  Name = 
REMARK  10 active torsions:
REMARK  status: ('A' for Active; 'I' for Inactive)
REMARK    1  A    between atoms: C_1  and  C_2
REMARK    2  A    between atoms: C_5  and  C_6
REMARK    3  A    between atoms: C_6  and  C_8
REMARK    4  A    between atoms: N_16  and  C_17
REMARK    5  A    between atoms: C_21  and  O_22
REMARK    6  A    between atoms: O_22  and  C_23
REMARK    7  A    between atoms: C_23  and  C_24
REMARK    8  A    between atoms: C_23  and  C_25
REMARK    9  A    between atoms: C_23  and  C_26
REMARK   10  A    between atoms: C_26  and  O_28
REMARK                            x       y       z     vdW  Elec       q    Type
REMARK                         _______ _______ _______ _____ _____    ______ ____
ROOT
ATOM      1  C   UNL     1       7.100   6.171  17.000  0.00  0.00    +0.000 A 
ATOM      2  N   UNL     1       7.886   5.815  15.996  0.00  0.00    +0.000 NA
ATOM      3  C   UNL     1       7.096   5.164  15.100  0.00  0.00    +0.000 A 
ATOM      4  C   UNL     1       7.461   4.583  13.876  0.00  0.00    +0.000 A 
ATOM      5  C   UNL     1       6.475   3.989  13.084  0.00  0.00    +0.000 A 
ATOM      6  C   UNL     1       5.145   4.000  13.492  0.00  0.00    +0.000 A 
ATOM      7  C   UNL     1       4.766   4.590  14.703  0.00  0.00    +0.000 A 
ATOM      8  C   UNL     1       5.772   5.138  15.523  0.00  0.00    +0.000 A 
ATOM      9  N   UNL     1       5.779   5.786  16.766  0.00  0.00    +0.000 N 
ENDROOT
BRANCH   9  10
ATOM     10  C   UNL     1       4.640   6.000  17.607  0.00  0.00    +0.000 A 
ATOM     11  C   UNL     1       3.848   7.145  17.489  0.00  0.00    +0.000 A 
ATOM     12  C   UNL     1       2.760   7.332  18.344  0.00  0.00    +0.000 A 
ATOM     13  C   UNL     1       2.468   6.386  19.329  0.00  0.00    +0.000 A 
ATOM     14  C   UNL     1       3.269   5.256  19.481  0.00  0.00    +0.000 A 
ATOM     15  C   UNL     1       4.325   5.055  18.595  0.00  0.00    +0.000 A 
BRANCH  14  16
ATOM     16  O   UNL     1       2.928   4.436  20.517  0.00  0.00    +0.000 OA
BRANCH  16  17
ATOM     17  C   UNL     1       2.281   3.157  20.306  0.00  0.00    +0.000 C 
ATOM     18  C   UNL     1       1.794   2.563  21.633  0.00  0.00    +0.000 C 
ATOM     19  C   UNL     1       1.239   3.146  19.178  0.00  0.00    +0.000 C 
BRANCH  17  20
ATOM     20  C   UNL     1       3.413   2.223  19.824  0.00  0.00    +0.000 C 
ATOM     21  O   UNL     1       4.508   2.117  20.367  0.00  0.00    +0.000 OA
BRANCH  20  22
ATOM     22  O   UNL     1       3.094   1.506  18.716  0.00  0.00    +0.000 OA
ATOM     23  H   UNL     1       2.128   1.328  18.720  0.00  0.00    +0.000 HD
ENDBRANCH  20  22
ENDBRANCH  17  20
ENDBRANCH  16  17
ENDBRANCH  14  16
ENDBRANCH   9  10
BRANCH   1  24
ATOM     24  C   UNL     1       7.666   6.746  18.212  0.00  0.00    +0.000 C 
ATOM     25  O   UNL     1       7.896   6.098  19.233  0.00  0.00    +0.000 OA
BRANCH  24  30
ATOM     26  C   UNL     1       9.244  12.339  18.223  0.00  0.00    +0.000 C 
ATOM     27  C   UNL     1       8.798  10.907  18.261  0.00  0.00    +0.000 A 
ATOM     28  C   UNL     1       9.371   9.995  19.155  0.00  0.00    +0.000 A 
ATOM     29  C   UNL     1       8.985   8.652  19.140  0.00  0.00    +0.000 A 
ATOM     30  C   UNL     1       8.028   8.200  18.220  0.00  0.00    +0.000 A 
ATOM     31  C   UNL     1       7.428   9.121  17.353  0.00  0.00    +0.000 A 
ATOM     32  C   UNL     1       7.817  10.463  17.369  0.00  0.00    +0.000 A 
ENDBRANCH  24  30
ENDBRANCH   1  24
TORSDOF 7
ENDMDL
MODEL 5
REMARK VINA RESULT:      -8.3      2.408      7.603
REMARK  Name = 
REMARK  10 active torsions:
REMARK  status: ('A' for Active; 'I' for Inactive)
REMARK    1  A    between atoms: C_1  and  C_2
REMARK    2  A    between atoms: C_5  and  C_6
REMARK    3  A    between atoms: C_6  and  C_8
REMARK    4  A    between atoms: N_16  and  C_17
REMARK    5  A    between atoms: C_21  and  O_22
REMARK    6  A    between atoms: O_22  and  C_23
REMARK    7  A    between atoms: C_23  and  C_24
REMARK    8  A    between atoms: C_23  and  C_25
REMARK    9  A    between atoms: C_23  and  C_26
REMARK   10  A    between atoms: C_26  and  O_28
REMARK                            x       y       z     vdW  Elec       q    Type
REMARK                         _______ _______ _______ _____ _____    ______ ____
ROOT
ATOM      1  C   UNL     1       2.915   5.920  19.259  0.00  0.00    +0.000 A 
ATOM      2  N   UNL     1       1.841   5.582  19.954  0.00  0.00    +0.000 NA
ATOM      3  C   UNL     1       2.082   4.339  20.453  0.00  0.00    +0.000 A 
ATOM      4  C   UNL     1       1.243   3.541  21.246  0.00  0.00    +0.000 A 
ATOM      5  C   UNL     1       1.704   2.297  21.686  0.00  0.00    +0.000 A 
ATOM      6  C   UNL     1       2.988   1.871  21.364  0.00  0.00    +0.000 A 
ATOM      7  C   UNL     1       3.840   2.665  20.587  0.00  0.00    +0.000 A 
ATOM      8  C   UNL     1       3.350   3.893  20.101  0.00  0.00    +0.000 A 
ATOM      9  N   UNL     1       3.887   4.920  19.314  0.00  0.00    +0.000 N 
ENDROOT
BRANCH   9  10
ATOM     10  C   UNL     1       5.182   4.919  18.703  0.00  0.00    +0.000 A 
ATOM     11  C   UNL     1       6.293   5.477  19.342  0.00  0.00    +0.000 A 
ATOM     12  C   UNL     1       7.535   5.480  18.704  0.00  0.00    +0.000 A 
ATOM     13  C   UNL     1       7.670   4.944  17.422  0.00  0.00    +0.000 A 
ATOM     14  C   UNL     1       6.564   4.415  16.759  0.00  0.00    +0.000 A 
ATOM     15  C   UNL     1       5.339   4.374  17.420  0.00  0.00    +0.000 A 
BRANCH  14  16
ATOM     16  O   UNL     1       6.802   3.979  15.488  0.00  0.00    +0.000 OA
BRANCH  16  17
ATOM     17  C   UNL     1       6.186   4.600  14.333  0.00  0.00    +0.000 C 
ATOM     18  C   UNL     1       5.335   3.589  13.555  0.00  0.00    +0.000 C 
ATOM     19  C   UNL     1       5.488   5.937  14.622  0.00  0.00    +0.000 C 
BRANCH  17  20
ATOM     20  C   UNL     1       7.368   4.951  13.402  0.00  0.00    +0.000 C 
ATOM     21  O   UNL     1       7.471   4.581  12.237  0.00  0.00    +0.000 OA
BRANCH  20  22
ATOM     22  O   UNL     1       8.315   5.724  13.992  0.00  0.00    +0.000 OA
ATOM     23  H   UNL     1       8.447   6.533  13.450  0.00  0.00    +0.000 HD
ENDBRANCH  20  22
ENDBRANCH  17  20
ENDBRANCH  16  17
ENDBRANCH  14  16
ENDBRANCH   9  10
BRANCH   1  24
ATOM     24  C   UNL     1       2.919   7.132  18.451  0.00  0.00    +0.000 C 
ATOM     25  O   UNL     1       3.628   7.288  17.456  0.00  0.00    +0.000 OA
BRANCH  24  30
ATOM     26  C   UNL     1      -0.813  11.393  19.748  0.00  0.00    +0.000 C 
ATOM     27  C   UNL     1       0.193  10.331  19.418  0.00  0.00    +0.000 A 
ATOM     28  C   UNL     1       0.617  10.120  18.101  0.00  0.00    +0.000 A 
ATOM     29  C   UNL     1       1.513   9.089  17.802  0.00  0.00    +0.000 A 
ATOM     30  C   UNL     1       1.988   8.247  18.817  0.00  0.00    +0.000 A 
ATOM     31  C   UNL     1       1.593   8.483  20.139  0.00  0.00    +0.000 A 
ATOM     32  C   UNL     1       0.696   9.512  20.435  0.00  0.00    +0.000 A 
ENDBRANCH  24  30
ENDBRANCH   1  24
TORSDOF 7
ENDMDL
MODEL 6
REMARK VINA RESULT:      -8.2      3.404      6.522
REMARK  Name = 
REMARK  10 active torsions:
REMARK  status: ('A' for Active; 'I' for Inactive)
REMARK    1  A    between atoms: C_1  and  C_2
REMARK    2  A    between atoms: C_5  and  C_6
REMARK    3  A    between atoms: C_6  and  C_8
REMARK    4  A    between atoms: N_16  and  C_17
REMARK    5  A    between atoms: C_21  and  O_22
REMARK    6  A    between atoms: O_22  and  C_23
REMARK    7  A    between atoms: C_23  and  C_24
REMARK    8  A    between atoms: C_23  and  C_25
REMARK    9  A    between atoms: C_23  and  C_26
REMARK   10  A    between atoms: C_26  and  O_28
REMARK                            x       y       z     vdW  Elec       q    Type
REMARK                         _______ _______ _______ _____ _____    ______ ____
ROOT
ATOM      1  C   UNL     1       7.091   6.165  17.044  0.00  0.00    +0.000 A 
ATOM      2  N   UNL     1       7.883   5.794  16.050  0.00  0.00    +0.000 NA
ATOM      3  C   UNL     1       7.094   5.151  15.148  0.00  0.00    +0.000 A 
ATOM      4  C   UNL     1       7.464   4.559  13.931  0.00  0.00    +0.000 A 
ATOM      5  C   UNL     1       6.479   3.976  13.130  0.00  0.00    +0.000 A 
ATOM      6  C   UNL     1       5.145   4.007  13.523  0.00  0.00    +0.000 A 
ATOM      7  C   UNL     1       4.761   4.608  14.728  0.00  0.00    +0.000 A 
ATOM      8  C   UNL     1       5.765   5.146  15.557  0.00  0.00    +0.000 A 
ATOM      9  N   UNL     1       5.768   5.798  16.796  0.00  0.00    +0.000 N 
ENDROOT
BRANCH   9  10
ATOM     10  C   UNL     1       4.622   6.032  17.624  0.00  0.00    +0.000 A 
ATOM     11  C   UNL     1       3.863   7.200  17.510  0.00  0.00    +0.000 A 
ATOM     12  C   UNL     1       2.768   7.404  18.351  0.00  0.00    +0.000 A 
ATOM     13  C   UNL     1       2.436   6.455  19.319  0.00  0.00    +0.000 A 
ATOM     14  C   UNL     1       3.204   5.301  19.468  0.00  0.00    +0.000 A 
ATOM     15  C   UNL     1       4.267   5.083  18.594  0.00  0.00    +0.000 A 
BRANCH  14  16
ATOM     16  O   UNL     1       2.826   4.477  20.488  0.00  0.00    +0.000 OA
BRANCH  16  17
ATOM     17  C   UNL     1       2.107   3.241  20.253  0.00  0.00    +0.000 C 
ATOM     18  C   UNL     1       1.569   2.661  21.566  0.00  0.00    +0.000 C 
ATOM     19  C   UNL     1       1.081   3.305  19.112  0.00  0.00    +0.000 C 
BRANCH  17  20
ATOM     20  C   UNL     1       3.188   2.248  19.772  0.00  0.00    +0.000 C 
ATOM     21  O   UNL     1       3.109   1.573  18.751  0.00  0.00    +0.000 OA
BRANCH  20  22
ATOM     22  O   UNL     1       4.267   2.175  20.593  0.00  0.00    +0.000 OA
ATOM     23  H   UNL     1       5.083   2.196  20.047  0.00  0.00    +0.000 HD
ENDBRANCH  20  22
ENDBRANCH  17  20
ENDBRANCH  16  17
ENDBRANCH  14  16
ENDBRANCH   9  10
BRANCH   1  24
ATOM     24  C   UNL     1       7.651   6.738  18.260  0.00  0.00    +0.000 C 
ATOM     25  O   UNL     1       7.842   6.096  19.293  0.00  0.00    +0.000 OA
BRANCH  24  30
ATOM     26  C   UNL     1       9.052  12.378  18.275  0.00  0.00    +0.000 C 
ATOM     27  C   UNL     1       8.729  10.914  18.230  0.00  0.00    +0.000 A 
ATOM     28  C   UNL     1       7.774  10.411  17.339  0.00  0.00    +0.000 A 
ATOM     29  C   UNL     1       7.444   9.053  17.348  0.00  0.00    +0.000 A 
ATOM     30  C   UNL     1       8.057   8.180  18.258  0.00  0.00    +0.000 A 
ATOM     31  C   UNL     1       9.040   8.678  19.123  0.00  0.00    +0.000 A 
ATOM     32  C   UNL     1       9.367  10.036  19.113  0.00  0.00    +0.000 A 
ENDBRANCH  24  30
ENDBRANCH   1  24
TORSDOF 7
ENDMDL
MODEL 7
REMARK VINA RESULT:      -8.1      3.562      6.395
REMARK  Name = 
REMARK  10 active torsions:
REMARK  status: ('A' for Active; 'I' for Inactive)
REMARK    1  A    between atoms: C_1  and  C_2
REMARK    2  A    between atoms: C_5  and  C_6
REMARK    3  A    between atoms: C_6  and  C_8
REMARK    4  A    between atoms: N_16  and  C_17
REMARK    5  A    between atoms: C_21  and  O_22
REMARK    6  A    between atoms: O_22  and  C_23
REMARK    7  A    between atoms: C_23  and  C_24
REMARK    8  A    between atoms: C_23  and  C_25
REMARK    9  A    between atoms: C_23  and  C_26
REMARK   10  A    between atoms: C_26  and  O_28
REMARK                            x       y       z     vdW  Elec       q    Type
REMARK                         _______ _______ _______ _____ _____    ______ ____
ROOT
ATOM      1  C   UNL     1       7.108   6.192  17.013  0.00  0.00    +0.000 A 
ATOM      2  N   UNL     1       7.899   5.802  16.026  0.00  0.00    +0.000 NA
ATOM      3  C   UNL     1       7.107   5.154  15.130  0.00  0.00    +0.000 A 
ATOM      4  C   UNL     1       7.476   4.544  13.921  0.00  0.00    +0.000 A 
ATOM      5  C   UNL     1       6.488   3.960  13.125  0.00  0.00    +0.000 A 
ATOM      6  C   UNL     1       5.153   4.007  13.514  0.00  0.00    +0.000 A 
ATOM      7  C   UNL     1       4.771   4.626  14.710  0.00  0.00    +0.000 A 
ATOM      8  C   UNL     1       5.777   5.166  15.535  0.00  0.00    +0.000 A 
ATOM      9  N   UNL     1       5.782   5.834  16.766  0.00  0.00    +0.000 N 
ENDROOT
BRANCH   9  10
ATOM     10  C   UNL     1       4.636   6.088  17.587  0.00  0.00    +0.000 A 
ATOM     11  C   UNL     1       3.884   7.257  17.451  0.00  0.00    +0.000 A 
ATOM     12  C   UNL     1       2.788   7.482  18.287  0.00  0.00    +0.000 A 
ATOM     13  C   UNL     1       2.449   6.551  19.271  0.00  0.00    +0.000 A 
ATOM     14  C   UNL     1       3.211   5.396  19.441  0.00  0.00    +0.000 A 
ATOM     15  C   UNL     1       4.275   5.158  18.573  0.00  0.00    +0.000 A 
BRANCH  14  16
ATOM     16  O   UNL     1       2.827   4.592  20.474  0.00  0.00    +0.000 OA
BRANCH  16  17
ATOM     17  C   UNL     1       2.197   3.306  20.256  0.00  0.00    +0.000 C 
ATOM     18  C   UNL     1       0.689   3.464  20.033  0.00  0.00    +0.000 C 
ATOM     19  C   UNL     1       2.907   2.412  19.228  0.00  0.00    +0.000 C 
BRANCH  17  20
ATOM     20  C   UNL     1       2.342   2.568  21.605  0.00  0.00    +0.000 C 
ATOM     21  O   UNL     1       3.368   2.017  21.991  0.00  0.00    +0.000 OA
BRANCH  20  22
ATOM     22  O   UNL     1       1.211   2.573  22.355  0.00  0.00    +0.000 OA
ATOM     23  H   UNL     1       1.267   1.853  23.021  0.00  0.00    +0.000 HD
ENDBRANCH  20  22
ENDBRANCH  17  20
ENDBRANCH  16  17
ENDBRANCH  14  16
ENDBRANCH   9  10
BRANCH   1  24
ATOM     24  C   UNL     1       7.670   6.776  18.223  0.00  0.00    +0.000 C 
ATOM     25  O   UNL     1       7.894   6.135  19.250  0.00  0.00    +0.000 OA
BRANCH  24  30
ATOM     26  C   UNL     1       9.261  12.365  18.198  0.00  0.00    +0.000 C 
ATOM     27  C   UNL     1       8.812  10.934  18.245  0.00  0.00    +0.000 A 
ATOM     28  C   UNL     1       9.388  10.025  19.140  0.00  0.00    +0.000 A 
ATOM     29  C   UNL     1       8.998   8.683  19.134  0.00  0.00    +0.000 A 
ATOM     30  C   UNL     1       8.035   8.229  18.222  0.00  0.00    +0.000 A 
ATOM     31  C   UNL     1       7.432   9.147  17.353  0.00  0.00    +0.000 A 
ATOM     32  C   UNL     1       7.825  10.488  17.361  0.00  0.00    +0.000 A 
ENDBRANCH  24  30
ENDBRANCH   1  24
TORSDOF 7
ENDMDL
MODEL 8
REMARK VINA RESULT:      -8.1      2.415      7.718
REMARK  Name = 
REMARK  10 active torsions:
REMARK  status: ('A' for Active; 'I' for Inactive)
REMARK    1  A    between atoms: C_1  and  C_2
REMARK    2  A    between atoms: C_5  and  C_6
REMARK    3  A    between atoms: C_6  and  C_8
REMARK    4  A    between atoms: N_16  and  C_17
REMARK    5  A    between atoms: C_21  and  O_22
REMARK    6  A    between atoms: O_22  and  C_23
REMARK    7  A    between atoms: C_23  and  C_24
REMARK    8  A    between atoms: C_23  and  C_25
REMARK    9  A    between atoms: C_23  and  C_26
REMARK   10  A    between atoms: C_26  and  O_28
REMARK                            x       y       z     vdW  Elec       q    Type
REMARK                         _______ _______ _______ _____ _____    ______ ____
ROOT
ATOM      1  C   UNL     1       2.976   5.948  19.212  0.00  0.00    +0.000 A 
ATOM      2  N   UNL     1       1.937   5.661  19.981  0.00  0.00    +0.000 NA
ATOM      3  C   UNL     1       2.152   4.409  20.466  0.00  0.00    +0.000 A 
ATOM      4  C   UNL     1       1.333   3.651  21.317  0.00  0.00    +0.000 A 
ATOM      5  C   UNL     1       1.763   2.387  21.728  0.00  0.00    +0.000 A 
ATOM      6  C   UNL     1       3.000   1.899  21.319  0.00  0.00    +0.000 A 
ATOM      7  C   UNL     1       3.833   2.652  20.483  0.00  0.00    +0.000 A 
ATOM      8  C   UNL     1       3.370   3.902  20.028  0.00  0.00    +0.000 A 
ATOM      9  N   UNL     1       3.900   4.903  19.204  0.00  0.00    +0.000 N 
ENDROOT
BRANCH   9  10
ATOM     10  C   UNL     1       5.149   4.841  18.504  0.00  0.00    +0.000 A 
ATOM     11  C   UNL     1       6.315   5.393  19.040  0.00  0.00    +0.000 A 
ATOM     12  C   UNL     1       7.509   5.335  18.318  0.00  0.00    +0.000 A 
ATOM     13  C   UNL     1       7.541   4.742  17.054  0.00  0.00    +0.000 A 
ATOM     14  C   UNL     1       6.377   4.218  16.493  0.00  0.00    +0.000 A 
ATOM     15  C   UNL     1       5.201   4.238  17.239  0.00  0.00    +0.000 A 
BRANCH  14  16
ATOM     16  O   UNL     1       6.514   3.723  15.229  0.00  0.00    +0.000 OA
BRANCH  16  17
ATOM     17  C   UNL     1       6.404   4.566  14.056  0.00  0.00    +0.000 C 
ATOM     18  C   UNL     1       5.344   5.654  14.259  0.00  0.00    +0.000 C 
ATOM     19  C   UNL     1       7.745   5.071  13.504  0.00  0.00    +0.000 C 
BRANCH  17  20
ATOM     20  C   UNL     1       5.839   3.635  12.959  0.00  0.00    +0.000 C 
ATOM     21  O   UNL     1       4.667   3.618  12.596  0.00  0.00    +0.000 OA
BRANCH  20  22
ATOM     22  O   UNL     1       6.767   2.810  12.411  0.00  0.00    +0.000 OA
ATOM     23  H   UNL     1       6.355   1.933  12.248  0.00  0.00    +0.000 HD
ENDBRANCH  20  22
ENDBRANCH  17  20
ENDBRANCH  16  17
ENDBRANCH  14  16
ENDBRANCH   9  10
BRANCH   1  24
ATOM     24  C   UNL     1       2.982   7.159  18.402  0.00  0.00    +0.000 C 
ATOM     25  O   UNL     1       3.709   7.321  17.422  0.00  0.00    +0.000 OA
BRANCH  24  30
ATOM     26  C   UNL     1      -0.584  11.509  19.861  0.00  0.00    +0.000 C 
ATOM     27  C   UNL     1       0.291  10.351  19.482  0.00  0.00    +0.000 A 
ATOM     28  C   UNL     1       0.818   9.494  20.455  0.00  0.00    +0.000 A 
ATOM     29  C   UNL     1       1.678   8.454  20.091  0.00  0.00    +0.000 A 
ATOM     30  C   UNL     1       2.031   8.264  18.748  0.00  0.00    +0.000 A 
ATOM     31  C   UNL     1       1.472   9.098  17.771  0.00  0.00    +0.000 A 
ATOM     32  C   UNL     1       0.615  10.138  18.138  0.00  0.00    +0.000 A 
ENDBRANCH  24  30
ENDBRANCH   1  24
TORSDOF 7
ENDMDL
MODEL 9
REMARK VINA RESULT:      -8.0      3.459      6.376
REMARK  Name = 
REMARK  10 active torsions:
REMARK  status: ('A' for Active; 'I' for Inactive)
REMARK    1  A    between atoms: C_1  and  C_2
REMARK    2  A    between atoms: C_5  and  C_6
REMARK    3  A    between atoms: C_6  and  C_8
REMARK    4  A    between atoms: N_16  and  C_17
REMARK    5  A    between atoms: C_21  and  O_22
REMARK    6  A    between atoms: O_22  and  C_23
REMARK    7  A    between atoms: C_23  and  C_24
REMARK    8  A    between atoms: C_23  and  C_25
REMARK    9  A    between atoms: C_23  and  C_26
REMARK   10  A    between atoms: C_26  and  O_28
REMARK                            x       y       z     vdW  Elec       q    Type
REMARK                         _______ _______ _______ _____ _____    ______ ____
ROOT
ATOM      1  C   UNL     1       7.091   6.166  17.044  0.00  0.00    +0.000 A 
ATOM      2  N   UNL     1       7.873   5.781  16.047  0.00  0.00    +0.000 NA
ATOM      3  C   UNL     1       7.072   5.133  15.158  0.00  0.00    +0.000 A 
ATOM      4  C   UNL     1       7.428   4.527  13.944  0.00  0.00    +0.000 A 
ATOM      5  C   UNL     1       6.433   3.942  13.157  0.00  0.00    +0.000 A 
ATOM      6  C   UNL     1       5.103   3.985  13.561  0.00  0.00    +0.000 A 
ATOM      7  C   UNL     1       4.732   4.600  14.763  0.00  0.00    +0.000 A 
ATOM      8  C   UNL     1       5.746   5.140  15.578  0.00  0.00    +0.000 A 
ATOM      9  N   UNL     1       5.764   5.804  16.811  0.00  0.00    +0.000 N 
ENDROOT
BRANCH   9  10
ATOM     10  C   UNL     1       4.627   6.053  17.646  0.00  0.00    +0.000 A 
ATOM     11  C   UNL     1       3.821   7.181  17.469  0.00  0.00    +0.000 A 
ATOM     12  C   UNL     1       2.736   7.403  18.318  0.00  0.00    +0.000 A 
ATOM     13  C   UNL     1       2.460   6.512  19.357  0.00  0.00    +0.000 A 
ATOM     14  C   UNL     1       3.275   5.400  19.567  0.00  0.00    +0.000 A 
ATOM     15  C   UNL     1       4.328   5.161  18.687  0.00  0.00    +0.000 A 
BRANCH  14  16
ATOM     16  O   UNL     1       2.948   4.636  20.650  0.00  0.00    +0.000 OA
BRANCH  16  17
ATOM     17  C   UNL     1       2.610   3.233  20.528  0.00  0.00    +0.000 C 
ATOM     18  C   UNL     1       3.726   2.458  19.817  0.00  0.00    +0.000 C 
ATOM     19  C   UNL     1       2.102   2.583  21.823  0.00  0.00    +0.000 C 
BRANCH  17  20
ATOM     20  C   UNL     1       1.405   3.206  19.560  0.00  0.00    +0.000 C 
ATOM     21  O   UNL     1       1.466   2.872  18.381  0.00  0.00    +0.000 OA
BRANCH  20  22
ATOM     22  O   UNL     1       0.237   3.593  20.132  0.00  0.00    +0.000 OA
ATOM     23  H   UNL     1      -0.506   3.335  19.543  0.00  0.00    +0.000 HD
ENDBRANCH  20  22
ENDBRANCH  17  20
ENDBRANCH  16  17
ENDBRANCH  14  16
ENDBRANCH   9  10
BRANCH   1  24
ATOM     24  C   UNL     1       7.665   6.748  18.249  0.00  0.00    +0.000 C 
ATOM     25  O   UNL     1       7.897   6.105  19.274  0.00  0.00    +0.000 OA
BRANCH  24  30
ATOM     26  C   UNL     1       9.268  12.333  18.219  0.00  0.00    +0.000 C 
ATOM     27  C   UNL     1       8.816  10.904  18.267  0.00  0.00    +0.000 A 
ATOM     28  C   UNL     1       9.366  10.001  19.183  0.00  0.00    +0.000 A 
ATOM     29  C   UNL     1       8.975   8.659  19.178  0.00  0.00    +0.000 A 
ATOM     30  C   UNL     1       8.033   8.200  18.246  0.00  0.00    +0.000 A 
ATOM     31  C   UNL     1       7.455   9.112  17.355  0.00  0.00    +0.000 A 
ATOM     32  C   UNL     1       7.850  10.452  17.361  0.00  0.00    +0.000 A 
ENDBRANCH  24  30
ENDBRANCH   1  24
TORSDOF 7
ENDMDL
