MODEL 1
REMARK VINA RESULT:      -6.8      0.000      0.000
REMARK  Name = 
REMARK  3 active torsions:
REMARK  status: ('A' for Active; 'I' for Inactive)
REMARK    1  A    between atoms: C_1  and  S_2
REMARK    2  A    between atoms: S_2  and  N_5
REMARK    3  A    between atoms: N_5  and  C_6
REMARK                            x       y       z     vdW  Elec       q    Type
REMARK                         _______ _______ _______ _____ _____    ______ ____
ROOT
ATOM      1  C   UNL     1       4.875   4.784  18.502  0.00  0.00    +0.000 A 
ATOM      2  C   UNL     1       4.252   6.021  18.312  0.00  0.00    +0.000 A 
ATOM      3  C   UNL     1       2.892   6.100  18.027  0.00  0.00    +0.000 A 
ATOM      4  C   UNL     1       2.116   4.940  17.929  0.00  0.00    +0.000 A 
ATOM      5  C   UNL     1       2.720   3.684  18.137  0.00  0.00    +0.000 A 
ATOM      6  C   UNL     1       2.237   2.346  18.116  0.00  0.00    +0.000 A 
ATOM      7  C   UNL     1       3.292   1.516  18.416  0.00  0.00    +0.000 A 
ATOM      8  N   UNL     1       4.397   2.302  18.628  0.00  0.00    +0.000 N 
ATOM      9  C   UNL     1       4.085   3.630  18.431  0.00  0.00    +0.000 A 
ATOM     10  H   UNL     1       5.304   1.962  18.914  0.00  0.00    +0.000 HD
ENDROOT
BRANCH   1  11
ATOM     11  N   UNL     1       6.274   4.746  18.765  0.00  0.00    +0.000 N 
ATOM     12  H   UNL     1       6.589   5.276  19.577  0.00  0.00    +0.000 HD
BRANCH  11  14
ATOM     13  C   UNL     1       6.409   4.211  16.136  0.00  0.00    +0.000 C 
ATOM     14  S   UNL     1       7.336   4.939  17.471  0.00  0.00    +0.000 S 
ATOM     15  O   UNL     1       8.448   4.058  17.765  0.00  0.00    +0.000 OA
ATOM     16  O   UNL     1       7.551   6.341  17.203  0.00  0.00    +0.000 OA
ENDBRANCH  11  14
ENDBRANCH   1  11
TORSDOF 2
ENDMDL
MODEL 2
REMARK VINA RESULT:      -6.8      1.629      1.664
REMARK  Name = 
REMARK  3 active torsions:
REMARK  status: ('A' for Active; 'I' for Inactive)
REMARK    1  A    between atoms: C_1  and  S_2
REMARK    2  A    between atoms: S_2  and  N_5
REMARK    3  A    between atoms: N_5  and  C_6
REMARK                            x       y       z     vdW  Elec       q    Type
REMARK                         _______ _______ _______ _____ _____    ______ ____
ROOT
ATOM      1  C   UNL     1       4.576   4.380  17.899  0.00  0.00    +0.000 A 
ATOM      2  C   UNL     1       3.673   5.353  17.464  0.00  0.00    +0.000 A 
ATOM      3  C   UNL     1       2.438   5.514  18.087  0.00  0.00    +0.000 A 
ATOM      4  C   UNL     1       2.076   4.704  19.168  0.00  0.00    +0.000 A 
ATOM      5  C   UNL     1       2.979   3.730  19.637  0.00  0.00    +0.000 A 
ATOM      6  C   UNL     1       2.933   2.770  20.685  0.00  0.00    +0.000 A 
ATOM      7  C   UNL     1       4.130   2.093  20.685  0.00  0.00    +0.000 A 
ATOM      8  N   UNL     1       4.907   2.614  19.682  0.00  0.00    +0.000 N 
ATOM      9  C   UNL     1       4.217   3.593  19.002  0.00  0.00    +0.000 A 
ATOM     10  H   UNL     1       5.859   2.340  19.484  0.00  0.00    +0.000 HD
ENDROOT
BRANCH   1  11
ATOM     11  N   UNL     1       5.817   4.231  17.218  0.00  0.00    +0.000 N 
ATOM     12  H   UNL     1       6.016   3.300  16.853  0.00  0.00    +0.000 HD
BRANCH  11  14
ATOM     13  C   UNL     1       7.201   6.533  17.171  0.00  0.00    +0.000 C 
ATOM     14  S   UNL     1       7.194   4.913  17.910  0.00  0.00    +0.000 S 
ATOM     15  O   UNL     1       8.303   4.169  17.348  0.00  0.00    +0.000 OA
ATOM     16  O   UNL     1       7.031   5.033  19.340  0.00  0.00    +0.000 OA
ENDBRANCH  11  14
ENDBRANCH   1  11
TORSDOF 2
ENDMDL
MODEL 3
REMARK VINA RESULT:      -6.7      1.349      1.393
REMARK  Name = 
REMARK  3 active torsions:
REMARK  status: ('A' for Active; 'I' for Inactive)
REMARK    1  A    between atoms: C_1  and  S_2
REMARK    2  A    between atoms: S_2  and  N_5
REMARK    3  A    between atoms: N_5  and  C_6
REMARK                            x       y       z     vdW  Elec       q    Type
REMARK                         _______ _______ _______ _____ _____    ______ ____
ROOT
ATOM      1  C   UNL     1       4.515   4.963  17.440  0.00  0.00    +0.000 A 
ATOM      2  C   UNL     1       3.804   6.147  17.652  0.00  0.00    +0.000 A 
ATOM      3  C   UNL     1       2.503   6.121  18.149  0.00  0.00    +0.000 A 
ATOM      4  C   UNL     1       1.881   4.906  18.452  0.00  0.00    +0.000 A 
ATOM      5  C   UNL     1       2.587   3.701  18.265  0.00  0.00    +0.000 A 
ATOM      6  C   UNL     1       2.264   2.332  18.471  0.00  0.00    +0.000 A 
ATOM      7  C   UNL     1       3.369   1.586  18.129  0.00  0.00    +0.000 A 
ATOM      8  N   UNL     1       4.355   2.454  17.734  0.00  0.00    +0.000 N 
ATOM      9  C   UNL     1       3.894   3.752  17.774  0.00  0.00    +0.000 A 
ATOM     10  H   UNL     1       5.294   2.186  17.474  0.00  0.00    +0.000 HD
ENDROOT
BRANCH   1  11
ATOM     11  N   UNL     1       5.832   5.032  16.906  0.00  0.00    +0.000 N 
ATOM     12  H   UNL     1       6.026   4.417  16.116  0.00  0.00    +0.000 HD
BRANCH  11  14
ATOM     13  C   UNL     1       7.643   6.758  17.885  0.00  0.00    +0.000 C 
ATOM     14  S   UNL     1       7.130   5.055  17.981  0.00  0.00    +0.000 S 
ATOM     15  O   UNL     1       8.156   4.252  17.348  0.00  0.00    +0.000 OA
ATOM     16  O   UNL     1       6.678   4.761  19.320  0.00  0.00    +0.000 OA
ENDBRANCH  11  14
ENDBRANCH   1  11
TORSDOF 2
ENDMDL
MODEL 4
REMARK VINA RESULT:      -6.7      2.106      2.390
REMARK  Name = 
REMARK  3 active torsions:
REMARK  status: ('A' for Active; 'I' for Inactive)
REMARK    1  A    between atoms: C_1  and  S_2
REMARK    2  A    between atoms: S_2  and  N_5
REMARK    3  A    between atoms: N_5  and  C_6
REMARK                            x       y       z     vdW  Elec       q    Type
REMARK                         _______ _______ _______ _____ _____    ______ ____
ROOT
ATOM      1  C   UNL     1       4.111   3.515  18.762  0.00  0.00    +0.000 A 
ATOM      2  C   UNL     1       3.701   3.595  17.428  0.00  0.00    +0.000 A 
ATOM      3  C   UNL     1       2.355   3.488  17.086  0.00  0.00    +0.000 A 
ATOM      4  C   UNL     1       1.382   3.304  18.073  0.00  0.00    +0.000 A 
ATOM      5  C   UNL     1       1.771   3.241  19.426  0.00  0.00    +0.000 A 
ATOM      6  C   UNL     1       1.060   3.070  20.646  0.00  0.00    +0.000 A 
ATOM      7  C   UNL     1       1.975   3.110  21.672  0.00  0.00    +0.000 A 
ATOM      8  N   UNL     1       3.215   3.310  21.121  0.00  0.00    +0.000 N 
ATOM      9  C   UNL     1       3.126   3.359  19.747  0.00  0.00    +0.000 A 
ATOM     10  H   UNL     1       4.071   3.429  21.645  0.00  0.00    +0.000 HD
ENDROOT
BRANCH   1  11
ATOM     11  N   UNL     1       5.498   3.602  19.067  0.00  0.00    +0.000 N 
ATOM     12  H   UNL     1       5.785   3.194  19.956  0.00  0.00    +0.000 HD
BRANCH  11  14
ATOM     13  C   UNL     1       7.377   4.645  17.455  0.00  0.00    +0.000 C 
ATOM     14  S   UNL     1       6.285   5.067  18.797  0.00  0.00    +0.000 S 
ATOM     15  O   UNL     1       7.100   5.279  19.976  0.00  0.00    +0.000 OA
ATOM     16  O   UNL     1       5.343   6.069  18.357  0.00  0.00    +0.000 OA
ENDBRANCH  11  14
ENDBRANCH   1  11
TORSDOF 2
ENDMDL
MODEL 5
REMARK VINA RESULT:      -6.6      2.057      3.051
REMARK  Name = 
REMARK  3 active torsions:
REMARK  status: ('A' for Active; 'I' for Inactive)
REMARK    1  A    between atoms: C_1  and  S_2
REMARK    2  A    between atoms: S_2  and  N_5
REMARK    3  A    between atoms: N_5  and  C_6
REMARK                            x       y       z     vdW  Elec       q    Type
REMARK                         _______ _______ _______ _____ _____    ______ ____
ROOT
ATOM      1  C   UNL     1       4.006   3.236  18.811  0.00  0.00    +0.000 A 
ATOM      2  C   UNL     1       3.564   2.099  18.130  0.00  0.00    +0.000 A 
ATOM      3  C   UNL     1       2.229   1.706  18.185  0.00  0.00    +0.000 A 
ATOM      4  C   UNL     1       1.299   2.447  18.921  0.00  0.00    +0.000 A 
ATOM      5  C   UNL     1       1.719   3.609  19.598  0.00  0.00    +0.000 A 
ATOM      6  C   UNL     1       1.054   4.567  20.410  0.00  0.00    +0.000 A 
ATOM      7  C   UNL     1       1.981   5.511  20.789  0.00  0.00    +0.000 A 
ATOM      8  N   UNL     1       3.183   5.166  20.227  0.00  0.00    +0.000 N 
ATOM      9  C   UNL     1       3.062   3.988  19.521  0.00  0.00    +0.000 A 
ATOM     10  H   UNL     1       4.033   5.708  20.297  0.00  0.00    +0.000 HD
ENDROOT
BRANCH   1  11
ATOM     11  N   UNL     1       5.384   3.588  18.750  0.00  0.00    +0.000 N 
ATOM     12  H   UNL     1       5.840   3.761  19.646  0.00  0.00    +0.000 HD
BRANCH  11  14
ATOM     13  C   UNL     1       7.643   4.640  17.745  0.00  0.00    +0.000 C 
ATOM     14  S   UNL     1       5.870   4.720  17.601  0.00  0.00    +0.000 S 
ATOM     15  O   UNL     1       5.444   5.999  18.131  0.00  0.00    +0.000 OA
ATOM     16  O   UNL     1       5.472   4.296  16.279  0.00  0.00    +0.000 OA
ENDBRANCH  11  14
ENDBRANCH   1  11
TORSDOF 2
ENDMDL
MODEL 6
REMARK VINA RESULT:      -6.6      1.819      2.741
REMARK  Name = 
REMARK  3 active torsions:
REMARK  status: ('A' for Active; 'I' for Inactive)
REMARK    1  A    between atoms: C_1  and  S_2
REMARK    2  A    between atoms: S_2  and  N_5
REMARK    3  A    between atoms: N_5  and  C_6
REMARK                            x       y       z     vdW  Elec       q    Type
REMARK                         _______ _______ _______ _____ _____    ______ ____
ROOT
ATOM      1  C   UNL     1       4.072   3.208  18.839  0.00  0.00    +0.000 A 
ATOM      2  C   UNL     1       3.629   2.190  17.991  0.00  0.00    +0.000 A 
ATOM      3  C   UNL     1       2.272   1.908  17.859  0.00  0.00    +0.000 A 
ATOM      4  C   UNL     1       1.320   2.645  18.571  0.00  0.00    +0.000 A 
ATOM      5  C   UNL     1       1.742   3.690  19.416  0.00  0.00    +0.000 A 
ATOM      6  C   UNL     1       1.060   4.612  20.256  0.00  0.00    +0.000 A 
ATOM      7  C   UNL     1       2.003   5.428  20.835  0.00  0.00    +0.000 A 
ATOM      8  N   UNL     1       3.234   5.043  20.368  0.00  0.00    +0.000 N 
ATOM      9  C   UNL     1       3.109   3.960  19.525  0.00  0.00    +0.000 A 
ATOM     10  H   UNL     1       4.107   5.501  20.588  0.00  0.00    +0.000 HD
ENDROOT
BRANCH   1  11
ATOM     11  N   UNL     1       5.469   3.447  18.965  0.00  0.00    +0.000 N 
ATOM     12  H   UNL     1       5.840   3.432  19.915  0.00  0.00    +0.000 HD
BRANCH  11  14
ATOM     13  C   UNL     1       5.834   4.174  16.405  0.00  0.00    +0.000 C 
ATOM     14  S   UNL     1       6.148   4.706  18.075  0.00  0.00    +0.000 S 
ATOM     15  O   UNL     1       7.575   4.604  18.307  0.00  0.00    +0.000 OA
ATOM     16  O   UNL     1       5.442   5.940  18.330  0.00  0.00    +0.000 OA
ENDBRANCH  11  14
ENDBRANCH   1  11
TORSDOF 2
ENDMDL
MODEL 7
REMARK VINA RESULT:      -6.6      3.098      4.401
REMARK  Name = 
REMARK  3 active torsions:
REMARK  status: ('A' for Active; 'I' for Inactive)
REMARK    1  A    between atoms: C_1  and  S_2
REMARK    2  A    between atoms: S_2  and  N_5
REMARK    3  A    between atoms: N_5  and  C_6
REMARK                            x       y       z     vdW  Elec       q    Type
REMARK                         _______ _______ _______ _____ _____    ______ ____
ROOT
ATOM      1  C   UNL     1       6.061   4.428  18.381  0.00  0.00    +0.000 A 
ATOM      2  C   UNL     1       6.606   5.518  19.066  0.00  0.00    +0.000 A 
ATOM      3  C   UNL     1       7.302   6.514  18.386  0.00  0.00    +0.000 A 
ATOM      4  C   UNL     1       7.467   6.447  16.998  0.00  0.00    +0.000 A 
ATOM      5  C   UNL     1       6.908   5.368  16.286  0.00  0.00    +0.000 A 
ATOM      6  C   UNL     1       6.885   5.005  14.911  0.00  0.00    +0.000 A 
ATOM      7  C   UNL     1       6.162   3.840  14.798  0.00  0.00    +0.000 A 
ATOM      8  N   UNL     1       5.736   3.488  16.054  0.00  0.00    +0.000 N 
ATOM      9  C   UNL     1       6.206   4.385  16.988  0.00  0.00    +0.000 A 
ATOM     10  H   UNL     1       5.141   2.699  16.264  0.00  0.00    +0.000 HD
ENDROOT
BRANCH   1  11
ATOM     11  N   UNL     1       5.380   3.418  19.117  0.00  0.00    +0.000 N 
ATOM     12  H   UNL     1       5.818   2.498  19.122  0.00  0.00    +0.000 HD
BRANCH  11  14
ATOM     13  C   UNL     1       3.223   2.661  20.529  0.00  0.00    +0.000 C 
ATOM     14  S   UNL     1       3.710   3.287  18.934  0.00  0.00    +0.000 S 
ATOM     15  O   UNL     1       3.521   2.223  17.969  0.00  0.00    +0.000 OA
ATOM     16  O   UNL     1       3.123   4.589  18.726  0.00  0.00    +0.000 OA
ENDBRANCH  11  14
ENDBRANCH   1  11
TORSDOF 2
ENDMDL
MODEL 8
REMARK VINA RESULT:      -6.5      1.089      1.302
REMARK  Name = 
REMARK  3 active torsions:
REMARK  status: ('A' for Active; 'I' for Inactive)
REMARK    1  A    between atoms: C_1  and  S_2
REMARK    2  A    between atoms: S_2  and  N_5
REMARK    3  A    between atoms: N_5  and  C_6
REMARK                            x       y       z     vdW  Elec       q    Type
REMARK                         _______ _______ _______ _____ _____    ______ ____
ROOT
ATOM      1  C   UNL     1       4.602   4.880  18.726  0.00  0.00    +0.000 A 
ATOM      2  C   UNL     1       3.856   6.045  18.530  0.00  0.00    +0.000 A 
ATOM      3  C   UNL     1       2.524   5.983  18.130  0.00  0.00    +0.000 A 
ATOM      4  C   UNL     1       1.901   4.749  17.919  0.00  0.00    +0.000 A 
ATOM      5  C   UNL     1       2.628   3.561  18.130  0.00  0.00    +0.000 A 
ATOM      6  C   UNL     1       2.308   2.180  18.015  0.00  0.00    +0.000 A 
ATOM      7  C   UNL     1       3.425   1.461  18.374  0.00  0.00    +0.000 A 
ATOM      8  N   UNL     1       4.408   2.356  18.713  0.00  0.00    +0.000 N 
ATOM      9  C   UNL     1       3.961   3.648  18.541  0.00  0.00    +0.000 A 
ATOM     10  H   UNL     1       5.323   2.107  19.064  0.00  0.00    +0.000 HD
ENDROOT
BRANCH   1  11
ATOM     11  N   UNL     1       5.968   4.987  19.110  0.00  0.00    +0.000 N 
ATOM     12  H   UNL     1       6.172   5.655  19.852  0.00  0.00    +0.000 HD
BRANCH  11  14
ATOM     13  C   UNL     1       7.508   6.805  17.869  0.00  0.00    +0.000 C 
ATOM     14  S   UNL     1       7.135   5.064  17.896  0.00  0.00    +0.000 S 
ATOM     15  O   UNL     1       6.425   4.749  16.673  0.00  0.00    +0.000 OA
ATOM     16  O   UNL     1       8.312   4.323  18.283  0.00  0.00    +0.000 OA
ENDBRANCH  11  14
ENDBRANCH   1  11
TORSDOF 2
ENDMDL
MODEL 9
REMARK VINA RESULT:      -6.4      1.047      1.083
REMARK  Name = 
REMARK  3 active torsions:
REMARK  status: ('A' for Active; 'I' for Inactive)
REMARK    1  A    between atoms: C_1  and  S_2
REMARK    2  A    between atoms: S_2  and  N_5
REMARK    3  A    between atoms: N_5  and  C_6
REMARK                            x       y       z     vdW  Elec       q    Type
REMARK                         _______ _______ _______ _____ _____    ______ ____
ROOT
ATOM      1  C   UNL     1       4.637   5.420  18.344  0.00  0.00    +0.000 A 
ATOM      2  C   UNL     1       3.563   6.184  17.880  0.00  0.00    +0.000 A 
ATOM      3  C   UNL     1       2.260   5.696  17.940  0.00  0.00    +0.000 A 
ATOM      4  C   UNL     1       1.998   4.429  18.471  0.00  0.00    +0.000 A 
ATOM      5  C   UNL     1       3.063   3.651  18.964  0.00  0.00    +0.000 A 
ATOM      6  C   UNL     1       3.146   2.361  19.556  0.00  0.00    +0.000 A 
ATOM      7  C   UNL     1       4.466   2.124  19.860  0.00  0.00    +0.000 A 
ATOM      8  N   UNL     1       5.188   3.229  19.485  0.00  0.00    +0.000 N 
ATOM      9  C   UNL     1       4.362   4.165  18.902  0.00  0.00    +0.000 A 
ATOM     10  H   UNL     1       6.179   3.352  19.636  0.00  0.00    +0.000 HD
ENDROOT
BRANCH   1  11
ATOM     11  N   UNL     1       5.956   5.944  18.241  0.00  0.00    +0.000 N 
ATOM     12  H   UNL     1       6.033   6.961  18.242  0.00  0.00    +0.000 HD
BRANCH  11  14
ATOM     13  C   UNL     1       5.867   4.346  16.084  0.00  0.00    +0.000 C 
ATOM     14  S   UNL     1       7.000   5.263  17.107  0.00  0.00    +0.000 S 
ATOM     15  O   UNL     1       7.791   4.306  17.852  0.00  0.00    +0.000 OA
ATOM     16  O   UNL     1       7.632   6.297  16.322  0.00  0.00    +0.000 OA
ENDBRANCH  11  14
ENDBRANCH   1  11
TORSDOF 2
ENDMDL
