MODEL 1
REMARK VINA RESULT:      -5.3      0.000      0.000
REMARK  Name = 
REMARK  5 active torsions:
REMARK  status: ('A' for Active; 'I' for Inactive)
REMARK    1  A    between atoms: C_1  and  N_2
REMARK    2  A    between atoms: N_2  and  C_3
REMARK    3  A    between atoms: N_2  and  C_4
REMARK    4  A    between atoms: C_4  and  C_5
REMARK    5  A    between atoms: C_5  and  C_6
REMARK                            x       y       z     vdW  Elec       q    Type
REMARK                         _______ _______ _______ _____ _____    ______ ____
ROOT
ATOM      1  C   UNL     1       4.031   5.659  17.321  0.00  0.00    +0.000 A 
ATOM      2  C   UNL     1       3.486   6.415  18.368  0.00  0.00    +0.000 A 
ATOM      3  C   UNL     1       2.600   5.835  19.279  0.00  0.00    +0.000 A 
ATOM      4  C   UNL     1       2.246   4.495  19.138  0.00  0.00    +0.000 A 
ATOM      5 BR   UNL     1       1.042   3.711  20.367  0.00  0.00    +0.000 Br
ATOM      6  C   UNL     1       2.768   3.732  18.099  0.00  0.00    +0.000 A 
ATOM      7  C   UNL     1       3.658   4.312  17.193  0.00  0.00    +0.000 A 
ENDROOT
BRANCH   1   8
ATOM      8  C   UNL     1       4.988   6.284  16.328  0.00  0.00    +0.000 C 
BRANCH   8   9
ATOM      9  C   UNL     1       6.386   6.535  16.925  0.00  0.00    +0.000 C 
BRANCH   9  11
ATOM     10  C   UNL     1       7.605   4.612  17.701  0.00  0.00    +0.000 C 
ATOM     11  N   UNL     1       7.393   5.515  16.564  0.00  0.00    +0.000 NA
ATOM     12  C   UNL     1       6.998   4.735  15.389  0.00  0.00    +0.000 C 
ENDBRANCH   9  11
ENDBRANCH   8   9
ENDBRANCH   1   8
TORSDOF 3
ENDMDL
MODEL 2
REMARK VINA RESULT:      -5.3      0.647      1.807
REMARK  Name = 
REMARK  5 active torsions:
REMARK  status: ('A' for Active; 'I' for Inactive)
REMARK    1  A    between atoms: C_1  and  N_2
REMARK    2  A    between atoms: N_2  and  C_3
REMARK    3  A    between atoms: N_2  and  C_4
REMARK    4  A    between atoms: C_4  and  C_5
REMARK    5  A    between atoms: C_5  and  C_6
REMARK                            x       y       z     vdW  Elec       q    Type
REMARK                         _______ _______ _______ _____ _____    ______ ____
ROOT
ATOM      1  C   UNL     1       4.046   5.495  17.173  0.00  0.00    +0.000 A 
ATOM      2  C   UNL     1       3.933   4.106  17.025  0.00  0.00    +0.000 A 
ATOM      3  C   UNL     1       3.024   3.380  17.799  0.00  0.00    +0.000 A 
ATOM      4  C   UNL     1       2.232   4.041  18.734  0.00  0.00    +0.000 A 
ATOM      5 BR   UNL     1       1.007   3.057  19.786  0.00  0.00    +0.000 Br
ATOM      6  C   UNL     1       2.338   5.418  18.903  0.00  0.00    +0.000 A 
ATOM      7  C   UNL     1       3.242   6.143  18.124  0.00  0.00    +0.000 A 
ENDROOT
BRANCH   1   8
ATOM      8  C   UNL     1       5.032   6.287  16.340  0.00  0.00    +0.000 C 
BRANCH   8   9
ATOM      9  C   UNL     1       6.265   5.460  15.928  0.00  0.00    +0.000 C 
BRANCH   9  11
ATOM     10  C   UNL     1       7.350   6.997  17.427  0.00  0.00    +0.000 C 
ATOM     11  N   UNL     1       7.459   5.690  16.769  0.00  0.00    +0.000 NA
ATOM     12  C   UNL     1       7.636   4.646  17.781  0.00  0.00    +0.000 C 
ENDBRANCH   9  11
ENDBRANCH   8   9
ENDBRANCH   1   8
TORSDOF 3
ENDMDL
MODEL 3
REMARK VINA RESULT:      -5.2      0.404      1.429
REMARK  Name = 
REMARK  5 active torsions:
REMARK  status: ('A' for Active; 'I' for Inactive)
REMARK    1  A    between atoms: C_1  and  N_2
REMARK    2  A    between atoms: N_2  and  C_3
REMARK    3  A    between atoms: N_2  and  C_4
REMARK    4  A    between atoms: C_4  and  C_5
REMARK    5  A    between atoms: C_5  and  C_6
REMARK                            x       y       z     vdW  Elec       q    Type
REMARK                         _______ _______ _______ _____ _____    ______ ____
ROOT
ATOM      1  C   UNL     1       3.961   5.374  17.511  0.00  0.00    +0.000 A 
ATOM      2  C   UNL     1       3.384   4.120  17.273  0.00  0.00    +0.000 A 
ATOM      3  C   UNL     1       2.579   3.512  18.240  0.00  0.00    +0.000 A 
ATOM      4  C   UNL     1       2.358   4.154  19.456  0.00  0.00    +0.000 A 
ATOM      5 BR   UNL     1       1.273   3.330  20.767  0.00  0.00    +0.000 Br
ATOM      6  C   UNL     1       2.932   5.395  19.714  0.00  0.00    +0.000 A 
ATOM      7  C   UNL     1       3.731   6.004  18.744  0.00  0.00    +0.000 A 
ENDROOT
BRANCH   1   8
ATOM      8  C   UNL     1       4.838   6.036  16.469  0.00  0.00    +0.000 C 
BRANCH   8   9
ATOM      9  C   UNL     1       6.218   6.442  17.021  0.00  0.00    +0.000 C 
BRANCH   9  11
ATOM     10  C   UNL     1       7.630   4.626  17.725  0.00  0.00    +0.000 C 
ATOM     11  N   UNL     1       7.320   5.542  16.621  0.00  0.00    +0.000 NA
ATOM     12  C   UNL     1       6.999   4.768  15.420  0.00  0.00    +0.000 C 
ENDBRANCH   9  11
ENDBRANCH   8   9
ENDBRANCH   1   8
TORSDOF 3
ENDMDL
MODEL 4
REMARK VINA RESULT:      -5.2      0.637      1.093
REMARK  Name = 
REMARK  5 active torsions:
REMARK  status: ('A' for Active; 'I' for Inactive)
REMARK    1  A    between atoms: C_1  and  N_2
REMARK    2  A    between atoms: N_2  and  C_3
REMARK    3  A    between atoms: N_2  and  C_4
REMARK    4  A    between atoms: C_4  and  C_5
REMARK    5  A    between atoms: C_5  and  C_6
REMARK                            x       y       z     vdW  Elec       q    Type
REMARK                         _______ _______ _______ _____ _____    ______ ____
ROOT
ATOM      1  C   UNL     1       3.943   5.715  17.576  0.00  0.00    +0.000 A 
ATOM      2  C   UNL     1       3.486   6.257  18.785  0.00  0.00    +0.000 A 
ATOM      3  C   UNL     1       2.641   5.522  19.620  0.00  0.00    +0.000 A 
ATOM      4  C   UNL     1       2.240   4.243  19.243  0.00  0.00    +0.000 A 
ATOM      5 BR   UNL     1       1.092   3.251  20.370  0.00  0.00    +0.000 Br
ATOM      6  C   UNL     1       2.675   3.693  18.041  0.00  0.00    +0.000 A 
ATOM      7  C   UNL     1       3.524   4.426  17.210  0.00  0.00    +0.000 A 
ENDROOT
BRANCH   1   8
ATOM      8  C   UNL     1       4.856   6.508  16.665  0.00  0.00    +0.000 C 
BRANCH   8   9
ATOM      9  C   UNL     1       5.969   5.647  16.039  0.00  0.00    +0.000 C 
BRANCH   9  11
ATOM     10  C   UNL     1       7.351   7.046  17.424  0.00  0.00    +0.000 C 
ATOM     11  N   UNL     1       7.279   5.764  16.713  0.00  0.00    +0.000 NA
ATOM     12  C   UNL     1       7.521   4.669  17.655  0.00  0.00    +0.000 C 
ENDBRANCH   9  11
ENDBRANCH   8   9
ENDBRANCH   1   8
TORSDOF 3
ENDMDL
MODEL 5
REMARK VINA RESULT:      -5.1      1.370      1.804
REMARK  Name = 
REMARK  5 active torsions:
REMARK  status: ('A' for Active; 'I' for Inactive)
REMARK    1  A    between atoms: C_1  and  N_2
REMARK    2  A    between atoms: N_2  and  C_3
REMARK    3  A    between atoms: N_2  and  C_4
REMARK    4  A    between atoms: C_4  and  C_5
REMARK    5  A    between atoms: C_5  and  C_6
REMARK                            x       y       z     vdW  Elec       q    Type
REMARK                         _______ _______ _______ _____ _____    ______ ____
ROOT
ATOM      1  C   UNL     1       3.822   4.134  17.525  0.00  0.00    +0.000 A 
ATOM      2  C   UNL     1       4.532   3.563  18.590  0.00  0.00    +0.000 A 
ATOM      3  C   UNL     1       3.868   3.154  19.749  0.00  0.00    +0.000 A 
ATOM      4  C   UNL     1       2.490   3.325  19.851  0.00  0.00    +0.000 A 
ATOM      5 BR   UNL     1       1.592   2.777  21.423  0.00  0.00    +0.000 Br
ATOM      6  C   UNL     1       1.770   3.900  18.809  0.00  0.00    +0.000 A 
ATOM      7  C   UNL     1       2.434   4.303  17.648  0.00  0.00    +0.000 A 
ENDROOT
BRANCH   1   8
ATOM      8  C   UNL     1       4.536   4.584  16.268  0.00  0.00    +0.000 C 
BRANCH   8   9
ATOM      9  C   UNL     1       5.135   5.997  16.395  0.00  0.00    +0.000 C 
BRANCH   9  11
ATOM     10  C   UNL     1       7.238   6.625  17.380  0.00  0.00    +0.000 C 
ATOM     11  N   UNL     1       6.597   6.059  16.187  0.00  0.00    +0.000 NA
ATOM     12  C   UNL     1       7.174   4.744  15.900  0.00  0.00    +0.000 C 
ENDBRANCH   9  11
ENDBRANCH   8   9
ENDBRANCH   1   8
TORSDOF 3
ENDMDL
MODEL 6
REMARK VINA RESULT:      -5.1      1.172      1.481
REMARK  Name = 
REMARK  5 active torsions:
REMARK  status: ('A' for Active; 'I' for Inactive)
REMARK    1  A    between atoms: C_1  and  N_2
REMARK    2  A    between atoms: N_2  and  C_3
REMARK    3  A    between atoms: N_2  and  C_4
REMARK    4  A    between atoms: C_4  and  C_5
REMARK    5  A    between atoms: C_5  and  C_6
REMARK                            x       y       z     vdW  Elec       q    Type
REMARK                         _______ _______ _______ _____ _____    ______ ____
ROOT
ATOM      1  C   UNL     1       3.843   4.248  17.652  0.00  0.00    +0.000 A 
ATOM      2  C   UNL     1       2.486   4.565  17.798  0.00  0.00    +0.000 A 
ATOM      3  C   UNL     1       1.772   4.138  18.920  0.00  0.00    +0.000 A 
ATOM      4  C   UNL     1       2.412   3.379  19.897  0.00  0.00    +0.000 A 
ATOM      5 BR   UNL     1       1.444   2.796  21.413  0.00  0.00    +0.000 Br
ATOM      6  C   UNL     1       3.756   3.045  19.764  0.00  0.00    +0.000 A 
ATOM      7  C   UNL     1       4.470   3.478  18.644  0.00  0.00    +0.000 A 
ENDROOT
BRANCH   1   8
ATOM      8  C   UNL     1       4.621   4.704  16.436  0.00  0.00    +0.000 C 
BRANCH   8   9
ATOM      9  C   UNL     1       5.680   5.771  16.772  0.00  0.00    +0.000 C 
BRANCH   9  11
ATOM     10  C   UNL     1       7.669   4.576  17.406  0.00  0.00    +0.000 C 
ATOM     11  N   UNL     1       7.055   5.411  16.367  0.00  0.00    +0.000 NA
ATOM     12  C   UNL     1       7.090   4.700  15.086  0.00  0.00    +0.000 C 
ENDBRANCH   9  11
ENDBRANCH   8   9
ENDBRANCH   1   8
TORSDOF 3
ENDMDL
MODEL 7
REMARK VINA RESULT:      -5.1      1.137      1.992
REMARK  Name = 
REMARK  5 active torsions:
REMARK  status: ('A' for Active; 'I' for Inactive)
REMARK    1  A    between atoms: C_1  and  N_2
REMARK    2  A    between atoms: N_2  and  C_3
REMARK    3  A    between atoms: N_2  and  C_4
REMARK    4  A    between atoms: C_4  and  C_5
REMARK    5  A    between atoms: C_5  and  C_6
REMARK                            x       y       z     vdW  Elec       q    Type
REMARK                         _______ _______ _______ _____ _____    ______ ____
ROOT
ATOM      1  C   UNL     1       4.346   4.996  17.078  0.00  0.00    +0.000 A 
ATOM      2  C   UNL     1       4.294   3.618  17.323  0.00  0.00    +0.000 A 
ATOM      3  C   UNL     1       3.337   3.085  18.191  0.00  0.00    +0.000 A 
ATOM      4  C   UNL     1       2.435   3.934  18.828  0.00  0.00    +0.000 A 
ATOM      5 BR   UNL     1       1.145   3.214  20.007  0.00  0.00    +0.000 Br
ATOM      6  C   UNL     1       2.479   5.306  18.605  0.00  0.00    +0.000 A 
ATOM      7  C   UNL     1       3.432   5.837  17.732  0.00  0.00    +0.000 A 
ENDROOT
BRANCH   1   8
ATOM      8  C   UNL     1       5.383   5.580  16.141  0.00  0.00    +0.000 C 
BRANCH   8   9
ATOM      9  C   UNL     1       6.799   5.584  16.748  0.00  0.00    +0.000 C 
BRANCH   9  11
ATOM     10  C   UNL     1       7.686   5.754  18.977  0.00  0.00    +0.000 C 
ATOM     11  N   UNL     1       6.953   6.466  17.924  0.00  0.00    +0.000 NA
ATOM     12  C   UNL     1       7.653   7.711  17.598  0.00  0.00    +0.000 C 
ENDBRANCH   9  11
ENDBRANCH   8   9
ENDBRANCH   1   8
TORSDOF 3
ENDMDL
MODEL 8
REMARK VINA RESULT:      -5.1      1.108      1.459
REMARK  Name = 
REMARK  5 active torsions:
REMARK  status: ('A' for Active; 'I' for Inactive)
REMARK    1  A    between atoms: C_1  and  N_2
REMARK    2  A    between atoms: N_2  and  C_3
REMARK    3  A    between atoms: N_2  and  C_4
REMARK    4  A    between atoms: C_4  and  C_5
REMARK    5  A    between atoms: C_5  and  C_6
REMARK                            x       y       z     vdW  Elec       q    Type
REMARK                         _______ _______ _______ _____ _____    ______ ____
ROOT
ATOM      1  C   UNL     1       4.350   5.097  17.027  0.00  0.00    +0.000 A 
ATOM      2  C   UNL     1       3.499   5.952  17.740  0.00  0.00    +0.000 A 
ATOM      3  C   UNL     1       2.528   5.434  18.600  0.00  0.00    +0.000 A 
ATOM      4  C   UNL     1       2.397   4.055  18.741  0.00  0.00    +0.000 A 
ATOM      5 BR   UNL     1       1.078   3.354  19.901  0.00  0.00    +0.000 Br
ATOM      6  C   UNL     1       3.225   3.191  18.033  0.00  0.00    +0.000 A 
ATOM      7  C   UNL     1       4.200   3.710  17.179  0.00  0.00    +0.000 A 
ENDROOT
BRANCH   1   8
ATOM      8  C   UNL     1       5.402   5.653  16.090  0.00  0.00    +0.000 C 
BRANCH   8   9
ATOM      9  C   UNL     1       6.814   5.645  16.707  0.00  0.00    +0.000 C 
BRANCH   9  11
ATOM     10  C   UNL     1       7.676   5.796  18.948  0.00  0.00    +0.000 C 
ATOM     11  N   UNL     1       6.966   6.521  17.887  0.00  0.00    +0.000 NA
ATOM     12  C   UNL     1       7.687   7.757  17.574  0.00  0.00    +0.000 C 
ENDBRANCH   9  11
ENDBRANCH   8   9
ENDBRANCH   1   8
TORSDOF 3
ENDMDL
MODEL 9
REMARK VINA RESULT:      -5.1      1.233      1.921
REMARK  Name = 
REMARK  5 active torsions:
REMARK  status: ('A' for Active; 'I' for Inactive)
REMARK    1  A    between atoms: C_1  and  N_2
REMARK    2  A    between atoms: N_2  and  C_3
REMARK    3  A    between atoms: N_2  and  C_4
REMARK    4  A    between atoms: C_4  and  C_5
REMARK    5  A    between atoms: C_5  and  C_6
REMARK                            x       y       z     vdW  Elec       q    Type
REMARK                         _______ _______ _______ _____ _____    ______ ____
ROOT
ATOM      1  C   UNL     1       3.786   4.126  17.379  0.00  0.00    +0.000 A 
ATOM      2  C   UNL     1       2.798   3.134  17.320  0.00  0.00    +0.000 A 
ATOM      3  C   UNL     1       2.082   2.773  18.464  0.00  0.00    +0.000 A 
ATOM      4  C   UNL     1       2.363   3.396  19.678  0.00  0.00    +0.000 A 
ATOM      5 BR   UNL     1       1.399   2.904  21.228  0.00  0.00    +0.000 Br
ATOM      6  C   UNL     1       3.347   4.375  19.758  0.00  0.00    +0.000 A 
ATOM      7  C   UNL     1       4.057   4.740  18.611  0.00  0.00    +0.000 A 
ENDROOT
BRANCH   1   8
ATOM      8  C   UNL     1       4.567   4.518  16.143  0.00  0.00    +0.000 C 
BRANCH   8   9
ATOM      9  C   UNL     1       5.127   5.951  16.221  0.00  0.00    +0.000 C 
BRANCH   9  11
ATOM     10  C   UNL     1       7.259   6.341  17.267  0.00  0.00    +0.000 C 
ATOM     11  N   UNL     1       6.585   6.046  15.997  0.00  0.00    +0.000 NA
ATOM     12  C   UNL     1       7.141   4.819  15.422  0.00  0.00    +0.000 C 
ENDBRANCH   9  11
ENDBRANCH   8   9
ENDBRANCH   1   8
TORSDOF 3
ENDMDL
