MODEL 1
REMARK VINA RESULT:      -6.7      0.000      0.000
REMARK  Name = 
REMARK  6 active torsions:
REMARK  status: ('A' for Active; 'I' for Inactive)
REMARK    1  A    between atoms: C_1  and  C_2
REMARK    2  A    between atoms: C_2  and  O_3
REMARK    3  A    between atoms: O_3  and  C_4
REMARK    4  A    between atoms: N_9  and  C_10
REMARK    5  A    between atoms: C_15  and  O_16
REMARK    6  A    between atoms: O_16  and  C_17
REMARK                            x       y       z     vdW  Elec       q    Type
REMARK                         _______ _______ _______ _____ _____    ______ ____
ROOT
ATOM      1  C   UNL     1       6.777   5.543  15.835  0.00  0.00    +0.000 C 
ATOM      2  O   UNL     1       7.771   6.158  16.193  0.00  0.00    +0.000 OA
ATOM      3  N   UNL     1       5.908   4.912  16.691  0.00  0.00    +0.000 N 
ATOM      4  C   UNL     1       6.253   4.836  18.107  0.00  0.00    +0.000 C 
ATOM      5  C   UNL     1       5.011   4.971  18.992  0.00  0.00    +0.000 C 
ATOM      6  N   UNL     1       4.046   3.928  18.591  0.00  0.00    +0.000 N 
ATOM      7  C   UNL     1       3.568   4.115  17.207  0.00  0.00    +0.000 C 
ATOM      8  C   UNL     1       4.781   4.082  16.237  0.00  0.00    +0.000 C 
ENDROOT
BRANCH   6   9
ATOM      9  C   UNL     1       3.128   3.482  19.545  0.00  0.00    +0.000 A 
ATOM     10  C   UNL     1       1.766   3.839  19.449  0.00  0.00    +0.000 A 
ATOM     11  C   UNL     1       0.836   3.523  20.444  0.00  0.00    +0.000 A 
ATOM     12  C   UNL     1       1.244   2.825  21.570  0.00  0.00    +0.000 A 
ATOM     13  C   UNL     1       2.567   2.408  21.672  0.00  0.00    +0.000 A 
ATOM     14  C   UNL     1       3.506   2.725  20.677  0.00  0.00    +0.000 A 
BRANCH  14  15
ATOM     15  O   UNL     1       4.745   2.189  20.936  0.00  0.00    +0.000 OA
ATOM     16  C   UNL     1       5.040   0.949  20.311  0.00  0.00    +0.000 C 
ENDBRANCH  14  15
ENDBRANCH   6   9
BRANCH   1  17
ATOM     17  O   UNL     1       6.340   5.484  14.550  0.00  0.00    +0.000 OA
BRANCH  17  19
ATOM     18  C   UNL     1       6.412   3.749  12.917  0.00  0.00    +0.000 C 
ATOM     19  C   UNL     1       7.223   4.803  13.651  0.00  0.00    +0.000 C 
ENDBRANCH  17  19
ENDBRANCH   1  17
TORSDOF 4
ENDMDL
MODEL 2
REMARK VINA RESULT:      -6.6      1.873      2.419
REMARK  Name = 
REMARK  6 active torsions:
REMARK  status: ('A' for Active; 'I' for Inactive)
REMARK    1  A    between atoms: C_1  and  C_2
REMARK    2  A    between atoms: C_2  and  O_3
REMARK    3  A    between atoms: O_3  and  C_4
REMARK    4  A    between atoms: N_9  and  C_10
REMARK    5  A    between atoms: C_15  and  O_16
REMARK    6  A    between atoms: O_16  and  C_17
REMARK                            x       y       z     vdW  Elec       q    Type
REMARK                         _______ _______ _______ _____ _____    ______ ____
ROOT
ATOM      1  C   UNL     1       7.029   4.742  14.428  0.00  0.00    +0.000 C 
ATOM      2  O   UNL     1       7.842   5.587  14.085  0.00  0.00    +0.000 OA
ATOM      3  N   UNL     1       6.197   4.865  15.515  0.00  0.00    +0.000 N 
ATOM      4  C   UNL     1       6.382   6.000  16.412  0.00  0.00    +0.000 C 
ATOM      5  C   UNL     1       5.041   6.518  16.940  0.00  0.00    +0.000 C 
ATOM      6  N   UNL     1       4.339   5.394  17.592  0.00  0.00    +0.000 N 
ATOM      7  C   UNL     1       4.000   4.321  16.637  0.00  0.00    +0.000 C 
ATOM      8  C   UNL     1       5.304   3.791  15.978  0.00  0.00    +0.000 C 
ENDROOT
BRANCH   6   9
ATOM      9  C   UNL     1       3.415   5.692  18.595  0.00  0.00    +0.000 A 
ATOM     10  C   UNL     1       2.822   6.971  18.665  0.00  0.00    +0.000 A 
ATOM     11  C   UNL     1       1.990   7.355  19.721  0.00  0.00    +0.000 A 
ATOM     12  C   UNL     1       1.716   6.459  20.743  0.00  0.00    +0.000 A 
ATOM     13  C   UNL     1       2.238   5.171  20.679  0.00  0.00    +0.000 A 
ATOM     14  C   UNL     1       3.077   4.780  19.622  0.00  0.00    +0.000 A 
BRANCH  14  15
ATOM     15  O   UNL     1       3.455   3.462  19.712  0.00  0.00    +0.000 OA
ATOM     16  C   UNL     1       2.450   2.497  19.440  0.00  0.00    +0.000 C 
ENDBRANCH  14  15
ENDBRANCH   6   9
BRANCH   1  17
ATOM     17  O   UNL     1       6.763   3.610  13.724  0.00  0.00    +0.000 OA
BRANCH  17  19
ATOM     18  C   UNL     1       5.150   3.254  12.006  0.00  0.00    +0.000 C 
ATOM     19  C   UNL     1       6.523   3.819  12.328  0.00  0.00    +0.000 C 
ENDBRANCH  17  19
ENDBRANCH   1  17
TORSDOF 4
ENDMDL
MODEL 3
REMARK VINA RESULT:      -6.5      1.534      2.305
REMARK  Name = 
REMARK  6 active torsions:
REMARK  status: ('A' for Active; 'I' for Inactive)
REMARK    1  A    between atoms: C_1  and  C_2
REMARK    2  A    between atoms: C_2  and  O_3
REMARK    3  A    between atoms: O_3  and  C_4
REMARK    4  A    between atoms: N_9  and  C_10
REMARK    5  A    between atoms: C_15  and  O_16
REMARK    6  A    between atoms: O_16  and  C_17
REMARK                            x       y       z     vdW  Elec       q    Type
REMARK                         _______ _______ _______ _____ _____    ______ ____
ROOT
ATOM      1  C   UNL     1       6.646   4.969  15.053  0.00  0.00    +0.000 C 
ATOM      2  O   UNL     1       7.712   5.558  15.164  0.00  0.00    +0.000 OA
ATOM      3  N   UNL     1       5.878   4.554  16.114  0.00  0.00    +0.000 N 
ATOM      4  C   UNL     1       6.419   4.685  17.463  0.00  0.00    +0.000 C 
ATOM      5  C   UNL     1       5.325   5.057  18.467  0.00  0.00    +0.000 C 
ATOM      6  N   UNL     1       4.259   4.039  18.385  0.00  0.00    +0.000 N 
ATOM      7  C   UNL     1       3.598   4.031  17.066  0.00  0.00    +0.000 C 
ATOM      8  C   UNL     1       4.655   3.748  15.964  0.00  0.00    +0.000 C 
ENDROOT
BRANCH   6   9
ATOM      9  C   UNL     1       3.467   3.825  19.515  0.00  0.00    +0.000 A 
ATOM     10  C   UNL     1       3.678   2.695  20.334  0.00  0.00    +0.000 A 
ATOM     11  C   UNL     1       2.833   2.373  21.400  0.00  0.00    +0.000 A 
ATOM     12  C   UNL     1       1.747   3.185  21.687  0.00  0.00    +0.000 A 
ATOM     13  C   UNL     1       1.540   4.339  20.936  0.00  0.00    +0.000 A 
ATOM     14  C   UNL     1       2.384   4.666  19.862  0.00  0.00    +0.000 A 
BRANCH  14  15
ATOM     15  O   UNL     1       2.045   5.860  19.274  0.00  0.00    +0.000 OA
ATOM     16  C   UNL     1       2.198   7.024  20.072  0.00  0.00    +0.000 C 
ENDBRANCH  14  15
ENDBRANCH   6   9
BRANCH   1  17
ATOM     17  O   UNL     1       6.026   4.732  13.867  0.00  0.00    +0.000 OA
BRANCH  17  19
ATOM     18  C   UNL     1       5.580   3.218  12.082  0.00  0.00    +0.000 C 
ATOM     19  C   UNL     1       6.621   3.695  13.080  0.00  0.00    +0.000 C 
ENDBRANCH  17  19
ENDBRANCH   1  17
TORSDOF 4
ENDMDL
MODEL 4
REMARK VINA RESULT:      -6.2      2.461      3.488
REMARK  Name = 
REMARK  6 active torsions:
REMARK  status: ('A' for Active; 'I' for Inactive)
REMARK    1  A    between atoms: C_1  and  C_2
REMARK    2  A    between atoms: C_2  and  O_3
REMARK    3  A    between atoms: O_3  and  C_4
REMARK    4  A    between atoms: N_9  and  C_10
REMARK    5  A    between atoms: C_15  and  O_16
REMARK    6  A    between atoms: O_16  and  C_17
REMARK                            x       y       z     vdW  Elec       q    Type
REMARK                         _______ _______ _______ _____ _____    ______ ____
ROOT
ATOM      1  C   UNL     1       6.846   4.684  14.535  0.00  0.00    +0.000 C 
ATOM      2  O   UNL     1       7.690   5.487  14.166  0.00  0.00    +0.000 OA
ATOM      3  N   UNL     1       6.072   4.836  15.659  0.00  0.00    +0.000 N 
ATOM      4  C   UNL     1       6.360   5.945  16.561  0.00  0.00    +0.000 C 
ATOM      5  C   UNL     1       5.074   6.528  17.155  0.00  0.00    +0.000 C 
ATOM      6  N   UNL     1       4.340   5.436  17.824  0.00  0.00    +0.000 N 
ATOM      7  C   UNL     1       3.900   4.397  16.872  0.00  0.00    +0.000 C 
ATOM      8  C   UNL     1       5.142   3.806  16.149  0.00  0.00    +0.000 C 
ENDROOT
BRANCH   6   9
ATOM      9  C   UNL     1       3.480   5.769  18.872  0.00  0.00    +0.000 A 
ATOM     10  C   UNL     1       3.202   4.835  19.894  0.00  0.00    +0.000 A 
ATOM     11  C   UNL     1       2.253   5.076  20.892  0.00  0.00    +0.000 A 
ATOM     12  C   UNL     1       1.555   6.273  20.903  0.00  0.00    +0.000 A 
ATOM     13  C   UNL     1       1.842   7.240  19.945  0.00  0.00    +0.000 A 
ATOM     14  C   UNL     1       2.792   7.003  18.937  0.00  0.00    +0.000 A 
BRANCH  14  15
ATOM     15  O   UNL     1       2.967   8.089  18.115  0.00  0.00    +0.000 OA
ATOM     16  C   UNL     1       1.810   8.862  17.833  0.00  0.00    +0.000 C 
ENDBRANCH  14  15
ENDBRANCH   6   9
BRANCH   1  17
ATOM     17  O   UNL     1       6.487   3.578  13.829  0.00  0.00    +0.000 OA
BRANCH  17  19
ATOM     18  C   UNL     1       5.224   3.140  11.856  0.00  0.00    +0.000 C 
ATOM     19  C   UNL     1       6.503   3.748  12.407  0.00  0.00    +0.000 C 
ENDBRANCH  17  19
ENDBRANCH   1  17
TORSDOF 4
ENDMDL
MODEL 5
REMARK VINA RESULT:      -6.1      1.150      1.198
REMARK  Name = 
REMARK  6 active torsions:
REMARK  status: ('A' for Active; 'I' for Inactive)
REMARK    1  A    between atoms: C_1  and  C_2
REMARK    2  A    between atoms: C_2  and  O_3
REMARK    3  A    between atoms: O_3  and  C_4
REMARK    4  A    between atoms: N_9  and  C_10
REMARK    5  A    between atoms: C_15  and  O_16
REMARK    6  A    between atoms: O_16  and  C_17
REMARK                            x       y       z     vdW  Elec       q    Type
REMARK                         _______ _______ _______ _____ _____    ______ ____
ROOT
ATOM      1  C   UNL     1       6.743   4.998  14.796  0.00  0.00    +0.000 C 
ATOM      2  O   UNL     1       7.828   5.552  14.895  0.00  0.00    +0.000 OA
ATOM      3  N   UNL     1       5.971   4.611  15.864  0.00  0.00    +0.000 N 
ATOM      4  C   UNL     1       6.527   4.730  17.207  0.00  0.00    +0.000 C 
ATOM      5  C   UNL     1       5.454   5.140  18.220  0.00  0.00    +0.000 C 
ATOM      6  N   UNL     1       4.356   4.156  18.151  0.00  0.00    +0.000 N 
ATOM      7  C   UNL     1       3.683   4.165  16.838  0.00  0.00    +0.000 C 
ATOM      8  C   UNL     1       4.722   3.845  15.727  0.00  0.00    +0.000 C 
ENDROOT
BRANCH   6   9
ATOM      9  C   UNL     1       3.567   3.972  19.288  0.00  0.00    +0.000 A 
ATOM     10  C   UNL     1       2.728   5.009  19.752  0.00  0.00    +0.000 A 
ATOM     11  C   UNL     1       2.018   4.918  20.952  0.00  0.00    +0.000 A 
ATOM     12  C   UNL     1       2.118   3.773  21.727  0.00  0.00    +0.000 A 
ATOM     13  C   UNL     1       2.891   2.708  21.274  0.00  0.00    +0.000 A 
ATOM     14  C   UNL     1       3.610   2.795  20.070  0.00  0.00    +0.000 A 
BRANCH  14  15
ATOM     15  O   UNL     1       4.276   1.631  19.772  0.00  0.00    +0.000 OA
ATOM     16  C   UNL     1       3.840   0.931  18.616  0.00  0.00    +0.000 C 
ENDBRANCH  14  15
ENDBRANCH   6   9
BRANCH   1  17
ATOM     17  O   UNL     1       6.106   4.777  13.615  0.00  0.00    +0.000 OA
BRANCH  17  19
ATOM     18  C   UNL     1       5.587   3.081  12.024  0.00  0.00    +0.000 C 
ATOM     19  C   UNL     1       6.702   3.765  12.796  0.00  0.00    +0.000 C 
ENDBRANCH  17  19
ENDBRANCH   1  17
TORSDOF 4
ENDMDL
MODEL 6
REMARK VINA RESULT:      -6.0      4.126      6.873
REMARK  Name = 
REMARK  6 active torsions:
REMARK  status: ('A' for Active; 'I' for Inactive)
REMARK    1  A    between atoms: C_1  and  C_2
REMARK    2  A    between atoms: C_2  and  O_3
REMARK    3  A    between atoms: O_3  and  C_4
REMARK    4  A    between atoms: N_9  and  C_10
REMARK    5  A    between atoms: C_15  and  O_16
REMARK    6  A    between atoms: O_16  and  C_17
REMARK                            x       y       z     vdW  Elec       q    Type
REMARK                         _______ _______ _______ _____ _____    ______ ____
ROOT
ATOM      1  C   UNL     1       1.236   8.699  20.122  0.00  0.00    +0.000 C 
ATOM      2  O   UNL     1       0.858   9.786  19.711  0.00  0.00    +0.000 OA
ATOM      3  N   UNL     1       2.003   7.821  19.395  0.00  0.00    +0.000 N 
ATOM      4  C   UNL     1       2.270   8.121  17.992  0.00  0.00    +0.000 C 
ATOM      5  C   UNL     1       3.685   7.694  17.591  0.00  0.00    +0.000 C 
ATOM      6  N   UNL     1       3.835   6.257  17.896  0.00  0.00    +0.000 N 
ATOM      7  C   UNL     1       3.735   5.983  19.343  0.00  0.00    +0.000 C 
ATOM      8  C   UNL     1       2.354   6.470  19.864  0.00  0.00    +0.000 C 
ENDROOT
BRANCH   6   9
ATOM      9  C   UNL     1       4.761   5.521  17.154  0.00  0.00    +0.000 A 
ATOM     10  C   UNL     1       6.009   6.083  16.810  0.00  0.00    +0.000 A 
ATOM     11  C   UNL     1       6.915   5.436  15.964  0.00  0.00    +0.000 A 
ATOM     12  C   UNL     1       6.600   4.191  15.442  0.00  0.00    +0.000 A 
ATOM     13  C   UNL     1       5.403   3.582  15.804  0.00  0.00    +0.000 A 
ATOM     14  C   UNL     1       4.487   4.229  16.651  0.00  0.00    +0.000 A 
BRANCH  14  15
ATOM     15  O   UNL     1       3.389   3.451  16.926  0.00  0.00    +0.000 OA
ATOM     16  C   UNL     1       3.539   2.487  17.957  0.00  0.00    +0.000 C 
ENDBRANCH  14  15
ENDBRANCH   6   9
BRANCH   1  17
ATOM     17  O   UNL     1       1.036   8.252  21.390  0.00  0.00    +0.000 OA
BRANCH  17  19
ATOM     18  C   UNL     1      -0.065   9.457  23.126  0.00  0.00    +0.000 C 
ATOM     19  C   UNL     1       1.255   9.234  22.409  0.00  0.00    +0.000 C 
ENDBRANCH  17  19
ENDBRANCH   1  17
TORSDOF 4
ENDMDL
MODEL 7
REMARK VINA RESULT:      -5.9      5.340      7.374
REMARK  Name = 
REMARK  6 active torsions:
REMARK  status: ('A' for Active; 'I' for Inactive)
REMARK    1  A    between atoms: C_1  and  C_2
REMARK    2  A    between atoms: C_2  and  O_3
REMARK    3  A    between atoms: O_3  and  C_4
REMARK    4  A    between atoms: N_9  and  C_10
REMARK    5  A    between atoms: C_15  and  O_16
REMARK    6  A    between atoms: O_16  and  C_17
REMARK                            x       y       z     vdW  Elec       q    Type
REMARK                         _______ _______ _______ _____ _____    ______ ____
ROOT
ATOM      1  C   UNL     1       0.657  10.667  20.082  0.00  0.00    +0.000 C 
ATOM      2  O   UNL     1       0.477  11.656  19.387  0.00  0.00    +0.000 OA
ATOM      3  N   UNL     1       1.119   9.463  19.610  0.00  0.00    +0.000 N 
ATOM      4  C   UNL     1       1.270   9.288  18.170  0.00  0.00    +0.000 C 
ATOM      5  C   UNL     1       2.497   8.434  17.838  0.00  0.00    +0.000 C 
ATOM      6  N   UNL     1       2.367   7.147  18.550  0.00  0.00    +0.000 N 
ATOM      7  C   UNL     1       2.389   7.317  20.016  0.00  0.00    +0.000 C 
ATOM      8  C   UNL     1       1.223   8.252  20.441  0.00  0.00    +0.000 C 
ENDROOT
BRANCH   6   9
ATOM      9  C   UNL     1       3.013   6.031  18.012  0.00  0.00    +0.000 A 
ATOM     10  C   UNL     1       4.262   6.169  17.371  0.00  0.00    +0.000 A 
ATOM     11  C   UNL     1       4.885   5.107  16.708  0.00  0.00    +0.000 A 
ATOM     12  C   UNL     1       4.276   3.862  16.676  0.00  0.00    +0.000 A 
ATOM     13  C   UNL     1       3.070   3.676  17.346  0.00  0.00    +0.000 A 
ATOM     14  C   UNL     1       2.438   4.740  18.010  0.00  0.00    +0.000 A 
BRANCH  14  15
ATOM     15  O   UNL     1       1.284   4.349  18.646  0.00  0.00    +0.000 OA
ATOM     16  C   UNL     1       1.443   3.597  19.840  0.00  0.00    +0.000 C 
ENDBRANCH  14  15
ENDBRANCH   6   9
BRANCH   1  17
ATOM     17  O   UNL     1       0.523  10.653  21.435  0.00  0.00    +0.000 OA
BRANCH  17  19
ATOM     18  C   UNL     1      -1.220  10.977  23.028  0.00  0.00    +0.000 C 
ATOM     19  C   UNL     1      -0.374  11.641  21.955  0.00  0.00    +0.000 C 
ENDBRANCH  17  19
ENDBRANCH   1  17
TORSDOF 4
ENDMDL
MODEL 8
REMARK VINA RESULT:      -5.9      5.129      6.995
REMARK  Name = 
REMARK  6 active torsions:
REMARK  status: ('A' for Active; 'I' for Inactive)
REMARK    1  A    between atoms: C_1  and  C_2
REMARK    2  A    between atoms: C_2  and  O_3
REMARK    3  A    between atoms: O_3  and  C_4
REMARK    4  A    between atoms: N_9  and  C_10
REMARK    5  A    between atoms: C_15  and  O_16
REMARK    6  A    between atoms: O_16  and  C_17
REMARK                            x       y       z     vdW  Elec       q    Type
REMARK                         _______ _______ _______ _____ _____    ______ ____
ROOT
ATOM      1  C   UNL     1       1.100  10.692  19.958  0.00  0.00    +0.000 C 
ATOM      2  O   UNL     1       1.061  11.643  19.191  0.00  0.00    +0.000 OA
ATOM      3  N   UNL     1       1.363   9.400  19.574  0.00  0.00    +0.000 N 
ATOM      4  C   UNL     1       1.460   9.099  18.150  0.00  0.00    +0.000 C 
ATOM      5  C   UNL     1       2.535   8.043  17.876  0.00  0.00    +0.000 C 
ATOM      6  N   UNL     1       2.222   6.848  18.682  0.00  0.00    +0.000 N 
ATOM      7  C   UNL     1       2.296   7.119  20.131  0.00  0.00    +0.000 C 
ATOM      8  C   UNL     1       1.294   8.251  20.492  0.00  0.00    +0.000 C 
ENDROOT
BRANCH   6   9
ATOM      9  C   UNL     1       2.679   5.609  18.225  0.00  0.00    +0.000 A 
ATOM     10  C   UNL     1       1.764   4.624  17.796  0.00  0.00    +0.000 A 
ATOM     11  C   UNL     1       2.164   3.330  17.450  0.00  0.00    +0.000 A 
ATOM     12  C   UNL     1       3.504   2.983  17.515  0.00  0.00    +0.000 A 
ATOM     13  C   UNL     1       4.441   3.945  17.880  0.00  0.00    +0.000 A 
ATOM     14  C   UNL     1       4.045   5.246  18.232  0.00  0.00    +0.000 A 
BRANCH  14  15
ATOM     15  O   UNL     1       5.114   6.060  18.519  0.00  0.00    +0.000 OA
ATOM     16  C   UNL     1       6.240   5.437  19.118  0.00  0.00    +0.000 C 
ENDBRANCH  14  15
ENDBRANCH   6   9
BRANCH   1  17
ATOM     17  O   UNL     1       0.988  10.797  21.308  0.00  0.00    +0.000 OA
BRANCH  17  19
ATOM     18  C   UNL     1      -0.779  10.560  22.889  0.00  0.00    +0.000 C 
ATOM     19  C   UNL     1      -0.224  11.411  21.760  0.00  0.00    +0.000 C 
ENDBRANCH  17  19
ENDBRANCH   1  17
TORSDOF 4
ENDMDL
MODEL 9
REMARK VINA RESULT:      -5.9      2.427      2.917
REMARK  Name = 
REMARK  6 active torsions:
REMARK  status: ('A' for Active; 'I' for Inactive)
REMARK    1  A    between atoms: C_1  and  C_2
REMARK    2  A    between atoms: C_2  and  O_3
REMARK    3  A    between atoms: O_3  and  C_4
REMARK    4  A    between atoms: N_9  and  C_10
REMARK    5  A    between atoms: C_15  and  O_16
REMARK    6  A    between atoms: O_16  and  C_17
REMARK                            x       y       z     vdW  Elec       q    Type
REMARK                         _______ _______ _______ _____ _____    ______ ____
ROOT
ATOM      1  C   UNL     1       6.605   4.765  15.306  0.00  0.00    +0.000 C 
ATOM      2  O   UNL     1       7.549   5.464  14.969  0.00  0.00    +0.000 OA
ATOM      3  N   UNL     1       5.709   5.097  16.293  0.00  0.00    +0.000 N 
ATOM      4  C   UNL     1       5.968   6.284  17.101  0.00  0.00    +0.000 C 
ATOM      5  C   UNL     1       4.668   7.014  17.450  0.00  0.00    +0.000 C 
ATOM      6  N   UNL     1       3.771   6.057  18.128  0.00  0.00    +0.000 N 
ATOM      7  C   UNL     1       3.374   4.945  17.243  0.00  0.00    +0.000 C 
ATOM      8  C   UNL     1       4.645   4.194  16.761  0.00  0.00    +0.000 C 
ENDROOT
BRANCH   6   9
ATOM      9  C   UNL     1       2.814   6.566  19.009  0.00  0.00    +0.000 A 
ATOM     10  C   UNL     1       2.296   7.866  18.828  0.00  0.00    +0.000 A 
ATOM     11  C   UNL     1       1.433   8.464  19.752  0.00  0.00    +0.000 A 
ATOM     12  C   UNL     1       1.052   7.768  20.889  0.00  0.00    +0.000 A 
ATOM     13  C   UNL     1       1.499   6.463  21.072  0.00  0.00    +0.000 A 
ATOM     14  C   UNL     1       2.368   5.858  20.149  0.00  0.00    +0.000 A 
BRANCH  14  15
ATOM     15  O   UNL     1       2.661   4.557  20.479  0.00  0.00    +0.000 OA
ATOM     16  C   UNL     1       1.670   3.588  20.170  0.00  0.00    +0.000 C 
ENDBRANCH  14  15
ENDBRANCH   6   9
BRANCH   1  17
ATOM     17  O   UNL     1       6.251   3.610  14.682  0.00  0.00    +0.000 OA
BRANCH  17  19
ATOM     18  C   UNL     1       4.951   3.581  12.685  0.00  0.00    +0.000 C 
ATOM     19  C   UNL     1       6.357   3.648  13.254  0.00  0.00    +0.000 C 
ENDBRANCH  17  19
ENDBRANCH   1  17
TORSDOF 4
ENDMDL
