MODEL 1
REMARK VINA RESULT:     -10.1      0.000      0.000
REMARK  Name = 
REMARK  2 active torsions:
REMARK  status: ('A' for Active; 'I' for Inactive)
REMARK    1  A    between atoms: C_2  and  C_5
REMARK    2  A    between atoms: C_9  and  C_10
REMARK                            x       y       z     vdW  Elec       q    Type
REMARK                         _______ _______ _______ _____ _____    ______ ____
ROOT
ATOM      1  C   UNL     1       4.400   5.170  17.369  0.00  0.00    +0.000 A 
ATOM      2  N   UNL     1       4.048   3.894  17.589  0.00  0.00    +0.000 NA
ATOM      3  C   UNL     1       3.063   3.653  18.452  0.00  0.00    +0.000 A 
ATOM      4  C   UNL     1       2.206   2.593  18.204  0.00  0.00    +0.000 A 
ATOM      5  C   UNL     1       0.924   2.555  18.787  0.00  0.00    +0.000 A 
ATOM      6  C   UNL     1       0.975   3.020  20.095  0.00  0.00    +0.000 A 
ATOM      7  N   UNL     1       0.547   2.418  21.252  0.00  0.00    +0.000 N 
ATOM      8  N   UNL     1       1.408   2.602  22.270  0.00  0.00    +0.000 NA
ATOM      9  C   UNL     1       2.303   3.451  21.753  0.00  0.00    +0.000 A 
ATOM     10  C   UNL     1       1.909   3.976  20.459  0.00  0.00    +0.000 A 
ATOM     11  C   UNL     1       2.657   4.589  19.396  0.00  0.00    +0.000 A 
ATOM     12  C   UNL     1       2.815   5.940  18.998  0.00  0.00    +0.000 A 
ATOM     13  C   UNL     1       3.666   6.222  17.901  0.00  0.00    +0.000 A 
ATOM     14  C   UNL     1       3.677   7.588  17.264  0.00  0.00    +0.000 C 
ATOM     15  O   UNL     1       2.485   8.330  17.542  0.00  0.00    +0.000 OA
ATOM     16  C   UNL     1       2.263   8.411  18.949  0.00  0.00    +0.000 C 
ATOM     17  C   UNL     1       1.893   7.029  19.499  0.00  0.00    +0.000 C 
ATOM     18  H   UNL     1      -0.147   1.683  21.340  0.00  0.00    +0.000 HD
ENDROOT
BRANCH   1  23
ATOM     19  C   UNL     1       6.880   5.634  16.707  0.00  0.00    +0.000 A 
ATOM     20  N   UNL     1       7.586   5.708  15.553  0.00  0.00    +0.000 NA
ATOM     21  N   UNL     1       6.672   5.518  14.590  0.00  0.00    +0.000 N 
ATOM     22  C   UNL     1       5.413   5.336  15.070  0.00  0.00    +0.000 A 
ATOM     23  C   UNL     1       5.512   5.333  16.446  0.00  0.00    +0.000 A 
ATOM     24  H   UNL     1       6.982   5.529  13.624  0.00  0.00    +0.000 HD
BRANCH  19  26
ATOM     25  F   UNL     1       6.621   5.938  19.071  0.00  0.00    +0.000 F 
ATOM     26  C   UNL     1       7.528   5.853  18.052  0.00  0.00    +0.000 C 
ATOM     27  F   UNL     1       8.234   7.021  18.097  0.00  0.00    +0.000 F 
ATOM     28  F   UNL     1       8.384   4.857  18.410  0.00  0.00    +0.000 F 
ENDBRANCH  19  26
ENDBRANCH   1  23
TORSDOF 2
ENDMDL
MODEL 2
REMARK VINA RESULT:      -9.5      2.578      6.314
REMARK  Name = 
REMARK  2 active torsions:
REMARK  status: ('A' for Active; 'I' for Inactive)
REMARK    1  A    between atoms: C_2  and  C_5
REMARK    2  A    between atoms: C_9  and  C_10
REMARK                            x       y       z     vdW  Elec       q    Type
REMARK                         _______ _______ _______ _____ _____    ______ ____
ROOT
ATOM      1  C   UNL     1       3.411   4.619  19.448  0.00  0.00    +0.000 A 
ATOM      2  N   UNL     1       4.625   4.109  19.188  0.00  0.00    +0.000 NA
ATOM      3  C   UNL     1       5.409   4.757  18.329  0.00  0.00    +0.000 A 
ATOM      4  C   UNL     1       6.776   4.763  18.550  0.00  0.00    +0.000 A 
ATOM      5  C   UNL     1       7.592   5.761  17.979  0.00  0.00    +0.000 A 
ATOM      6  C   UNL     1       7.170   6.048  16.688  0.00  0.00    +0.000 A 
ATOM      7  N   UNL     1       7.884   6.045  15.516  0.00  0.00    +0.000 N 
ATOM      8  N   UNL     1       7.185   5.515  14.495  0.00  0.00    +0.000 NA
ATOM      9  C   UNL     1       5.973   5.326  15.031  0.00  0.00    +0.000 A 
ATOM     10  C   UNL     1       5.833   5.922  16.346  0.00  0.00    +0.000 A 
ATOM     11  C   UNL     1       4.909   5.684  17.421  0.00  0.00    +0.000 A 
ATOM     12  C   UNL     1       3.761   6.387  17.864  0.00  0.00    +0.000 A 
ATOM     13  C   UNL     1       3.033   5.862  18.960  0.00  0.00    +0.000 A 
ATOM     14  C   UNL     1       1.969   6.683  19.643  0.00  0.00    +0.000 C 
ATOM     15  O   UNL     1       2.123   8.086  19.404  0.00  0.00    +0.000 OA
ATOM     16  C   UNL     1       2.170   8.353  18.003  0.00  0.00    +0.000 C 
ATOM     17  C   UNL     1       3.470   7.801  17.410  0.00  0.00    +0.000 C 
ATOM     18  H   UNL     1       8.889   6.135  15.410  0.00  0.00    +0.000 HD
ENDROOT
BRANCH   1  23
ATOM     19  C   UNL     1       1.594   2.861  20.090  0.00  0.00    +0.000 A 
ATOM     20  N   UNL     1       1.090   2.352  21.239  0.00  0.00    +0.000 NA
ATOM     21  N   UNL     1       1.731   3.020  22.209  0.00  0.00    +0.000 N 
ATOM     22  C   UNL     1       2.614   3.940  21.737  0.00  0.00    +0.000 A 
ATOM     23  C   UNL     1       2.611   3.821  20.363  0.00  0.00    +0.000 A 
ATOM     24  H   UNL     1       1.510   2.797  23.175  0.00  0.00    +0.000 HD
BRANCH  19  26
ATOM     25  F   UNL     1       2.031   1.725  18.024  0.00  0.00    +0.000 F 
ATOM     26  C   UNL     1       1.094   2.419  18.736  0.00  0.00    +0.000 C 
ATOM     27  F   UNL     1       0.747   3.476  17.946  0.00  0.00    +0.000 F 
ATOM     28  F   UNL     1       0.008   1.599  18.802  0.00  0.00    +0.000 F 
ENDBRANCH  19  26
ENDBRANCH   1  23
TORSDOF 2
ENDMDL
MODEL 3
REMARK VINA RESULT:      -9.3      1.763      2.140
REMARK  Name = 
REMARK  2 active torsions:
REMARK  status: ('A' for Active; 'I' for Inactive)
REMARK    1  A    between atoms: C_2  and  C_5
REMARK    2  A    between atoms: C_9  and  C_10
REMARK                            x       y       z     vdW  Elec       q    Type
REMARK                         _______ _______ _______ _____ _____    ______ ____
ROOT
ATOM      1  C   UNL     1       4.737   5.543  17.668  0.00  0.00    +0.000 A 
ATOM      2  N   UNL     1       4.517   4.238  17.891  0.00  0.00    +0.000 NA
ATOM      3  C   UNL     1       3.447   3.894  18.607  0.00  0.00    +0.000 A 
ATOM      4  C   UNL     1       2.777   2.727  18.282  0.00  0.00    +0.000 A 
ATOM      5  C   UNL     1       1.435   2.538  18.669  0.00  0.00    +0.000 A 
ATOM      6  C   UNL     1       1.226   3.039  19.947  0.00  0.00    +0.000 A 
ATOM      7  N   UNL     1       0.702   2.418  21.053  0.00  0.00    +0.000 N 
ATOM      8  N   UNL     1       1.367   2.738  22.179  0.00  0.00    +0.000 NA
ATOM      9  C   UNL     1       2.219   3.682  21.763  0.00  0.00    +0.000 A 
ATOM     10  C   UNL     1       1.967   4.118  20.403  0.00  0.00    +0.000 A 
ATOM     11  C   UNL     1       2.789   4.794  19.437  0.00  0.00    +0.000 A 
ATOM     12  C   UNL     1       2.837   6.143  19.005  0.00  0.00    +0.000 A 
ATOM     13  C   UNL     1       3.806   6.504  18.037  0.00  0.00    +0.000 A 
ATOM     14  C   UNL     1       3.745   7.843  17.347  0.00  0.00    +0.000 C 
ATOM     15  O   UNL     1       2.441   8.432  17.409  0.00  0.00    +0.000 OA
ATOM     16  C   UNL     1       1.997   8.520  18.762  0.00  0.00    +0.000 C 
ATOM     17  C   UNL     1       1.721   7.117  19.313  0.00  0.00    +0.000 C 
ATOM     18  H   UNL     1       0.100   1.602  21.070  0.00  0.00    +0.000 HD
ENDROOT
BRANCH   1  23
ATOM     19  C   UNL     1       6.451   5.214  15.730  0.00  0.00    +0.000 A 
ATOM     20  N   UNL     1       7.628   5.772  15.361  0.00  0.00    +0.000 NA
ATOM     21  N   UNL     1       7.889   6.667  16.325  0.00  0.00    +0.000 N 
ATOM     22  C   UNL     1       6.941   6.703  17.299  0.00  0.00    +0.000 A 
ATOM     23  C   UNL     1       5.949   5.824  16.916  0.00  0.00    +0.000 A 
ATOM     24  H   UNL     1       8.739   7.218  16.253  0.00  0.00    +0.000 HD
BRANCH  19  26
ATOM     25  F   UNL     1       6.412   3.903  13.723  0.00  0.00    +0.000 F 
ATOM     26  C   UNL     1       5.816   4.098  14.937  0.00  0.00    +0.000 C 
ATOM     27  F   UNL     1       4.503   4.346  14.660  0.00  0.00    +0.000 F 
ATOM     28  F   UNL     1       5.869   2.890  15.564  0.00  0.00    +0.000 F 
ENDBRANCH  19  26
ENDBRANCH   1  23
TORSDOF 2
ENDMDL
MODEL 4
REMARK VINA RESULT:      -8.6      3.421      6.290
REMARK  Name = 
REMARK  2 active torsions:
REMARK  status: ('A' for Active; 'I' for Inactive)
REMARK    1  A    between atoms: C_2  and  C_5
REMARK    2  A    between atoms: C_9  and  C_10
REMARK                            x       y       z     vdW  Elec       q    Type
REMARK                         _______ _______ _______ _____ _____    ______ ____
ROOT
ATOM      1  C   UNL     1       2.712   6.762  19.322  0.00  0.00    +0.000 A 
ATOM      2  N   UNL     1       3.580   7.283  18.441  0.00  0.00    +0.000 NA
ATOM      3  C   UNL     1       4.389   6.450  17.788  0.00  0.00    +0.000 A 
ATOM      4  C   UNL     1       4.726   6.742  16.477  0.00  0.00    +0.000 A 
ATOM      5  C   UNL     1       5.177   5.728  15.608  0.00  0.00    +0.000 A 
ATOM      6  C   UNL     1       6.016   4.852  16.285  0.00  0.00    +0.000 A 
ATOM      7  N   UNL     1       7.292   4.453  15.977  0.00  0.00    +0.000 N 
ATOM      8  N   UNL     1       8.080   4.381  17.066  0.00  0.00    +0.000 NA
ATOM      9  C   UNL     1       7.221   4.602  18.069  0.00  0.00    +0.000 A 
ATOM     10  C   UNL     1       5.836   4.620  17.639  0.00  0.00    +0.000 A 
ATOM     11  C   UNL     1       4.646   5.160  18.236  0.00  0.00    +0.000 A 
ATOM     12  C   UNL     1       3.578   4.556  18.947  0.00  0.00    +0.000 A 
ATOM     13  C   UNL     1       2.546   5.389  19.444  0.00  0.00    +0.000 A 
ATOM     14  C   UNL     1       1.265   4.798  19.974  0.00  0.00    +0.000 C 
ATOM     15  O   UNL     1       1.036   3.469  19.492  0.00  0.00    +0.000 OA
ATOM     16  C   UNL     1       2.156   2.633  19.781  0.00  0.00    +0.000 C 
ATOM     17  C   UNL     1       3.358   3.060  18.931  0.00  0.00    +0.000 C 
ATOM     18  H   UNL     1       7.739   4.476  15.066  0.00  0.00    +0.000 HD
ENDROOT
BRANCH   1  23
ATOM     19  C   UNL     1       1.216   8.890  19.509  0.00  0.00    +0.000 A 
ATOM     20  N   UNL     1       0.583   9.555  20.505  0.00  0.00    +0.000 NA
ATOM     21  N   UNL     1       0.913   8.884  21.617  0.00  0.00    +0.000 N 
ATOM     22  C   UNL     1       1.736   7.826  21.384  0.00  0.00    +0.000 A 
ATOM     23  C   UNL     1       1.902   7.749  20.017  0.00  0.00    +0.000 A 
ATOM     24  H   UNL     1       0.542   9.209  22.504  0.00  0.00    +0.000 HD
BRANCH  19  26
ATOM     25  F   UNL     1       2.235  10.114  17.716  0.00  0.00    +0.000 F 
ATOM     26  C   UNL     1       1.155   9.358  18.076  0.00  0.00    +0.000 C 
ATOM     27  F   UNL     1       0.066  10.146  17.838  0.00  0.00    +0.000 F 
ATOM     28  F   UNL     1       1.111   8.338  17.174  0.00  0.00    +0.000 F 
ENDBRANCH  19  26
ENDBRANCH   1  23
TORSDOF 2
ENDMDL
MODEL 5
REMARK VINA RESULT:      -7.9      1.973      2.330
REMARK  Name = 
REMARK  2 active torsions:
REMARK  status: ('A' for Active; 'I' for Inactive)
REMARK    1  A    between atoms: C_2  and  C_5
REMARK    2  A    between atoms: C_9  and  C_10
REMARK                            x       y       z     vdW  Elec       q    Type
REMARK                         _______ _______ _______ _____ _____    ______ ____
ROOT
ATOM      1  C   UNL     1       4.986   4.617  17.805  0.00  0.00    +0.000 A 
ATOM      2  N   UNL     1       4.583   3.374  18.110  0.00  0.00    +0.000 NA
ATOM      3  C   UNL     1       3.470   3.232  18.828  0.00  0.00    +0.000 A 
ATOM      4  C   UNL     1       2.646   2.150  18.570  0.00  0.00    +0.000 A 
ATOM      5  C   UNL     1       1.287   2.177  18.945  0.00  0.00    +0.000 A 
ATOM      6  C   UNL     1       1.140   2.789  20.183  0.00  0.00    +0.000 A 
ATOM      7  N   UNL     1       0.525   2.324  21.318  0.00  0.00    +0.000 N 
ATOM      8  N   UNL     1       1.218   2.624  22.432  0.00  0.00    +0.000 NA
ATOM      9  C   UNL     1       2.198   3.410  21.969  0.00  0.00    +0.000 A 
ATOM     10  C   UNL     1       2.021   3.783  20.579  0.00  0.00    +0.000 A 
ATOM     11  C   UNL     1       2.937   4.270  19.585  0.00  0.00    +0.000 A 
ATOM     12  C   UNL     1       3.178   5.566  19.065  0.00  0.00    +0.000 A 
ATOM     13  C   UNL     1       4.196   5.722  18.092  0.00  0.00    +0.000 A 
ATOM     14  C   UNL     1       4.329   7.006  17.314  0.00  0.00    +0.000 C 
ATOM     15  O   UNL     1       3.121   7.773  17.313  0.00  0.00    +0.000 OA
ATOM     16  C   UNL     1       2.682   8.015  18.649  0.00  0.00    +0.000 C 
ATOM     17  C   UNL     1       2.208   6.705  19.288  0.00  0.00    +0.000 C 
ATOM     18  H   UNL     1      -0.186   1.603  21.379  0.00  0.00    +0.000 HD
ENDROOT
BRANCH   1  23
ATOM     19  C   UNL     1       6.454   4.676  15.650  0.00  0.00    +0.000 A 
ATOM     20  N   UNL     1       7.777   4.729  15.370  0.00  0.00    +0.000 NA
ATOM     21  N   UNL     1       8.373   4.700  16.571  0.00  0.00    +0.000 N 
ATOM     22  C   UNL     1       7.496   4.621  17.606  0.00  0.00    +0.000 A 
ATOM     23  C   UNL     1       6.232   4.674  17.057  0.00  0.00    +0.000 A 
ATOM     24  H   UNL     1       9.388   4.734  16.606  0.00  0.00    +0.000 HD
BRANCH  19  26
ATOM     25  F   UNL     1       5.896   4.134  13.381  0.00  0.00    +0.000 F 
ATOM     26  C   UNL     1       5.411   4.627  14.560  0.00  0.00    +0.000 C 
ATOM     27  F   UNL     1       4.922   5.866  14.261  0.00  0.00    +0.000 F 
ATOM     28  F   UNL     1       4.341   3.842  14.867  0.00  0.00    +0.000 F 
ENDBRANCH  19  26
ENDBRANCH   1  23
TORSDOF 2
ENDMDL
MODEL 6
REMARK VINA RESULT:      -7.5      3.653      6.036
REMARK  Name = 
REMARK  2 active torsions:
REMARK  status: ('A' for Active; 'I' for Inactive)
REMARK    1  A    between atoms: C_2  and  C_5
REMARK    2  A    between atoms: C_9  and  C_10
REMARK                            x       y       z     vdW  Elec       q    Type
REMARK                         _______ _______ _______ _____ _____    ______ ____
ROOT
ATOM      1  C   UNL     1       2.463   7.430  18.756  0.00  0.00    +0.000 A 
ATOM      2  N   UNL     1       3.468   7.542  17.874  0.00  0.00    +0.000 NA
ATOM      3  C   UNL     1       4.401   6.592  17.858  0.00  0.00    +0.000 A 
ATOM      4  C   UNL     1       4.968   6.236  16.646  0.00  0.00    +0.000 A 
ATOM      5  C   UNL     1       5.593   4.983  16.486  0.00  0.00    +0.000 A 
ATOM      6  C   UNL     1       6.312   4.654  17.628  0.00  0.00    +0.000 A 
ATOM      7  N   UNL     1       7.632   4.301  17.757  0.00  0.00    +0.000 N 
ATOM      8  N   UNL     1       8.206   4.863  18.837  0.00  0.00    +0.000 NA
ATOM      9  C   UNL     1       7.172   5.452  19.450  0.00  0.00    +0.000 A 
ATOM     10  C   UNL     1       5.890   5.101  18.870  0.00  0.00    +0.000 A 
ATOM     11  C   UNL     1       4.599   5.728  18.929  0.00  0.00    +0.000 A 
ATOM     12  C   UNL     1       3.432   5.438  19.680  0.00  0.00    +0.000 A 
ATOM     13  C   UNL     1       2.308   6.287  19.529  0.00  0.00    +0.000 A 
ATOM     14  C   UNL     1       0.964   5.894  20.088  0.00  0.00    +0.000 C 
ATOM     15  O   UNL     1       0.857   4.484  20.314  0.00  0.00    +0.000 OA
ATOM     16  C   UNL     1       1.923   4.030  21.147  0.00  0.00    +0.000 C 
ATOM     17  C   UNL     1       3.251   4.114  20.388  0.00  0.00    +0.000 C 
ATOM     18  H   UNL     1       8.238   3.922  17.037  0.00  0.00    +0.000 HD
ENDROOT
BRANCH   1  23
ATOM     19  C   UNL     1       0.923   9.255  19.804  0.00  0.00    +0.000 A 
ATOM     20  N   UNL     1       0.082  10.209  19.338  0.00  0.00    +0.000 NA
ATOM     21  N   UNL     1       0.101  10.049  18.007  0.00  0.00    +0.000 N 
ATOM     22  C   UNL     1       0.906   9.033  17.597  0.00  0.00    +0.000 A 
ATOM     23  C   UNL     1       1.518   8.533  18.729  0.00  0.00    +0.000 A 
ATOM     24  H   UNL     1      -0.466  10.671  17.440  0.00  0.00    +0.000 HD
BRANCH  19  26
ATOM     25  F   UNL     1       0.179   8.281  21.865  0.00  0.00    +0.000 F 
ATOM     26  C   UNL     1       1.150   9.046  21.281  0.00  0.00    +0.000 C 
ATOM     27  F   UNL     1       1.149  10.223  21.973  0.00  0.00    +0.000 F 
ATOM     28  F   UNL     1       2.325   8.419  21.566  0.00  0.00    +0.000 F 
ENDBRANCH  19  26
ENDBRANCH   1  23
TORSDOF 2
ENDMDL
MODEL 7
REMARK VINA RESULT:      -7.2      3.360      6.028
REMARK  Name = 
REMARK  2 active torsions:
REMARK  status: ('A' for Active; 'I' for Inactive)
REMARK    1  A    between atoms: C_2  and  C_5
REMARK    2  A    between atoms: C_9  and  C_10
REMARK                            x       y       z     vdW  Elec       q    Type
REMARK                         _______ _______ _______ _____ _____    ______ ____
ROOT
ATOM      1  C   UNL     1       2.727   7.198  18.290  0.00  0.00    +0.000 A 
ATOM      2  N   UNL     1       3.759   7.470  17.476  0.00  0.00    +0.000 NA
ATOM      3  C   UNL     1       4.665   6.516  17.267  0.00  0.00    +0.000 A 
ATOM      4  C   UNL     1       5.254   6.421  16.018  0.00  0.00    +0.000 A 
ATOM      5  C   UNL     1       5.847   5.214  15.594  0.00  0.00    +0.000 A 
ATOM      6  C   UNL     1       6.524   4.614  16.648  0.00  0.00    +0.000 A 
ATOM      7  N   UNL     1       7.829   4.196  16.722  0.00  0.00    +0.000 N 
ATOM      8  N   UNL     1       8.389   4.482  17.912  0.00  0.00    +0.000 NA
ATOM      9  C   UNL     1       7.356   4.955  18.620  0.00  0.00    +0.000 A 
ATOM     10  C   UNL     1       6.081   4.786  17.950  0.00  0.00    +0.000 A 
ATOM     11  C   UNL     1       4.807   5.428  18.121  0.00  0.00    +0.000 A 
ATOM     12  C   UNL     1       3.612   5.018  18.763  0.00  0.00    +0.000 A 
ATOM     13  C   UNL     1       2.517   5.917  18.783  0.00  0.00    +0.000 A 
ATOM     14  C   UNL     1       1.148   5.456  19.212  0.00  0.00    +0.000 C 
ATOM     15  O   UNL     1       0.994   4.036  19.114  0.00  0.00    +0.000 OA
ATOM     16  C   UNL     1       2.022   3.371  19.846  0.00  0.00    +0.000 C 
ATOM     17  C   UNL     1       3.373   3.576  19.152  0.00  0.00    +0.000 C 
ATOM     18  H   UNL     1       8.444   3.967  15.948  0.00  0.00    +0.000 HD
ENDROOT
BRANCH   1  23
ATOM     19  C   UNL     1       1.231   8.810  19.692  0.00  0.00    +0.000 A 
ATOM     20  N   UNL     1       0.423   9.866  19.433  0.00  0.00    +0.000 NA
ATOM     21  N   UNL     1       0.451   9.988  18.099  0.00  0.00    +0.000 N 
ATOM     22  C   UNL     1       1.230   9.056  17.488  0.00  0.00    +0.000 A 
ATOM     23  C   UNL     1       1.815   8.312  18.491  0.00  0.00    +0.000 A 
ATOM     24  H   UNL     1      -0.092  10.733  17.672  0.00  0.00    +0.000 HD
BRANCH  19  26
ATOM     25  F   UNL     1       2.542   7.495  21.209  0.00  0.00    +0.000 F 
ATOM     26  C   UNL     1       1.436   8.289  21.093  0.00  0.00    +0.000 C 
ATOM     27  F   UNL     1       0.391   7.519  21.513  0.00  0.00    +0.000 F 
ATOM     28  F   UNL     1       1.600   9.275  22.019  0.00  0.00    +0.000 F 
ENDBRANCH  19  26
ENDBRANCH   1  23
TORSDOF 2
ENDMDL
MODEL 8
REMARK VINA RESULT:      -7.2      6.148      8.137
REMARK  Name = 
REMARK  2 active torsions:
REMARK  status: ('A' for Active; 'I' for Inactive)
REMARK    1  A    between atoms: C_2  and  C_5
REMARK    2  A    between atoms: C_9  and  C_10
REMARK                            x       y       z     vdW  Elec       q    Type
REMARK                         _______ _______ _______ _____ _____    ______ ____
ROOT
ATOM      1  C   UNL     1       0.096   9.876  18.262  0.00  0.00    +0.000 A 
ATOM      2  N   UNL     1      -0.903   9.355  17.533  0.00  0.00    +0.000 NA
ATOM      3  C   UNL     1      -1.971  10.115  17.295  0.00  0.00    +0.000 A 
ATOM      4  C   UNL     1      -2.617   9.990  16.077  0.00  0.00    +0.000 A 
ATOM      5  C   UNL     1      -3.431  11.032  15.586  0.00  0.00    +0.000 A 
ATOM      6  C   UNL     1      -4.161  11.601  16.622  0.00  0.00    +0.000 A 
ATOM      7  N   UNL     1      -5.515  11.792  16.732  0.00  0.00    +0.000 N 
ATOM      8  N   UNL     1      -5.968  11.525  17.971  0.00  0.00    +0.000 NA
ATOM      9  C   UNL     1      -4.840  11.306  18.658  0.00  0.00    +0.000 A 
ATOM     10  C   UNL     1      -3.643  11.629  17.907  0.00  0.00    +0.000 A 
ATOM     11  C   UNL     1      -2.270  11.236  18.060  0.00  0.00    +0.000 A 
ATOM     12  C   UNL     1      -1.142  11.904  18.598  0.00  0.00    +0.000 A 
ATOM     13  C   UNL     1       0.095  11.214  18.634  0.00  0.00    +0.000 A 
ATOM     14  C   UNL     1       1.377  11.943  18.945  0.00  0.00    +0.000 C 
ATOM     15  O   UNL     1       1.273  13.353  18.720  0.00  0.00    +0.000 OA
ATOM     16  C   UNL     1       0.173  13.895  19.449  0.00  0.00    +0.000 C 
ATOM     17  C   UNL     1      -1.147  13.396  18.851  0.00  0.00    +0.000 C 
ATOM     18  H   UNL     1      -6.191  11.839  15.977  0.00  0.00    +0.000 HD
ENDROOT
BRANCH   1  23
ATOM     19  C   UNL     1       1.638   8.361  19.722  0.00  0.00    +0.000 A 
ATOM     20  N   UNL     1       2.718   7.573  19.509  0.00  0.00    +0.000 NA
ATOM     21  N   UNL     1       2.987   7.721  18.203  0.00  0.00    +0.000 N 
ATOM     22  C   UNL     1       2.138   8.574  17.572  0.00  0.00    +0.000 A 
ATOM     23  C   UNL     1       1.198   8.960  18.506  0.00  0.00    +0.000 A 
ATOM     24  H   UNL     1       3.772   7.209  17.812  0.00  0.00    +0.000 HD
BRANCH  19  26
ATOM     25  F   UNL     1       1.392   7.535  21.960  0.00  0.00    +0.000 F 
ATOM     26  C   UNL     1       1.035   8.531  21.095  0.00  0.00    +0.000 C 
ATOM     27  F   UNL     1      -0.329   8.513  21.063  0.00  0.00    +0.000 F 
ATOM     28  F   UNL     1       1.402   9.691  21.708  0.00  0.00    +0.000 F 
ENDBRANCH  19  26
ENDBRANCH   1  23
TORSDOF 2
ENDMDL
MODEL 9
REMARK VINA RESULT:      -7.1      6.730      8.856
REMARK  Name = 
REMARK  2 active torsions:
REMARK  status: ('A' for Active; 'I' for Inactive)
REMARK    1  A    between atoms: C_2  and  C_5
REMARK    2  A    between atoms: C_9  and  C_10
REMARK                            x       y       z     vdW  Elec       q    Type
REMARK                         _______ _______ _______ _____ _____    ______ ____
ROOT
ATOM      1  C   UNL     1      -0.275  10.520  19.567  0.00  0.00    +0.000 A 
ATOM      2  N   UNL     1      -0.070  11.020  20.795  0.00  0.00    +0.000 NA
ATOM      3  C   UNL     1      -0.988  11.843  21.300  0.00  0.00    +0.000 A 
ATOM      4  C   UNL     1      -1.241  11.802  22.660  0.00  0.00    +0.000 A 
ATOM      5  C   UNL     1      -2.460  12.285  23.179  0.00  0.00    +0.000 A 
ATOM      6  C   UNL     1      -2.845  13.439  22.509  0.00  0.00    +0.000 A 
ATOM      7  N   UNL     1      -3.166  14.675  23.014  0.00  0.00    +0.000 N 
ATOM      8  N   UNL     1      -2.663  15.676  22.267  0.00  0.00    +0.000 NA
ATOM      9  C   UNL     1      -2.149  15.030  21.213  0.00  0.00    +0.000 A 
ATOM     10  C   UNL     1      -2.499  13.623  21.180  0.00  0.00    +0.000 A 
ATOM     11  C   UNL     1      -1.918  12.499  20.501  0.00  0.00    +0.000 A 
ATOM     12  C   UNL     1      -2.295  11.793  19.330  0.00  0.00    +0.000 A 
ATOM     13  C   UNL     1      -1.473  10.724  18.896  0.00  0.00    +0.000 A 
ATOM     14  C   UNL     1      -1.945   9.774  17.825  0.00  0.00    +0.000 C 
ATOM     15  O   UNL     1      -3.370   9.776  17.682  0.00  0.00    +0.000 OA
ATOM     16  C   UNL     1      -3.847  11.101  17.453  0.00  0.00    +0.000 C 
ATOM     17  C   UNL     1      -3.670  11.945  18.719  0.00  0.00    +0.000 C 
ATOM     18  H   UNL     1      -3.475  14.891  23.956  0.00  0.00    +0.000 HD
ENDROOT
BRANCH   1  23
ATOM     19  C   UNL     1       1.419   8.541  19.697  0.00  0.00    +0.000 A 
ATOM     20  N   UNL     1       2.393   8.035  18.904  0.00  0.00    +0.000 NA
ATOM     21  N   UNL     1       2.425   8.859  17.847  0.00  0.00    +0.000 N 
ATOM     22  C   UNL     1       1.524   9.874  17.928  0.00  0.00    +0.000 A 
ATOM     23  C   UNL     1       0.798   9.667  19.083  0.00  0.00    +0.000 A 
ATOM     24  H   UNL     1       3.092   8.667  17.106  0.00  0.00    +0.000 HD
BRANCH  19  26
ATOM     25  F   UNL     1      -0.249   7.910  21.300  0.00  0.00    +0.000 F 
ATOM     26  C   UNL     1       1.092   7.937  21.041  0.00  0.00    +0.000 C 
ATOM     27  F   UNL     1       1.646   8.642  22.070  0.00  0.00    +0.000 F 
ATOM     28  F   UNL     1       1.513   6.648  21.172  0.00  0.00    +0.000 F 
ENDBRANCH  19  26
ENDBRANCH   1  23
TORSDOF 2
ENDMDL
