MODEL 1
REMARK VINA RESULT:      -6.5      0.000      0.000
REMARK  Name = 
REMARK  9 active torsions:
REMARK  status: ('A' for Active; 'I' for Inactive)
REMARK    1  A    between atoms: C_2  and  C_3
REMARK    2  A    between atoms: C_3  and  O_4
REMARK    3  A    between atoms: O_4  and  C_5
REMARK    4  A    between atoms: C_8  and  N_9
REMARK    5  A    between atoms: C_10  and  C_12
REMARK    6  A    between atoms: N_14  and  C_15
REMARK    7  A    between atoms: C_15  and  C_16
REMARK    8  A    between atoms: C_16  and  C_17
REMARK    9  A    between atoms: C_17  and  N_18
REMARK                            x       y       z     vdW  Elec       q    Type
REMARK                         _______ _______ _______ _____ _____    ______ ____
ROOT
ATOM      1  N   UNL     1       3.344   6.103  18.157  0.00  0.00    +0.000 N 
ATOM      2  C   UNL     1       2.811   4.889  17.743  0.00  0.00    +0.000 C 
ATOM      3  O   UNL     1       1.638   4.544  17.670  0.00  0.00    +0.000 OA
ATOM      4  H   UNL     1       4.355   6.174  18.136  0.00  0.00    +0.000 HD
ENDROOT
BRANCH   1   8
ATOM      5  C   UNL     1       1.052   9.426  19.442  0.00  0.00    +0.000 A 
ATOM      6  C   UNL     1       1.538   9.363  18.143  0.00  0.00    +0.000 A 
ATOM      7  C   UNL     1       2.274   8.266  17.716  0.00  0.00    +0.000 A 
ATOM      8  C   UNL     1       2.589   7.220  18.583  0.00  0.00    +0.000 A 
ATOM      9  C   UNL     1       2.141   7.299  19.909  0.00  0.00    +0.000 A 
ATOM     10  C   UNL     1       1.379   8.404  20.336  0.00  0.00    +0.000 A 
BRANCH   5  11
ATOM     11  O   UNL     1       0.246  10.438  19.898  0.00  0.00    +0.000 OA
BRANCH  11  12
ATOM     12  C   UNL     1      -0.390  11.175  18.844  0.00  0.00    +0.000 C 
BRANCH  12  14
ATOM     13  C   UNL     1      -2.507  10.982  17.540  0.00  0.00    +0.000 C 
ATOM     14  C   UNL     1      -1.709  10.546  18.525  0.00  0.00    +0.000 C 
ENDBRANCH  12  14
ENDBRANCH  11  12
ENDBRANCH   5  11
ENDBRANCH   1   8
BRANCH   2  15
ATOM     15  C   UNL     1       3.849   3.836  17.309  0.00  0.00    +0.000 C 
ATOM     16  O   UNL     1       4.009   2.806  17.949  0.00  0.00    +0.000 OA
ATOM     17  N   UNL     1       4.523   4.217  16.169  0.00  0.00    +0.000 N 
ATOM     18  H   UNL     1       4.226   5.110  15.769  0.00  0.00    +0.000 HD
BRANCH  17  19
ATOM     19  C   UNL     1       5.554   3.447  15.524  0.00  0.00    +0.000 C 
BRANCH  19  20
ATOM     20  C   UNL     1       6.814   4.272  15.288  0.00  0.00    +0.000 C 
BRANCH  20  21
ATOM     21  C   UNL     1       6.657   5.673  15.873  0.00  0.00    +0.000 C 
BRANCH  21  22
ATOM     22  N   UNL     1       7.266   5.803  17.181  0.00  0.00    +0.000 N 
ATOM     23  C   UNL     1       7.602   6.970  17.806  0.00  0.00    +0.000 A 
ATOM     24  C   UNL     1       8.108   6.584  19.025  0.00  0.00    +0.000 A 
ATOM     25  N   UNL     1       8.077   5.219  19.154  0.00  0.00    +0.000 NA
ATOM     26  C   UNL     1       7.559   4.776  18.031  0.00  0.00    +0.000 A 
ENDBRANCH  21  22
ENDBRANCH  20  21
ENDBRANCH  19  20
ENDBRANCH  17  19
ENDBRANCH   2  15
TORSDOF 9
ENDMDL
MODEL 2
REMARK VINA RESULT:      -6.4      3.011      8.964
REMARK  Name = 
REMARK  9 active torsions:
REMARK  status: ('A' for Active; 'I' for Inactive)
REMARK    1  A    between atoms: C_2  and  C_3
REMARK    2  A    between atoms: C_3  and  O_4
REMARK    3  A    between atoms: O_4  and  C_5
REMARK    4  A    between atoms: C_8  and  N_9
REMARK    5  A    between atoms: C_10  and  C_12
REMARK    6  A    between atoms: N_14  and  C_15
REMARK    7  A    between atoms: C_15  and  C_16
REMARK    8  A    between atoms: C_16  and  C_17
REMARK    9  A    between atoms: C_17  and  N_18
REMARK                            x       y       z     vdW  Elec       q    Type
REMARK                         _______ _______ _______ _____ _____    ______ ____
ROOT
ATOM      1  N   UNL     1       2.856   6.848  18.884  0.00  0.00    +0.000 N 
ATOM      2  C   UNL     1       2.275   8.033  18.451  0.00  0.00    +0.000 C 
ATOM      3  O   UNL     1       2.312   8.552  17.342  0.00  0.00    +0.000 OA
ATOM      4  H   UNL     1       2.693   6.603  19.854  0.00  0.00    +0.000 HD
ENDROOT
BRANCH   1   8
ATOM      5  C   UNL     1       5.170   4.270  16.445  0.00  0.00    +0.000 A 
ATOM      6  C   UNL     1       3.929   3.867  16.920  0.00  0.00    +0.000 A 
ATOM      7  C   UNL     1       3.162   4.719  17.705  0.00  0.00    +0.000 A 
ATOM      8  C   UNL     1       3.628   5.979  18.080  0.00  0.00    +0.000 A 
ATOM      9  C   UNL     1       4.900   6.373  17.642  0.00  0.00    +0.000 A 
ATOM     10  C   UNL     1       5.669   5.516  16.832  0.00  0.00    +0.000 A 
BRANCH   5  11
ATOM     11  O   UNL     1       5.935   3.512  15.595  0.00  0.00    +0.000 OA
BRANCH  11  12
ATOM     12  C   UNL     1       6.490   4.266  14.508  0.00  0.00    +0.000 C 
BRANCH  12  14
ATOM     13  C   UNL     1       6.789   3.688  12.101  0.00  0.00    +0.000 C 
ATOM     14  C   UNL     1       6.039   3.672  13.212  0.00  0.00    +0.000 C 
ENDBRANCH  12  14
ENDBRANCH  11  12
ENDBRANCH   5  11
ENDBRANCH   1   8
BRANCH   2  15
ATOM     15  C   UNL     1       1.464   8.790  19.520  0.00  0.00    +0.000 C 
ATOM     16  O   UNL     1       1.494   8.449  20.694  0.00  0.00    +0.000 OA
ATOM     17  N   UNL     1       0.746   9.834  18.978  0.00  0.00    +0.000 N 
ATOM     18  H   UNL     1       0.873   9.971  17.973  0.00  0.00    +0.000 HD
BRANCH  17  19
ATOM     19  C   UNL     1      -0.109  10.721  19.723  0.00  0.00    +0.000 C 
BRANCH  19  20
ATOM     20  C   UNL     1      -0.759  11.768  18.824  0.00  0.00    +0.000 C 
BRANCH  20  21
ATOM     21  C   UNL     1      -2.277  11.610  18.824  0.00  0.00    +0.000 C 
BRANCH  21  22
ATOM     22  N   UNL     1      -2.782  11.091  17.569  0.00  0.00    +0.000 N 
ATOM     23  C   UNL     1      -3.990  11.381  17.001  0.00  0.00    +0.000 A 
ATOM     24  C   UNL     1      -3.997  10.685  15.814  0.00  0.00    +0.000 A 
ATOM     25  N   UNL     1      -2.825   9.992  15.649  0.00  0.00    +0.000 NA
ATOM     26  C   UNL     1      -2.110  10.261  16.719  0.00  0.00    +0.000 A 
ENDBRANCH  21  22
ENDBRANCH  20  21
ENDBRANCH  19  20
ENDBRANCH  17  19
ENDBRANCH   2  15
TORSDOF 9
ENDMDL
MODEL 3
REMARK VINA RESULT:      -6.4      5.421      8.151
REMARK  Name = 
REMARK  9 active torsions:
REMARK  status: ('A' for Active; 'I' for Inactive)
REMARK    1  A    between atoms: C_2  and  C_3
REMARK    2  A    between atoms: C_3  and  O_4
REMARK    3  A    between atoms: O_4  and  C_5
REMARK    4  A    between atoms: C_8  and  N_9
REMARK    5  A    between atoms: C_10  and  C_12
REMARK    6  A    between atoms: N_14  and  C_15
REMARK    7  A    between atoms: C_15  and  C_16
REMARK    8  A    between atoms: C_16  and  C_17
REMARK    9  A    between atoms: C_17  and  N_18
REMARK                            x       y       z     vdW  Elec       q    Type
REMARK                         _______ _______ _______ _____ _____    ______ ____
ROOT
ATOM      1  N   UNL     1       6.829   6.000  15.809  0.00  0.00    +0.000 N 
ATOM      2  C   UNL     1       7.442   5.618  16.995  0.00  0.00    +0.000 C 
ATOM      3  O   UNL     1       7.837   4.511  17.339  0.00  0.00    +0.000 OA
ATOM      4  H   UNL     1       6.584   6.981  15.732  0.00  0.00    +0.000 HD
ENDROOT
BRANCH   1   8
ATOM      5  C   UNL     1       5.972   3.447  12.538  0.00  0.00    +0.000 A 
ATOM      6  C   UNL     1       5.143   3.471  13.652  0.00  0.00    +0.000 A 
ATOM      7  C   UNL     1       5.413   4.321  14.716  0.00  0.00    +0.000 A 
ATOM      8  C   UNL     1       6.544   5.138  14.726  0.00  0.00    +0.000 A 
ATOM      9  C   UNL     1       7.411   5.084  13.625  0.00  0.00    +0.000 A 
ATOM     10  C   UNL     1       7.126   4.235  12.538  0.00  0.00    +0.000 A 
BRANCH   5  11
ATOM     11  O   UNL     1       5.712   2.697  11.420  0.00  0.00    +0.000 OA
BRANCH  11  12
ATOM     12  C   UNL     1       4.313   2.602  11.114  0.00  0.00    +0.000 C 
BRANCH  12  14
ATOM     13  C   UNL     1       2.879   4.006   9.636  0.00  0.00    +0.000 C 
ATOM     14  C   UNL     1       3.833   3.910  10.572  0.00  0.00    +0.000 C 
ENDBRANCH  12  14
ENDBRANCH  11  12
ENDBRANCH   5  11
ENDBRANCH   1   8
BRANCH   2  15
ATOM     15  C   UNL     1       7.658   6.755  18.013  0.00  0.00    +0.000 C 
ATOM     16  O   UNL     1       7.786   6.518  19.206  0.00  0.00    +0.000 OA
ATOM     17  N   UNL     1       7.676   7.992  17.406  0.00  0.00    +0.000 N 
ATOM     18  H   UNL     1       7.573   7.977  16.389  0.00  0.00    +0.000 HD
BRANCH  17  19
ATOM     19  C   UNL     1       7.854   9.245  18.093  0.00  0.00    +0.000 C 
BRANCH  19  20
ATOM     20  C   UNL     1       9.283   9.417  18.596  0.00  0.00    +0.000 C 
BRANCH  20  21
ATOM     21  C   UNL     1       9.393  10.644  19.496  0.00  0.00    +0.000 C 
BRANCH  21  22
ATOM     22  N   UNL     1      10.531  11.478  19.165  0.00  0.00    +0.000 N 
ATOM     23  C   UNL     1      11.427  12.013  20.047  0.00  0.00    +0.000 A 
ATOM     24  C   UNL     1      12.333  12.687  19.263  0.00  0.00    +0.000 A 
ATOM     25  N   UNL     1      12.013  12.566  17.935  0.00  0.00    +0.000 NA
ATOM     26  C   UNL     1      10.927  11.826  17.906  0.00  0.00    +0.000 A 
ENDBRANCH  21  22
ENDBRANCH  20  21
ENDBRANCH  19  20
ENDBRANCH  17  19
ENDBRANCH   2  15
TORSDOF 9
ENDMDL
MODEL 4
REMARK VINA RESULT:      -6.4      5.088      7.233
REMARK  Name = 
REMARK  9 active torsions:
REMARK  status: ('A' for Active; 'I' for Inactive)
REMARK    1  A    between atoms: C_2  and  C_3
REMARK    2  A    between atoms: C_3  and  O_4
REMARK    3  A    between atoms: O_4  and  C_5
REMARK    4  A    between atoms: C_8  and  N_9
REMARK    5  A    between atoms: C_10  and  C_12
REMARK    6  A    between atoms: N_14  and  C_15
REMARK    7  A    between atoms: C_15  and  C_16
REMARK    8  A    between atoms: C_16  and  C_17
REMARK    9  A    between atoms: C_17  and  N_18
REMARK                            x       y       z     vdW  Elec       q    Type
REMARK                         _______ _______ _______ _____ _____    ______ ____
ROOT
ATOM      1  N   UNL     1       8.841   8.668  19.064  0.00  0.00    +0.000 N 
ATOM      2  C   UNL     1       7.991   8.114  18.116  0.00  0.00    +0.000 C 
ATOM      3  O   UNL     1       7.394   8.663  17.198  0.00  0.00    +0.000 OA
ATOM      4  H   UNL     1       9.233   8.022  19.740  0.00  0.00    +0.000 HD
ENDROOT
BRANCH   1   8
ATOM      5  C   UNL     1       9.937  12.755  19.272  0.00  0.00    +0.000 A 
ATOM      6  C   UNL     1       9.715  12.024  20.431  0.00  0.00    +0.000 A 
ATOM      7  C   UNL     1       9.374  10.680  20.364  0.00  0.00    +0.000 A 
ATOM      8  C   UNL     1       9.195  10.035  19.140  0.00  0.00    +0.000 A 
ATOM      9  C   UNL     1       9.372  10.780  17.965  0.00  0.00    +0.000 A 
ATOM     10  C   UNL     1       9.736  12.138  18.034  0.00  0.00    +0.000 A 
BRANCH   5  11
ATOM     11  O   UNL     1      10.362  14.060  19.272  0.00  0.00    +0.000 OA
BRANCH  11  12
ATOM     12  C   UNL     1       9.646  14.889  18.346  0.00  0.00    +0.000 C 
BRANCH  12  14
ATOM     13  C   UNL     1       7.564  16.260  18.398  0.00  0.00    +0.000 C 
ATOM     14  C   UNL     1       8.446  15.469  19.024  0.00  0.00    +0.000 C 
ENDBRANCH  12  14
ENDBRANCH  11  12
ENDBRANCH   5  11
ENDBRANCH   1   8
BRANCH   2  15
ATOM     15  C   UNL     1       7.781   6.593  18.239  0.00  0.00    +0.000 C 
ATOM     16  O   UNL     1       7.903   6.024  19.315  0.00  0.00    +0.000 OA
ATOM     17  N   UNL     1       7.463   6.018  17.028  0.00  0.00    +0.000 N 
ATOM     18  H   UNL     1       7.386   6.671  16.245  0.00  0.00    +0.000 HD
BRANCH  17  19
ATOM     19  C   UNL     1       7.213   4.615  16.821  0.00  0.00    +0.000 C 
BRANCH  19  20
ATOM     20  C   UNL     1       5.872   4.372  16.137  0.00  0.00    +0.000 C 
BRANCH  20  21
ATOM     21  C   UNL     1       4.724   4.858  17.018  0.00  0.00    +0.000 C 
BRANCH  21  22
ATOM     22  N   UNL     1       4.298   3.861  17.978  0.00  0.00    +0.000 N 
ATOM     23  C   UNL     1       3.759   2.638  17.691  0.00  0.00    +0.000 A 
ATOM     24  C   UNL     1       3.554   2.048  18.916  0.00  0.00    +0.000 A 
ATOM     25  N   UNL     1       3.961   2.876  19.930  0.00  0.00    +0.000 NA
ATOM     26  C   UNL     1       4.411   3.958  19.335  0.00  0.00    +0.000 A 
ENDBRANCH  21  22
ENDBRANCH  20  21
ENDBRANCH  19  20
ENDBRANCH  17  19
ENDBRANCH   2  15
TORSDOF 9
ENDMDL
MODEL 5
REMARK VINA RESULT:      -6.3      2.776      8.143
REMARK  Name = 
REMARK  9 active torsions:
REMARK  status: ('A' for Active; 'I' for Inactive)
REMARK    1  A    between atoms: C_2  and  C_3
REMARK    2  A    between atoms: C_3  and  O_4
REMARK    3  A    between atoms: O_4  and  C_5
REMARK    4  A    between atoms: C_8  and  N_9
REMARK    5  A    between atoms: C_10  and  C_12
REMARK    6  A    between atoms: N_14  and  C_15
REMARK    7  A    between atoms: C_15  and  C_16
REMARK    8  A    between atoms: C_16  and  C_17
REMARK    9  A    between atoms: C_17  and  N_18
REMARK                            x       y       z     vdW  Elec       q    Type
REMARK                         _______ _______ _______ _____ _____    ______ ____
ROOT
ATOM      1  N   UNL     1       3.914   6.159  18.877  0.00  0.00    +0.000 N 
ATOM      2  C   UNL     1       2.639   5.621  18.989  0.00  0.00    +0.000 C 
ATOM      3  O   UNL     1       2.063   4.835  18.246  0.00  0.00    +0.000 OA
ATOM      4  H   UNL     1       4.194   6.794  19.616  0.00  0.00    +0.000 HD
ENDROOT
BRANCH   1   8
ATOM      5  C   UNL     1       6.682   5.327  15.780  0.00  0.00    +0.000 A 
ATOM      6  C   UNL     1       5.678   6.269  15.596  0.00  0.00    +0.000 A 
ATOM      7  C   UNL     1       4.782   6.556  16.617  0.00  0.00    +0.000 A 
ATOM      8  C   UNL     1       4.827   5.878  17.835  0.00  0.00    +0.000 A 
ATOM      9  C   UNL     1       5.809   4.892  18.011  0.00  0.00    +0.000 A 
ATOM     10  C   UNL     1       6.729   4.616  16.981  0.00  0.00    +0.000 A 
BRANCH   5  11
ATOM     11  O   UNL     1       7.650   5.064  14.844  0.00  0.00    +0.000 OA
BRANCH  11  12
ATOM     12  C   UNL     1       7.135   4.960  13.509  0.00  0.00    +0.000 C 
BRANCH  12  14
ATOM     13  C   UNL     1       5.820   3.262  12.244  0.00  0.00    +0.000 C 
ATOM     14  C   UNL     1       6.245   3.763  13.411  0.00  0.00    +0.000 C 
ENDBRANCH  12  14
ENDBRANCH  11  12
ENDBRANCH   5  11
ENDBRANCH   1   8
BRANCH   2  15
ATOM     15  C   UNL     1       1.847   6.074  20.231  0.00  0.00    +0.000 C 
ATOM     16  O   UNL     1       1.255   5.265  20.931  0.00  0.00    +0.000 OA
ATOM     17  N   UNL     1       1.904   7.439  20.408  0.00  0.00    +0.000 N 
ATOM     18  H   UNL     1       2.473   7.941  19.723  0.00  0.00    +0.000 HD
BRANCH  17  19
ATOM     19  C   UNL     1       1.261   8.160  21.476  0.00  0.00    +0.000 C 
BRANCH  19  20
ATOM     20  C   UNL     1       0.848   9.562  21.044  0.00  0.00    +0.000 C 
BRANCH  20  21
ATOM     21  C   UNL     1       0.709   9.639  19.526  0.00  0.00    +0.000 C 
BRANCH  21  22
ATOM     22  N   UNL     1      -0.456  10.393  19.110  0.00  0.00    +0.000 N 
ATOM     23  C   UNL     1      -1.045  11.417  19.796  0.00  0.00    +0.000 A 
ATOM     24  C   UNL     1      -2.081  11.830  18.991  0.00  0.00    +0.000 A 
ATOM     25  N   UNL     1      -2.126  11.090  17.837  0.00  0.00    +0.000 NA
ATOM     26  C   UNL     1      -1.131  10.236  17.934  0.00  0.00    +0.000 A 
ENDBRANCH  21  22
ENDBRANCH  20  21
ENDBRANCH  19  20
ENDBRANCH  17  19
ENDBRANCH   2  15
TORSDOF 9
ENDMDL
MODEL 6
REMARK VINA RESULT:      -6.3      5.102      7.273
REMARK  Name = 
REMARK  9 active torsions:
REMARK  status: ('A' for Active; 'I' for Inactive)
REMARK    1  A    between atoms: C_2  and  C_3
REMARK    2  A    between atoms: C_3  and  O_4
REMARK    3  A    between atoms: O_4  and  C_5
REMARK    4  A    between atoms: C_8  and  N_9
REMARK    5  A    between atoms: C_10  and  C_12
REMARK    6  A    between atoms: N_14  and  C_15
REMARK    7  A    between atoms: C_15  and  C_16
REMARK    8  A    between atoms: C_16  and  C_17
REMARK    9  A    between atoms: C_17  and  N_18
REMARK                            x       y       z     vdW  Elec       q    Type
REMARK                         _______ _______ _______ _____ _____    ______ ____
ROOT
ATOM      1  N   UNL     1       8.890   8.660  19.072  0.00  0.00    +0.000 N 
ATOM      2  C   UNL     1       8.022   8.099  18.145  0.00  0.00    +0.000 C 
ATOM      3  O   UNL     1       7.407   8.640  17.234  0.00  0.00    +0.000 OA
ATOM      4  H   UNL     1       9.296   8.019  19.744  0.00  0.00    +0.000 HD
ENDROOT
BRANCH   1   8
ATOM      5  C   UNL     1       9.917  12.766  19.265  0.00  0.00    +0.000 A 
ATOM      6  C   UNL     1       9.871  12.106  18.044  0.00  0.00    +0.000 A 
ATOM      7  C   UNL     1       9.517  10.765  17.978  0.00  0.00    +0.000 A 
ATOM      8  C   UNL     1       9.245  10.028  19.131  0.00  0.00    +0.000 A 
ATOM      9  C   UNL     1       9.335  10.676  20.371  0.00  0.00    +0.000 A 
ATOM     10  C   UNL     1       9.676  12.041  20.435  0.00  0.00    +0.000 A 
BRANCH   5  11
ATOM     11  O   UNL     1      10.173  14.108  19.389  0.00  0.00    +0.000 OA
BRANCH  11  12
ATOM     12  C   UNL     1       9.294  14.927  18.604  0.00  0.00    +0.000 C 
BRANCH  12  14
ATOM     13  C   UNL     1       8.141  16.292  20.341  0.00  0.00    +0.000 C 
ATOM     14  C   UNL     1       8.108  15.313  19.427  0.00  0.00    +0.000 C 
ENDBRANCH  12  14
ENDBRANCH  11  12
ENDBRANCH   5  11
ENDBRANCH   1   8
BRANCH   2  15
ATOM     15  C   UNL     1       7.816   6.578  18.282  0.00  0.00    +0.000 C 
ATOM     16  O   UNL     1       7.986   6.012  19.354  0.00  0.00    +0.000 OA
ATOM     17  N   UNL     1       7.444   5.998  17.089  0.00  0.00    +0.000 N 
ATOM     18  H   UNL     1       7.333   6.649  16.308  0.00  0.00    +0.000 HD
BRANCH  17  19
ATOM     19  C   UNL     1       7.184   4.595  16.899  0.00  0.00    +0.000 C 
BRANCH  19  20
ATOM     20  C   UNL     1       5.801   4.351  16.303  0.00  0.00    +0.000 C 
BRANCH  20  21
ATOM     21  C   UNL     1       4.714   4.900  17.223  0.00  0.00    +0.000 C 
BRANCH  21  22
ATOM     22  N   UNL     1       3.895   3.855  17.802  0.00  0.00    +0.000 N 
ATOM     23  C   UNL     1       2.780   3.296  17.244  0.00  0.00    +0.000 A 
ATOM     24  C   UNL     1       2.379   2.336  18.144  0.00  0.00    +0.000 A 
ATOM     25  N   UNL     1       3.225   2.296  19.222  0.00  0.00    +0.000 NA
ATOM     26  C   UNL     1       4.132   3.218  18.986  0.00  0.00    +0.000 A 
ENDBRANCH  21  22
ENDBRANCH  20  21
ENDBRANCH  19  20
ENDBRANCH  17  19
ENDBRANCH   2  15
TORSDOF 9
ENDMDL
MODEL 7
REMARK VINA RESULT:      -6.3      3.025      4.519
REMARK  Name = 
REMARK  9 active torsions:
REMARK  status: ('A' for Active; 'I' for Inactive)
REMARK    1  A    between atoms: C_2  and  C_3
REMARK    2  A    between atoms: C_3  and  O_4
REMARK    3  A    between atoms: O_4  and  C_5
REMARK    4  A    between atoms: C_8  and  N_9
REMARK    5  A    between atoms: C_10  and  C_12
REMARK    6  A    between atoms: N_14  and  C_15
REMARK    7  A    between atoms: C_15  and  C_16
REMARK    8  A    between atoms: C_16  and  C_17
REMARK    9  A    between atoms: C_17  and  N_18
REMARK                            x       y       z     vdW  Elec       q    Type
REMARK                         _______ _______ _______ _____ _____    ______ ____
ROOT
ATOM      1  N   UNL     1       2.178   7.275  20.100  0.00  0.00    +0.000 N 
ATOM      2  C   UNL     1       2.698   7.025  18.837  0.00  0.00    +0.000 C 
ATOM      3  O   UNL     1       2.547   7.658  17.800  0.00  0.00    +0.000 OA
ATOM      4  H   UNL     1       2.437   6.616  20.826  0.00  0.00    +0.000 HD
ENDROOT
BRANCH   1   8
ATOM      5  C   UNL     1      -0.291  10.568  21.105  0.00  0.00    +0.000 A 
ATOM      6  C   UNL     1      -0.245   9.446  21.921  0.00  0.00    +0.000 A 
ATOM      7  C   UNL     1       0.578   8.373  21.601  0.00  0.00    +0.000 A 
ATOM      8  C   UNL     1       1.343   8.366  20.435  0.00  0.00    +0.000 A 
ATOM      9  C   UNL     1       1.266   9.477  19.583  0.00  0.00    +0.000 A 
ATOM     10  C   UNL     1       0.445  10.572  19.917  0.00  0.00    +0.000 A 
BRANCH   5  11
ATOM     11  O   UNL     1      -1.014  11.694  21.410  0.00  0.00    +0.000 OA
BRANCH  11  12
ATOM     12  C   UNL     1      -1.103  11.945  22.820  0.00  0.00    +0.000 C 
BRANCH  12  14
ATOM     13  C   UNL     1      -3.237  13.148  23.279  0.00  0.00    +0.000 C 
ATOM     14  C   UNL     1      -2.541  12.005  23.224  0.00  0.00    +0.000 C 
ENDBRANCH  12  14
ENDBRANCH  11  12
ENDBRANCH   5  11
ENDBRANCH   1   8
BRANCH   2  15
ATOM     15  C   UNL     1       3.598   5.777  18.739  0.00  0.00    +0.000 C 
ATOM     16  O   UNL     1       4.462   5.555  19.576  0.00  0.00    +0.000 OA
ATOM     17  N   UNL     1       3.298   5.012  17.633  0.00  0.00    +0.000 N 
ATOM     18  H   UNL     1       2.522   5.358  17.065  0.00  0.00    +0.000 HD
BRANCH  17  19
ATOM     19  C   UNL     1       3.968   3.791  17.268  0.00  0.00    +0.000 C 
BRANCH  19  20
ATOM     20  C   UNL     1       3.025   2.594  17.309  0.00  0.00    +0.000 C 
BRANCH  20  21
ATOM     21  C   UNL     1       3.275   1.754  18.559  0.00  0.00    +0.000 C 
BRANCH  21  22
ATOM     22  N   UNL     1       2.655   2.317  19.741  0.00  0.00    +0.000 N 
ATOM     23  C   UNL     1       1.343   2.672  19.877  0.00  0.00    +0.000 A 
ATOM     24  C   UNL     1       1.230   3.117  21.174  0.00  0.00    +0.000 A 
ATOM     25  N   UNL     1       2.435   3.031  21.824  0.00  0.00    +0.000 NA
ATOM     26  C   UNL     1       3.273   2.540  20.938  0.00  0.00    +0.000 A 
ENDBRANCH  21  22
ENDBRANCH  20  21
ENDBRANCH  19  20
ENDBRANCH  17  19
ENDBRANCH   2  15
TORSDOF 9
ENDMDL
MODEL 8
REMARK VINA RESULT:      -6.2      2.427      3.919
REMARK  Name = 
REMARK  9 active torsions:
REMARK  status: ('A' for Active; 'I' for Inactive)
REMARK    1  A    between atoms: C_2  and  C_3
REMARK    2  A    between atoms: C_3  and  O_4
REMARK    3  A    between atoms: O_4  and  C_5
REMARK    4  A    between atoms: C_8  and  N_9
REMARK    5  A    between atoms: C_10  and  C_12
REMARK    6  A    between atoms: N_14  and  C_15
REMARK    7  A    between atoms: C_15  and  C_16
REMARK    8  A    between atoms: C_16  and  C_17
REMARK    9  A    between atoms: C_17  and  N_18
REMARK                            x       y       z     vdW  Elec       q    Type
REMARK                         _______ _______ _______ _____ _____    ______ ____
ROOT
ATOM      1  N   UNL     1       2.995   6.133  18.726  0.00  0.00    +0.000 N 
ATOM      2  C   UNL     1       4.274   5.955  18.215  0.00  0.00    +0.000 C 
ATOM      3  O   UNL     1       5.064   6.794  17.798  0.00  0.00    +0.000 OA
ATOM      4  H   UNL     1       2.514   5.291  19.020  0.00  0.00    +0.000 HD
ENDROOT
BRANCH   1   8
ATOM      5  C   UNL     1       1.007   9.847  19.172  0.00  0.00    +0.000 A 
ATOM      6  C   UNL     1       1.526   9.467  17.942  0.00  0.00    +0.000 A 
ATOM      7  C   UNL     1       2.162   8.242  17.790  0.00  0.00    +0.000 A 
ATOM      8  C   UNL     1       2.343   7.379  18.871  0.00  0.00    +0.000 A 
ATOM      9  C   UNL     1       1.862   7.777  20.127  0.00  0.00    +0.000 A 
ATOM     10  C   UNL     1       1.201   9.011  20.275  0.00  0.00    +0.000 A 
BRANCH   5  11
ATOM     11  O   UNL     1       0.292  11.002  19.366  0.00  0.00    +0.000 OA
BRANCH  11  12
ATOM     12  C   UNL     1      -0.827  11.132  18.476  0.00  0.00    +0.000 C 
BRANCH  12  14
ATOM     13  C   UNL     1      -1.935  12.239  20.416  0.00  0.00    +0.000 C 
ATOM     14  C   UNL     1      -1.851  12.027  19.095  0.00  0.00    +0.000 C 
ENDBRANCH  12  14
ENDBRANCH  11  12
ENDBRANCH   5  11
ENDBRANCH   1   8
BRANCH   2  15
ATOM     15  C   UNL     1       4.765   4.495  18.180  0.00  0.00    +0.000 C 
ATOM     16  O   UNL     1       5.798   4.163  18.743  0.00  0.00    +0.000 OA
ATOM     17  N   UNL     1       3.916   3.684  17.459  0.00  0.00    +0.000 N 
ATOM     18  H   UNL     1       3.088   4.150  17.082  0.00  0.00    +0.000 HD
BRANCH  17  19
ATOM     19  C   UNL     1       4.108   2.273  17.243  0.00  0.00    +0.000 C 
BRANCH  19  20
ATOM     20  C   UNL     1       3.675   1.451  18.452  0.00  0.00    +0.000 C 
BRANCH  20  21
ATOM     21  C   UNL     1       2.191   1.656  18.739  0.00  0.00    +0.000 C 
BRANCH  21  22
ATOM     22  N   UNL     1       1.952   2.668  19.748  0.00  0.00    +0.000 N 
ATOM     23  C   UNL     1       2.705   2.890  20.866  0.00  0.00    +0.000 A 
ATOM     24  C   UNL     1       2.109   3.964  21.484  0.00  0.00    +0.000 A 
ATOM     25  N   UNL     1       1.026   4.400  20.764  0.00  0.00    +0.000 NA
ATOM     26  C   UNL     1       0.960   3.604  19.720  0.00  0.00    +0.000 A 
ENDBRANCH  21  22
ENDBRANCH  20  21
ENDBRANCH  19  20
ENDBRANCH  17  19
ENDBRANCH   2  15
TORSDOF 9
ENDMDL
MODEL 9
REMARK VINA RESULT:      -6.2      2.425      3.957
REMARK  Name = 
REMARK  9 active torsions:
REMARK  status: ('A' for Active; 'I' for Inactive)
REMARK    1  A    between atoms: C_2  and  C_3
REMARK    2  A    between atoms: C_3  and  O_4
REMARK    3  A    between atoms: O_4  and  C_5
REMARK    4  A    between atoms: C_8  and  N_9
REMARK    5  A    between atoms: C_10  and  C_12
REMARK    6  A    between atoms: N_14  and  C_15
REMARK    7  A    between atoms: C_15  and  C_16
REMARK    8  A    between atoms: C_16  and  C_17
REMARK    9  A    between atoms: C_17  and  N_18
REMARK                            x       y       z     vdW  Elec       q    Type
REMARK                         _______ _______ _______ _____ _____    ______ ____
ROOT
ATOM      1  N   UNL     1       2.892   6.509  18.855  0.00  0.00    +0.000 N 
ATOM      2  C   UNL     1       4.038   6.381  18.081  0.00  0.00    +0.000 C 
ATOM      3  O   UNL     1       4.637   7.235  17.438  0.00  0.00    +0.000 OA
ATOM      4  H   UNL     1       2.565   5.664  19.308  0.00  0.00    +0.000 HD
ENDROOT
BRANCH   1   8
ATOM      5  C   UNL     1       0.784  10.135  19.450  0.00  0.00    +0.000 A 
ATOM      6  C   UNL     1       0.976   9.249  20.502  0.00  0.00    +0.000 A 
ATOM      7  C   UNL     1       1.683   8.069  20.312  0.00  0.00    +0.000 A 
ATOM      8  C   UNL     1       2.178   7.713  19.057  0.00  0.00    +0.000 A 
ATOM      9  C   UNL     1       1.947   8.581  17.981  0.00  0.00    +0.000 A 
ATOM     10  C   UNL     1       1.245   9.786  18.179  0.00  0.00    +0.000 A 
BRANCH   5  11
ATOM     11  O   UNL     1       0.173  11.355  19.593  0.00  0.00    +0.000 OA
BRANCH  11  12
ATOM     12  C   UNL     1      -1.246  11.260  19.784  0.00  0.00    +0.000 C 
BRANCH  12  14
ATOM     13  C   UNL     1      -2.423  10.240  17.837  0.00  0.00    +0.000 C 
ATOM     14  C   UNL     1      -1.931  11.322  18.457  0.00  0.00    +0.000 C 
ENDBRANCH  12  14
ENDBRANCH  11  12
ENDBRANCH   5  11
ENDBRANCH   1   8
BRANCH   2  15
ATOM     15  C   UNL     1       4.639   4.962  18.037  0.00  0.00    +0.000 C 
ATOM     16  O   UNL     1       5.615   4.669  18.713  0.00  0.00    +0.000 OA
ATOM     17  N   UNL     1       3.953   4.139  17.171  0.00  0.00    +0.000 N 
ATOM     18  H   UNL     1       3.145   4.569  16.714  0.00  0.00    +0.000 HD
BRANCH  17  19
ATOM     19  C   UNL     1       4.277   2.760  16.912  0.00  0.00    +0.000 C 
BRANCH  19  20
ATOM     20  C   UNL     1       3.617   1.824  17.918  0.00  0.00    +0.000 C 
BRANCH  20  21
ATOM     21  C   UNL     1       2.242   2.350  18.320  0.00  0.00    +0.000 C 
BRANCH  21  22
ATOM     22  N   UNL     1       2.128   2.579  19.746  0.00  0.00    +0.000 N 
ATOM     23  C   UNL     1       0.986   2.889  20.428  0.00  0.00    +0.000 A 
ATOM     24  C   UNL     1       1.374   2.972  21.745  0.00  0.00    +0.000 A 
ATOM     25  N   UNL     1       2.714   2.712  21.875  0.00  0.00    +0.000 NA
ATOM     26  C   UNL     1       3.141   2.472  20.655  0.00  0.00    +0.000 A 
ENDBRANCH  21  22
ENDBRANCH  20  21
ENDBRANCH  19  20
ENDBRANCH  17  19
ENDBRANCH   2  15
TORSDOF 9
ENDMDL
