MODEL 1
REMARK VINA RESULT:      -9.1      0.000      0.000
REMARK  Name = 
REMARK  5 active torsions:
REMARK  status: ('A' for Active; 'I' for Inactive)
REMARK    1  A    between atoms: C_4  and  C_5
REMARK    2  A    between atoms: C_4  and  C_23
REMARK    3  A    between atoms: C_7  and  N_8
REMARK    4  A    between atoms: C_9  and  C_11
REMARK    5  A    between atoms: C_17  and  N_18
REMARK                            x       y       z     vdW  Elec       q    Type
REMARK                         _______ _______ _______ _____ _____    ______ ____
ROOT
ATOM      1  C   UNL     1       4.622   5.351  17.421  0.00  0.00    +0.000 A 
ATOM      2  C   UNL     1       4.019   6.471  18.037  0.00  0.00    +0.000 A 
ATOM      3  C   UNL     1       2.662   6.483  18.431  0.00  0.00    +0.000 A 
ATOM      4  C   UNL     1       1.900   5.336  18.234  0.00  0.00    +0.000 A 
ATOM      5  C   UNL     1       2.478   4.203  17.660  0.00  0.00    +0.000 A 
ATOM      6  C   UNL     1       3.820   4.212  17.281  0.00  0.00    +0.000 A 
ATOM      7  F   UNL     1       4.327   3.076  16.787  0.00  0.00    +0.000 F 
ENDROOT
BRANCH   1  11
ATOM      8  N   UNL     1       7.859   8.565  17.435  0.00  0.00    +0.000 N 
ATOM      9  C   UNL     1       7.453   7.270  17.606  0.00  0.00    +0.000 C 
ATOM     10  N   UNL     1       6.542   6.822  16.812  0.00  0.00    +0.000 NA
ATOM     11  C   UNL     1       6.084   5.403  16.925  0.00  0.00    +0.000 C 
ATOM     12  C   UNL     1       7.005   4.555  17.847  0.00  0.00    +0.000 C 
ATOM     13  O   UNL     1       7.405   5.247  19.034  0.00  0.00    +0.000 OA
ATOM     14  C   UNL     1       8.103   6.434  18.707  0.00  0.00    +0.000 C 
ATOM     15  H   UNL     1       7.190   9.104  16.891  0.00  0.00    +0.000 HD
ATOM     16  H   UNL     1       8.219   9.059  18.241  0.00  0.00    +0.000 HD
BRANCH  11  17
ATOM     17  C   UNL     1       6.235   4.800  15.492  0.00  0.00    +0.000 C 
ATOM     18  F   UNL     1       7.514   4.968  15.046  0.00  0.00    +0.000 F 
ATOM     19  F   UNL     1       5.436   5.441  14.598  0.00  0.00    +0.000 F 
ENDBRANCH  11  17
ENDBRANCH   1  11
BRANCH   3  20
ATOM     20  N   UNL     1       2.053   7.602  19.031  0.00  0.00    +0.000 N 
ATOM     21  C   UNL     1       1.783   8.821  18.429  0.00  0.00    +0.000 C 
ATOM     22  O   UNL     1       1.960   9.091  17.243  0.00  0.00    +0.000 OA
ATOM     23  H   UNL     1       1.707   7.507  19.980  0.00  0.00    +0.000 HD
BRANCH  21  24
ATOM     24  C   UNL     1       1.157   9.847  19.337  0.00  0.00    +0.000 A 
ATOM     25  N   UNL     1       0.447   9.346  20.394  0.00  0.00    +0.000 NA
ATOM     26  C   UNL     1      -0.121  10.263  21.216  0.00  0.00    +0.000 A 
ATOM     27  C   UNL     1      -0.029  11.635  21.031  0.00  0.00    +0.000 A 
ATOM     28 CL   UNL     1      -0.772  12.725  22.129  0.00  0.00    +0.000 Cl
ATOM     29  C   UNL     1       0.688  12.117  19.941  0.00  0.00    +0.000 A 
ATOM     30  C   UNL     1       1.278  11.226  19.041  0.00  0.00    +0.000 A 
BRANCH  30  31
ATOM     31  N   UNL     1       2.121  11.746  18.043  0.00  0.00    +0.000 N 
ATOM     32  H   UNL     1       3.080  11.417  18.070  0.00  0.00    +0.000 HD
ATOM     33  H   UNL     1       2.059  12.773  17.987  0.00  0.00    +0.000 HD
ENDBRANCH  30  31
ENDBRANCH  21  24
ENDBRANCH   3  20
TORSDOF 5
ENDMDL
MODEL 2
REMARK VINA RESULT:      -8.7      1.085      1.660
REMARK  Name = 
REMARK  5 active torsions:
REMARK  status: ('A' for Active; 'I' for Inactive)
REMARK    1  A    between atoms: C_4  and  C_5
REMARK    2  A    between atoms: C_4  and  C_23
REMARK    3  A    between atoms: C_7  and  N_8
REMARK    4  A    between atoms: C_9  and  C_11
REMARK    5  A    between atoms: C_17  and  N_18
REMARK                            x       y       z     vdW  Elec       q    Type
REMARK                         _______ _______ _______ _____ _____    ______ ____
ROOT
ATOM      1  C   UNL     1       4.610   5.410  17.330  0.00  0.00    +0.000 A 
ATOM      2  C   UNL     1       3.961   6.603  17.722  0.00  0.00    +0.000 A 
ATOM      3  C   UNL     1       2.589   6.647  18.057  0.00  0.00    +0.000 A 
ATOM      4  C   UNL     1       1.858   5.464  18.030  0.00  0.00    +0.000 A 
ATOM      5  C   UNL     1       2.481   4.265  17.681  0.00  0.00    +0.000 A 
ATOM      6  C   UNL     1       3.837   4.244  17.357  0.00  0.00    +0.000 A 
ATOM      7  F   UNL     1       4.386   3.053  17.084  0.00  0.00    +0.000 F 
ENDROOT
BRANCH   1  11
ATOM      8  N   UNL     1       7.930   8.538  17.407  0.00  0.00    +0.000 N 
ATOM      9  C   UNL     1       7.483   7.258  17.585  0.00  0.00    +0.000 C 
ATOM     10  N   UNL     1       6.590   6.819  16.767  0.00  0.00    +0.000 NA
ATOM     11  C   UNL     1       6.091   5.415  16.888  0.00  0.00    +0.000 C 
ATOM     12  C   UNL     1       6.954   4.560  17.858  0.00  0.00    +0.000 C 
ATOM     13  O   UNL     1       7.329   5.264  19.046  0.00  0.00    +0.000 OA
ATOM     14  C   UNL     1       8.070   6.426  18.724  0.00  0.00    +0.000 C 
ATOM     15  H   UNL     1       7.296   9.084  16.829  0.00  0.00    +0.000 HD
ATOM     16  H   UNL     1       8.273   9.037  18.217  0.00  0.00    +0.000 HD
BRANCH  11  17
ATOM     17  C   UNL     1       6.277   4.781  15.473  0.00  0.00    +0.000 C 
ATOM     18  F   UNL     1       7.487   5.145  14.953  0.00  0.00    +0.000 F 
ATOM     19  F   UNL     1       5.340   5.234  14.599  0.00  0.00    +0.000 F 
ENDBRANCH  11  17
ENDBRANCH   1  11
BRANCH   3  20
ATOM     20  N   UNL     1       1.935   7.836  18.433  0.00  0.00    +0.000 N 
ATOM     21  C   UNL     1       1.611   8.232  19.722  0.00  0.00    +0.000 C 
ATOM     22  O   UNL     1       1.919   7.640  20.753  0.00  0.00    +0.000 OA
ATOM     23  H   UNL     1       1.731   8.519  17.711  0.00  0.00    +0.000 HD
BRANCH  21  24
ATOM     24  C   UNL     1       0.874   9.542  19.811  0.00  0.00    +0.000 A 
ATOM     25  N   UNL     1       1.155  10.447  18.823  0.00  0.00    +0.000 NA
ATOM     26  C   UNL     1       0.497  11.630  18.897  0.00  0.00    +0.000 A 
ATOM     27  C   UNL     1      -0.405  11.956  19.900  0.00  0.00    +0.000 A 
ATOM     28 CL   UNL     1      -1.202  13.476  19.909  0.00  0.00    +0.000 Cl
ATOM     29  C   UNL     1      -0.662  11.023  20.899  0.00  0.00    +0.000 A 
ATOM     30  C   UNL     1       0.000   9.794  20.896  0.00  0.00    +0.000 A 
BRANCH  30  31
ATOM     31  N   UNL     1      -0.398   8.819  21.828  0.00  0.00    +0.000 N 
ATOM     32  H   UNL     1      -0.474   7.876  21.465  0.00  0.00    +0.000 HD
ATOM     33  H   UNL     1      -1.238   9.109  22.350  0.00  0.00    +0.000 HD
ENDBRANCH  30  31
ENDBRANCH  21  24
ENDBRANCH   3  20
TORSDOF 5
ENDMDL
MODEL 3
REMARK VINA RESULT:      -8.5      0.803      1.320
REMARK  Name = 
REMARK  5 active torsions:
REMARK  status: ('A' for Active; 'I' for Inactive)
REMARK    1  A    between atoms: C_4  and  C_5
REMARK    2  A    between atoms: C_4  and  C_23
REMARK    3  A    between atoms: C_7  and  N_8
REMARK    4  A    between atoms: C_9  and  C_11
REMARK    5  A    between atoms: C_17  and  N_18
REMARK                            x       y       z     vdW  Elec       q    Type
REMARK                         _______ _______ _______ _____ _____    ______ ____
ROOT
ATOM      1  C   UNL     1       4.746   5.172  17.271  0.00  0.00    +0.000 A 
ATOM      2  C   UNL     1       4.030   6.231  17.872  0.00  0.00    +0.000 A 
ATOM      3  C   UNL     1       2.670   6.119  18.236  0.00  0.00    +0.000 A 
ATOM      4  C   UNL     1       2.020   4.907  18.023  0.00  0.00    +0.000 A 
ATOM      5  C   UNL     1       2.712   3.833  17.463  0.00  0.00    +0.000 A 
ATOM      6  C   UNL     1       4.055   3.965  17.114  0.00  0.00    +0.000 A 
ATOM      7  F   UNL     1       4.676   2.880  16.633  0.00  0.00    +0.000 F 
ENDROOT
BRANCH   1  11
ATOM      8  N   UNL     1       7.715   8.630  17.462  0.00  0.00    +0.000 N 
ATOM      9  C   UNL     1       7.410   7.302  17.580  0.00  0.00    +0.000 C 
ATOM     10  N   UNL     1       6.552   6.812  16.753  0.00  0.00    +0.000 NA
ATOM     11  C   UNL     1       6.209   5.358  16.807  0.00  0.00    +0.000 C 
ATOM     12  C   UNL     1       7.178   4.553  17.718  0.00  0.00    +0.000 C 
ATOM     13  O   UNL     1       7.500   5.232  18.936  0.00  0.00    +0.000 OA
ATOM     14  C   UNL     1       8.106   6.481  18.665  0.00  0.00    +0.000 C 
ATOM     15  H   UNL     1       7.014   9.134  16.924  0.00  0.00    +0.000 HD
ATOM     16  H   UNL     1       8.019   9.122  18.292  0.00  0.00    +0.000 HD
BRANCH  11  17
ATOM     17  C   UNL     1       6.433   4.821  15.358  0.00  0.00    +0.000 C 
ATOM     18  F   UNL     1       7.632   5.261  14.876  0.00  0.00    +0.000 F 
ATOM     19  F   UNL     1       5.486   5.291  14.503  0.00  0.00    +0.000 F 
ENDBRANCH  11  17
ENDBRANCH   1  11
BRANCH   3  20
ATOM     20  N   UNL     1       1.948   7.177  18.821  0.00  0.00    +0.000 N 
ATOM     21  C   UNL     1       1.896   8.490  18.379  0.00  0.00    +0.000 C 
ATOM     22  O   UNL     1       2.413   8.922  17.351  0.00  0.00    +0.000 OA
ATOM     23  H   UNL     1       1.342   6.966  19.607  0.00  0.00    +0.000 HD
BRANCH  21  24
ATOM     24  C   UNL     1       1.067   9.411  19.236  0.00  0.00    +0.000 A 
ATOM     25  N   UNL     1       0.371  10.378  18.562  0.00  0.00    +0.000 NA
ATOM     26  C   UNL     1      -0.376  11.212  19.326  0.00  0.00    +0.000 A 
ATOM     27  C   UNL     1      -0.453  11.138  20.709  0.00  0.00    +0.000 A 
ATOM     28 CL   UNL     1      -1.436  12.231  21.597  0.00  0.00    +0.000 Cl
ATOM     29  C   UNL     1       0.274  10.154  21.370  0.00  0.00    +0.000 A 
ATOM     30  C   UNL     1       1.084   9.277  20.644  0.00  0.00    +0.000 A 
BRANCH  30  31
ATOM     31  N   UNL     1       1.680   8.201  21.326  0.00  0.00    +0.000 N 
ATOM     32  H   UNL     1       1.042   7.605  21.840  0.00  0.00    +0.000 HD
ATOM     33  H   UNL     1       2.480   8.508  21.900  0.00  0.00    +0.000 HD
ENDBRANCH  30  31
ENDBRANCH  21  24
ENDBRANCH   3  20
TORSDOF 5
ENDMDL
MODEL 4
REMARK VINA RESULT:      -8.3      1.011      1.019
REMARK  Name = 
REMARK  5 active torsions:
REMARK  status: ('A' for Active; 'I' for Inactive)
REMARK    1  A    between atoms: C_4  and  C_5
REMARK    2  A    between atoms: C_4  and  C_23
REMARK    3  A    between atoms: C_7  and  N_8
REMARK    4  A    between atoms: C_9  and  C_11
REMARK    5  A    between atoms: C_17  and  N_18
REMARK                            x       y       z     vdW  Elec       q    Type
REMARK                         _______ _______ _______ _____ _____    ______ ____
ROOT
ATOM      1  C   UNL     1       4.564   5.404  17.324  0.00  0.00    +0.000 A 
ATOM      2  C   UNL     1       3.907   6.605  17.673  0.00  0.00    +0.000 A 
ATOM      3  C   UNL     1       2.532   6.653  17.995  0.00  0.00    +0.000 A 
ATOM      4  C   UNL     1       1.806   5.467  17.998  0.00  0.00    +0.000 A 
ATOM      5  C   UNL     1       2.436   4.261  17.691  0.00  0.00    +0.000 A 
ATOM      6  C   UNL     1       3.795   4.236  17.380  0.00  0.00    +0.000 A 
ATOM      7  F   UNL     1       4.351   3.039  17.149  0.00  0.00    +0.000 F 
ENDROOT
BRANCH   1  11
ATOM      8  N   UNL     1       7.894   8.520  17.415  0.00  0.00    +0.000 N 
ATOM      9  C   UNL     1       7.441   7.242  17.596  0.00  0.00    +0.000 C 
ATOM     10  N   UNL     1       6.554   6.803  16.772  0.00  0.00    +0.000 NA
ATOM     11  C   UNL     1       6.049   5.401  16.895  0.00  0.00    +0.000 C 
ATOM     12  C   UNL     1       6.901   4.548  17.877  0.00  0.00    +0.000 C 
ATOM     13  O   UNL     1       7.267   5.257  19.065  0.00  0.00    +0.000 OA
ATOM     14  C   UNL     1       8.015   6.414  18.744  0.00  0.00    +0.000 C 
ATOM     15  H   UNL     1       7.267   9.066  16.829  0.00  0.00    +0.000 HD
ATOM     16  H   UNL     1       8.232   9.022  18.225  0.00  0.00    +0.000 HD
BRANCH  11  17
ATOM     17  C   UNL     1       6.246   4.760  15.485  0.00  0.00    +0.000 C 
ATOM     18  F   UNL     1       7.456   5.126  14.969  0.00  0.00    +0.000 F 
ATOM     19  F   UNL     1       5.310   5.202  14.603  0.00  0.00    +0.000 F 
ENDBRANCH  11  17
ENDBRANCH   1  11
BRANCH   3  20
ATOM     20  N   UNL     1       1.870   7.851  18.329  0.00  0.00    +0.000 N 
ATOM     21  C   UNL     1       1.630   8.337  19.605  0.00  0.00    +0.000 C 
ATOM     22  O   UNL     1       2.032   7.836  20.652  0.00  0.00    +0.000 OA
ATOM     23  H   UNL     1       1.591   8.470  17.575  0.00  0.00    +0.000 HD
BRANCH  21  24
ATOM     24  C   UNL     1       0.860   9.631  19.650  0.00  0.00    +0.000 A 
ATOM     25  N   UNL     1      -0.105   9.711  20.618  0.00  0.00    +0.000 NA
ATOM     26  C   UNL     1      -0.803  10.872  20.664  0.00  0.00    +0.000 A 
ATOM     27  C   UNL     1      -0.599  11.937  19.799  0.00  0.00    +0.000 A 
ATOM     28 CL   UNL     1      -1.524  13.376  19.938  0.00  0.00    +0.000 Cl
ATOM     29  C   UNL     1       0.379  11.825  18.817  0.00  0.00    +0.000 A 
ATOM     30  C   UNL     1       1.119  10.646  18.698  0.00  0.00    +0.000 A 
BRANCH  30  31
ATOM     31  N   UNL     1       2.200  10.624  17.799  0.00  0.00    +0.000 N 
ATOM     32  H   UNL     1       2.276   9.788  17.231  0.00  0.00    +0.000 HD
ATOM     33  H   UNL     1       3.088  10.867  18.263  0.00  0.00    +0.000 HD
ENDBRANCH  30  31
ENDBRANCH  21  24
ENDBRANCH   3  20
TORSDOF 5
ENDMDL
MODEL 5
REMARK VINA RESULT:      -8.2      1.406      1.721
REMARK  Name = 
REMARK  5 active torsions:
REMARK  status: ('A' for Active; 'I' for Inactive)
REMARK    1  A    between atoms: C_4  and  C_5
REMARK    2  A    between atoms: C_4  and  C_23
REMARK    3  A    between atoms: C_7  and  N_8
REMARK    4  A    between atoms: C_9  and  C_11
REMARK    5  A    between atoms: C_17  and  N_18
REMARK                            x       y       z     vdW  Elec       q    Type
REMARK                         _______ _______ _______ _____ _____    ______ ____
ROOT
ATOM      1  C   UNL     1       3.977   5.498  18.871  0.00  0.00    +0.000 A 
ATOM      2  C   UNL     1       3.407   6.790  18.916  0.00  0.00    +0.000 A 
ATOM      3  C   UNL     1       2.262   7.090  19.688  0.00  0.00    +0.000 A 
ATOM      4  C   UNL     1       1.694   6.080  20.457  0.00  0.00    +0.000 A 
ATOM      5  C   UNL     1       2.255   4.803  20.460  0.00  0.00    +0.000 A 
ATOM      6  C   UNL     1       3.387   4.530  19.693  0.00  0.00    +0.000 A 
ATOM      7  F   UNL     1       3.909   3.300  19.782  0.00  0.00    +0.000 F 
ENDROOT
BRANCH   1  11
ATOM      8  N   UNL     1       7.348   8.008  17.099  0.00  0.00    +0.000 N 
ATOM      9  C   UNL     1       6.888   6.867  17.697  0.00  0.00    +0.000 C 
ATOM     10  N   UNL     1       5.718   6.448  17.359  0.00  0.00    +0.000 NA
ATOM     11  C   UNL     1       5.177   5.185  17.950  0.00  0.00    +0.000 C 
ATOM     12  C   UNL     1       6.262   4.378  18.718  0.00  0.00    +0.000 C 
ATOM     13  O   UNL     1       7.116   5.203  19.517  0.00  0.00    +0.000 OA
ATOM     14  C   UNL     1       7.783   6.156  18.711  0.00  0.00    +0.000 C 
ATOM     15  H   UNL     1       6.596   8.545  16.676  0.00  0.00    +0.000 HD
ATOM     16  H   UNL     1       8.013   8.575  17.609  0.00  0.00    +0.000 HD
BRANCH  11  17
ATOM     17  C   UNL     1       4.762   4.299  16.733  0.00  0.00    +0.000 C 
ATOM     18  F   UNL     1       5.043   4.947  15.564  0.00  0.00    +0.000 F 
ATOM     19  F   UNL     1       3.422   4.067  16.722  0.00  0.00    +0.000 F 
ENDBRANCH  11  17
ENDBRANCH   1  11
BRANCH   3  20
ATOM     20  N   UNL     1       1.682   8.373  19.723  0.00  0.00    +0.000 N 
ATOM     21  C   UNL     1       1.536   9.247  18.657  0.00  0.00    +0.000 C 
ATOM     22  O   UNL     1       1.819   9.004  17.486  0.00  0.00    +0.000 OA
ATOM     23  H   UNL     1       1.260   8.683  20.592  0.00  0.00    +0.000 HD
BRANCH  21  24
ATOM     24  C   UNL     1       0.910  10.571  19.009  0.00  0.00    +0.000 A 
ATOM     25  N   UNL     1      -0.188  10.508  19.824  0.00  0.00    +0.000 NA
ATOM     26  C   UNL     1      -0.758  11.695  20.144  0.00  0.00    +0.000 A 
ATOM     27  C   UNL     1      -0.303  12.924  19.689  0.00  0.00    +0.000 A 
ATOM     28 CL   UNL     1      -1.081  14.381  20.156  0.00  0.00    +0.000 Cl
ATOM     29  C   UNL     1       0.808  12.959  18.852  0.00  0.00    +0.000 A 
ATOM     30  C   UNL     1       1.428  11.769  18.463  0.00  0.00    +0.000 A 
BRANCH  30  31
ATOM     31  N   UNL     1       2.635  11.850  17.746  0.00  0.00    +0.000 N 
ATOM     32  H   UNL     1       3.368  12.392  18.189  0.00  0.00    +0.000 HD
ATOM     33  H   UNL     1       2.480  12.127  16.766  0.00  0.00    +0.000 HD
ENDBRANCH  30  31
ENDBRANCH  21  24
ENDBRANCH   3  20
TORSDOF 5
ENDMDL
MODEL 6
REMARK VINA RESULT:      -8.2      2.813      4.175
REMARK  Name = 
REMARK  5 active torsions:
REMARK  status: ('A' for Active; 'I' for Inactive)
REMARK    1  A    between atoms: C_4  and  C_5
REMARK    2  A    between atoms: C_4  and  C_23
REMARK    3  A    between atoms: C_7  and  N_8
REMARK    4  A    between atoms: C_9  and  C_11
REMARK    5  A    between atoms: C_17  and  N_18
REMARK                            x       y       z     vdW  Elec       q    Type
REMARK                         _______ _______ _______ _____ _____    ______ ____
ROOT
ATOM      1  C   UNL     1       3.241   5.247  18.427  0.00  0.00    +0.000 A 
ATOM      2  C   UNL     1       2.490   6.202  19.149  0.00  0.00    +0.000 A 
ATOM      3  C   UNL     1       2.503   7.578  18.831  0.00  0.00    +0.000 A 
ATOM      4  C   UNL     1       3.259   8.004  17.744  0.00  0.00    +0.000 A 
ATOM      5  C   UNL     1       3.983   7.079  16.991  0.00  0.00    +0.000 A 
ATOM      6  C   UNL     1       3.954   5.725  17.321  0.00  0.00    +0.000 A 
ATOM      7  F   UNL     1       4.625   4.883  16.525  0.00  0.00    +0.000 F 
ENDROOT
BRANCH   1  11
ATOM      8  N   UNL     1       0.965   2.801  21.533  0.00  0.00    +0.000 N 
ATOM      9  C   UNL     1       1.502   2.954  20.284  0.00  0.00    +0.000 C 
ATOM     10  N   UNL     1       2.614   3.597  20.190  0.00  0.00    +0.000 NA
ATOM     11  C   UNL     1       3.270   3.763  18.856  0.00  0.00    +0.000 C 
ATOM     12  C   UNL     1       2.626   2.864  17.763  0.00  0.00    +0.000 C 
ATOM     13  O   UNL     1       1.198   2.833  17.830  0.00  0.00    +0.000 OA
ATOM     14  C   UNL     1       0.768   2.350  19.088  0.00  0.00    +0.000 C 
ATOM     15  H   UNL     1       1.359   3.461  22.199  0.00  0.00    +0.000 HD
ATOM     16  H   UNL     1      -0.039   2.701  21.607  0.00  0.00    +0.000 HD
BRANCH  11  17
ATOM     17  C   UNL     1       4.730   3.240  19.040  0.00  0.00    +0.000 C 
ATOM     18  F   UNL     1       4.748   2.207  19.933  0.00  0.00    +0.000 F 
ATOM     19  F   UNL     1       5.540   4.201  19.559  0.00  0.00    +0.000 F 
ENDBRANCH  11  17
ENDBRANCH   1  11
BRANCH   3  20
ATOM     20  N   UNL     1       1.768   8.535  19.558  0.00  0.00    +0.000 N 
ATOM     21  C   UNL     1       0.882   9.468  19.040  0.00  0.00    +0.000 C 
ATOM     22  O   UNL     1       0.535   9.553  17.865  0.00  0.00    +0.000 OA
ATOM     23  H   UNL     1       1.824   8.514  20.570  0.00  0.00    +0.000 HD
BRANCH  21  24
ATOM     24  C   UNL     1       0.271  10.390  20.063  0.00  0.00    +0.000 A 
ATOM     25  N   UNL     1       0.114   9.863  21.316  0.00  0.00    +0.000 NA
ATOM     26  C   UNL     1      -0.436  10.687  22.241  0.00  0.00    +0.000 A 
ATOM     27  C   UNL     1      -0.844  11.987  21.980  0.00  0.00    +0.000 A 
ATOM     28 CL   UNL     1      -1.522  12.963  23.218  0.00  0.00    +0.000 Cl
ATOM     29  C   UNL     1      -0.685  12.494  20.695  0.00  0.00    +0.000 A 
ATOM     30  C   UNL     1      -0.146  11.689  19.688  0.00  0.00    +0.000 A 
BRANCH  30  31
ATOM     31  N   UNL     1       0.143  12.281  18.445  0.00  0.00    +0.000 N 
ATOM     32  H   UNL     1       0.754  11.744  17.840  0.00  0.00    +0.000 HD
ATOM     33  H   UNL     1       0.452  13.258  18.549  0.00  0.00    +0.000 HD
ENDBRANCH  30  31
ENDBRANCH  21  24
ENDBRANCH   3  20
TORSDOF 5
ENDMDL
MODEL 7
REMARK VINA RESULT:      -8.1      2.743      4.018
REMARK  Name = 
REMARK  5 active torsions:
REMARK  status: ('A' for Active; 'I' for Inactive)
REMARK    1  A    between atoms: C_4  and  C_5
REMARK    2  A    between atoms: C_4  and  C_23
REMARK    3  A    between atoms: C_7  and  N_8
REMARK    4  A    between atoms: C_9  and  C_11
REMARK    5  A    between atoms: C_17  and  N_18
REMARK                            x       y       z     vdW  Elec       q    Type
REMARK                         _______ _______ _______ _____ _____    ______ ____
ROOT
ATOM      1  C   UNL     1       2.712   4.974  18.534  0.00  0.00    +0.000 A 
ATOM      2  C   UNL     1       2.092   6.064  19.185  0.00  0.00    +0.000 A 
ATOM      3  C   UNL     1       2.417   7.407  18.895  0.00  0.00    +0.000 A 
ATOM      4  C   UNL     1       3.362   7.667  17.908  0.00  0.00    +0.000 A 
ATOM      5  C   UNL     1       3.966   6.611  17.224  0.00  0.00    +0.000 A 
ATOM      6  C   UNL     1       3.628   5.292  17.524  0.00  0.00    +0.000 A 
ATOM      7  F   UNL     1       4.203   4.328  16.794  0.00  0.00    +0.000 F 
ENDROOT
BRANCH   1  11
ATOM      8  N   UNL     1       5.149   1.601  20.404  0.00  0.00    +0.000 N 
ATOM      9  C   UNL     1       3.999   2.334  20.297  0.00  0.00    +0.000 C 
ATOM     10  N   UNL     1       3.661   2.743  19.123  0.00  0.00    +0.000 NA
ATOM     11  C   UNL     1       2.395   3.516  18.937  0.00  0.00    +0.000 C 
ATOM     12  C   UNL     1       1.489   3.483  20.201  0.00  0.00    +0.000 C 
ATOM     13  O   UNL     1       2.220   3.639  21.421  0.00  0.00    +0.000 OA
ATOM     14  C   UNL     1       3.184   2.613  21.559  0.00  0.00    +0.000 C 
ATOM     15  H   UNL     1       5.747   1.712  19.589  0.00  0.00    +0.000 HD
ATOM     16  H   UNL     1       5.649   1.630  21.282  0.00  0.00    +0.000 HD
BRANCH  11  17
ATOM     17  C   UNL     1       1.605   2.762  17.820  0.00  0.00    +0.000 C 
ATOM     18  F   UNL     1       0.545   2.096  18.365  0.00  0.00    +0.000 F 
ATOM     19  F   UNL     1       2.376   1.818  17.219  0.00  0.00    +0.000 F 
ENDBRANCH  11  17
ENDBRANCH   1  11
BRANCH   3  20
ATOM     20  N   UNL     1       1.812   8.497  19.552  0.00  0.00    +0.000 N 
ATOM     21  C   UNL     1       1.020   9.477  18.974  0.00  0.00    +0.000 C 
ATOM     22  O   UNL     1       0.652   9.504  17.802  0.00  0.00    +0.000 OA
ATOM     23  H   UNL     1       1.893   8.552  20.561  0.00  0.00    +0.000 HD
BRANCH  21  24
ATOM     24  C   UNL     1       0.542  10.542  19.926  0.00  0.00    +0.000 A 
ATOM     25  N   UNL     1       0.117  10.096  21.148  0.00  0.00    +0.000 NA
ATOM     26  C   UNL     1      -0.315  11.048  22.010  0.00  0.00    +0.000 A 
ATOM     27  C   UNL     1      -0.358  12.403  21.714  0.00  0.00    +0.000 A 
ATOM     28 CL   UNL     1      -0.911  13.542  22.872  0.00  0.00    +0.000 Cl
ATOM     29  C   UNL     1       0.068  12.829  20.460  0.00  0.00    +0.000 A 
ATOM     30  C   UNL     1       0.504  11.896  19.516  0.00  0.00    +0.000 A 
BRANCH  30  31
ATOM     31  N   UNL     1       1.070  12.373  18.319  0.00  0.00    +0.000 N 
ATOM     32  H   UNL     1       1.164  13.380  18.255  0.00  0.00    +0.000 HD
ATOM     33  H   UNL     1       0.611  11.966  17.491  0.00  0.00    +0.000 HD
ENDBRANCH  30  31
ENDBRANCH  21  24
ENDBRANCH   3  20
TORSDOF 5
ENDMDL
MODEL 8
REMARK VINA RESULT:      -8.1      2.276      2.780
REMARK  Name = 
REMARK  5 active torsions:
REMARK  status: ('A' for Active; 'I' for Inactive)
REMARK    1  A    between atoms: C_4  and  C_5
REMARK    2  A    between atoms: C_4  and  C_23
REMARK    3  A    between atoms: C_7  and  N_8
REMARK    4  A    between atoms: C_9  and  C_11
REMARK    5  A    between atoms: C_17  and  N_18
REMARK                            x       y       z     vdW  Elec       q    Type
REMARK                         _______ _______ _______ _____ _____    ______ ____
ROOT
ATOM      1  C   UNL     1       4.721   5.024  18.826  0.00  0.00    +0.000 A 
ATOM      2  C   UNL     1       3.925   6.083  19.319  0.00  0.00    +0.000 A 
ATOM      3  C   UNL     1       2.763   5.864  20.091  0.00  0.00    +0.000 A 
ATOM      4  C   UNL     1       2.406   4.557  20.404  0.00  0.00    +0.000 A 
ATOM      5  C   UNL     1       3.192   3.493  19.960  0.00  0.00    +0.000 A 
ATOM      6  C   UNL     1       4.338   3.731  19.202  0.00  0.00    +0.000 A 
ATOM      7  F   UNL     1       5.078   2.671  18.855  0.00  0.00    +0.000 F 
ENDROOT
BRANCH   1  11
ATOM      8  N   UNL     1       6.055   3.432  14.765  0.00  0.00    +0.000 N 
ATOM      9  C   UNL     1       5.877   4.457  15.653  0.00  0.00    +0.000 C 
ATOM     10  N   UNL     1       6.079   4.206  16.900  0.00  0.00    +0.000 NA
ATOM     11  C   UNL     1       5.938   5.297  17.913  0.00  0.00    +0.000 C 
ATOM     12  C   UNL     1       5.827   6.703  17.259  0.00  0.00    +0.000 C 
ATOM     13  O   UNL     1       4.982   6.721  16.104  0.00  0.00    +0.000 OA
ATOM     14  C   UNL     1       5.466   5.828  15.119  0.00  0.00    +0.000 C 
ATOM     15  H   UNL     1       6.044   2.525  15.226  0.00  0.00    +0.000 HD
ATOM     16  H   UNL     1       5.527   3.454  13.903  0.00  0.00    +0.000 HD
BRANCH  11  17
ATOM     17  C   UNL     1       7.278   5.299  18.715  0.00  0.00    +0.000 C 
ATOM     18  F   UNL     1       7.875   6.524  18.626  0.00  0.00    +0.000 F 
ATOM     19  F   UNL     1       8.166   4.408  18.198  0.00  0.00    +0.000 F 
ENDBRANCH  11  17
ENDBRANCH   1  11
BRANCH   3  20
ATOM     20  N   UNL     1       1.958   6.916  20.571  0.00  0.00    +0.000 N 
ATOM     21  C   UNL     1       1.703   8.121  19.936  0.00  0.00    +0.000 C 
ATOM     22  O   UNL     1       2.077   8.431  18.807  0.00  0.00    +0.000 OA
ATOM     23  H   UNL     1       1.449   6.772  21.437  0.00  0.00    +0.000 HD
BRANCH  21  24
ATOM     24  C   UNL     1       0.832   9.071  20.715  0.00  0.00    +0.000 A 
ATOM     25  N   UNL     1       0.849   8.910  22.074  0.00  0.00    +0.000 NA
ATOM     26  C   UNL     1       0.066   9.761  22.782  0.00  0.00    +0.000 A 
ATOM     27  C   UNL     1      -0.731  10.742  22.211  0.00  0.00    +0.000 A 
ATOM     28 CL   UNL     1      -1.684  11.783  23.187  0.00  0.00    +0.000 Cl
ATOM     29  C   UNL     1      -0.740  10.876  20.826  0.00  0.00    +0.000 A 
ATOM     30  C   UNL     1       0.026  10.016  20.035  0.00  0.00    +0.000 A 
BRANCH  30  31
ATOM     31  N   UNL     1       0.113  10.278  18.656  0.00  0.00    +0.000 N 
ATOM     32  H   UNL     1      -0.696  10.007  18.110  0.00  0.00    +0.000 HD
ATOM     33  H   UNL     1       0.995   9.926  18.255  0.00  0.00    +0.000 HD
ENDBRANCH  30  31
ENDBRANCH  21  24
ENDBRANCH   3  20
TORSDOF 5
ENDMDL
MODEL 9
REMARK VINA RESULT:      -8.0      1.454      1.875
REMARK  Name = 
REMARK  5 active torsions:
REMARK  status: ('A' for Active; 'I' for Inactive)
REMARK    1  A    between atoms: C_4  and  C_5
REMARK    2  A    between atoms: C_4  and  C_23
REMARK    3  A    between atoms: C_7  and  N_8
REMARK    4  A    between atoms: C_9  and  C_11
REMARK    5  A    between atoms: C_17  and  N_18
REMARK                            x       y       z     vdW  Elec       q    Type
REMARK                         _______ _______ _______ _____ _____    ______ ____
ROOT
ATOM      1  C   UNL     1       4.409   5.884  17.416  0.00  0.00    +0.000 A 
ATOM      2  C   UNL     1       3.912   7.199  17.567  0.00  0.00    +0.000 A 
ATOM      3  C   UNL     1       2.554   7.471  17.843  0.00  0.00    +0.000 A 
ATOM      4  C   UNL     1       1.678   6.402  18.002  0.00  0.00    +0.000 A 
ATOM      5  C   UNL     1       2.147   5.093  17.893  0.00  0.00    +0.000 A 
ATOM      6  C   UNL     1       3.493   4.847  17.624  0.00  0.00    +0.000 A 
ATOM      7  F   UNL     1       3.889   3.568  17.586  0.00  0.00    +0.000 F 
ENDROOT
BRANCH   1  11
ATOM      8  N   UNL     1       8.226   8.372  17.646  0.00  0.00    +0.000 N 
ATOM      9  C   UNL     1       7.551   7.191  17.797  0.00  0.00    +0.000 C 
ATOM     10  N   UNL     1       6.627   6.920  16.941  0.00  0.00    +0.000 NA
ATOM     11  C   UNL     1       5.882   5.626  17.031  0.00  0.00    +0.000 C 
ATOM     12  C   UNL     1       6.542   4.630  18.026  0.00  0.00    +0.000 C 
ATOM     13  O   UNL     1       6.989   5.254  19.233  0.00  0.00    +0.000 OA
ATOM     14  C   UNL     1       7.937   6.266  18.950  0.00  0.00    +0.000 C 
ATOM     15  H   UNL     1       7.722   9.023  17.050  0.00  0.00    +0.000 HD
ATOM     16  H   UNL     1       8.620   8.801  18.473  0.00  0.00    +0.000 HD
BRANCH  11  17
ATOM     17  C   UNL     1       6.009   4.973  15.618  0.00  0.00    +0.000 C 
ATOM     18  F   UNL     1       7.274   5.143  15.135  0.00  0.00    +0.000 F 
ATOM     19  F   UNL     1       5.178   5.567  14.720  0.00  0.00    +0.000 F 
ENDBRANCH  11  17
ENDBRANCH   1  11
BRANCH   3  20
ATOM     20  N   UNL     1       2.052   8.780  17.979  0.00  0.00    +0.000 N 
ATOM     21  C   UNL     1       1.410   9.311  19.088  0.00  0.00    +0.000 C 
ATOM     22  O   UNL     1       1.250   8.742  20.165  0.00  0.00    +0.000 OA
ATOM     23  H   UNL     1       2.226   9.441  17.229  0.00  0.00    +0.000 HD
BRANCH  21  24
ATOM     24  C   UNL     1       0.948  10.735  18.926  0.00  0.00    +0.000 A 
ATOM     25  N   UNL     1       1.941  11.669  18.802  0.00  0.00    +0.000 NA
ATOM     26  C   UNL     1       1.533  12.954  18.657  0.00  0.00    +0.000 A 
ATOM     27  C   UNL     1       0.204  13.350  18.643  0.00  0.00    +0.000 A 
ATOM     28 CL   UNL     1      -0.222  15.000  18.444  0.00  0.00    +0.000 Cl
ATOM     29  C   UNL     1      -0.785  12.382  18.784  0.00  0.00    +0.000 A 
ATOM     30  C   UNL     1      -0.433  11.042  18.961  0.00  0.00    +0.000 A 
BRANCH  30  31
ATOM     31  N   UNL     1      -1.455  10.076  18.944  0.00  0.00    +0.000 N 
ATOM     32  H   UNL     1      -2.050  10.059  19.765  0.00  0.00    +0.000 HD
ATOM     33  H   UNL     1      -1.094   9.142  18.701  0.00  0.00    +0.000 HD
ENDBRANCH  30  31
ENDBRANCH  21  24
ENDBRANCH   3  20
TORSDOF 5
ENDMDL
