MODEL 1
REMARK VINA RESULT:      -6.6      0.000      0.000
REMARK  Name = 
REMARK  8 active torsions:
REMARK  status: ('A' for Active; 'I' for Inactive)
REMARK    1  A    between atoms: C_1  and  O_2
REMARK    2  A    between atoms: O_2  and  C_3
REMARK    3  A    between atoms: C_6  and  C_7
REMARK    4  A    between atoms: C_7  and  C_9
REMARK    5  A    between atoms: C_9  and  N_10
REMARK    6  A    between atoms: N_10  and  C_11
REMARK    7  A    between atoms: C_16  and  C_17
REMARK    8  A    between atoms: C_17  and  O_18
REMARK                            x       y       z     vdW  Elec       q    Type
REMARK                         _______ _______ _______ _____ _____    ______ ____
ROOT
ATOM      1  C   UNL     1       2.486   2.697  17.326  0.00  0.00    +0.000 C 
ENDROOT
BRANCH   1   2
ATOM      2  C   UNL     1       3.834   2.688  18.035  0.00  0.00    +0.000 C 
ATOM      3  O   UNL     1       4.101   1.878  18.921  0.00  0.00    +0.000 OA
BRANCH   2   7
ATOM      4  C   UNL     1       6.681   5.681  16.863  0.00  0.00    +0.000 A 
ATOM      5  C   UNL     1       6.509   5.373  18.217  0.00  0.00    +0.000 A 
ATOM      6  C   UNL     1       5.598   4.390  18.615  0.00  0.00    +0.000 A 
ATOM      7  C   UNL     1       4.837   3.721  17.655  0.00  0.00    +0.000 A 
ATOM      8  C   UNL     1       4.997   4.038  16.301  0.00  0.00    +0.000 A 
ATOM      9  C   UNL     1       5.925   5.009  15.907  0.00  0.00    +0.000 A 
BRANCH   4  11
ATOM     10  C   UNL     1       7.702   7.687  17.615  0.00  0.00    +0.000 C 
ATOM     11  O   UNL     1       7.579   6.683  16.614  0.00  0.00    +0.000 OA
ENDBRANCH   4  11
ENDBRANCH   2   7
ENDBRANCH   1   2
BRANCH   1  12
ATOM     12  N   UNL     1       1.450   3.330  18.160  0.00  0.00    +0.000 N 
ATOM     13  H   UNL     1       1.125   2.672  18.872  0.00  0.00    +0.000 HD
BRANCH  12  14
ATOM     14  C   UNL     1       1.777   4.583  18.724  0.00  0.00    +0.000 A 
ATOM     15  C   UNL     1       2.043   5.701  17.911  0.00  0.00    +0.000 A 
ATOM     16  C   UNL     1       2.311   6.961  18.452  0.00  0.00    +0.000 A 
ATOM     17  C   UNL     1       2.272   7.147  19.824  0.00  0.00    +0.000 A 
ATOM     18  C   UNL     1       1.951   6.074  20.652  0.00  0.00    +0.000 A 
ATOM     19  C   UNL     1       1.694   4.793  20.120  0.00  0.00    +0.000 A 
BRANCH  19  20
ATOM     20  C   UNL     1       1.369   3.683  21.094  0.00  0.00    +0.000 C 
BRANCH  20  21
ATOM     21  O   UNL     1       2.308   2.619  21.029  0.00  0.00    +0.000 OA
ATOM     22  H   UNL     1       2.035   2.037  20.297  0.00  0.00    +0.000 HD
ENDBRANCH  20  21
ENDBRANCH  19  20
ENDBRANCH  12  14
ENDBRANCH   1  12
TORSDOF 7
ENDMDL
MODEL 2
REMARK VINA RESULT:      -6.6      2.375      4.083
REMARK  Name = 
REMARK  8 active torsions:
REMARK  status: ('A' for Active; 'I' for Inactive)
REMARK    1  A    between atoms: C_1  and  O_2
REMARK    2  A    between atoms: O_2  and  C_3
REMARK    3  A    between atoms: C_6  and  C_7
REMARK    4  A    between atoms: C_7  and  C_9
REMARK    5  A    between atoms: C_9  and  N_10
REMARK    6  A    between atoms: N_10  and  C_11
REMARK    7  A    between atoms: C_16  and  C_17
REMARK    8  A    between atoms: C_17  and  O_18
REMARK                            x       y       z     vdW  Elec       q    Type
REMARK                         _______ _______ _______ _____ _____    ______ ____
ROOT
ATOM      1  C   UNL     1       4.992   3.943  17.229  0.00  0.00    +0.000 C 
ENDROOT
BRANCH   1   2
ATOM      2  C   UNL     1       5.156   4.952  18.357  0.00  0.00    +0.000 C 
ATOM      3  O   UNL     1       6.074   4.876  19.172  0.00  0.00    +0.000 OA
BRANCH   2   7
ATOM      4  C   UNL     1       2.248   8.098  18.631  0.00  0.00    +0.000 A 
ATOM      5  C   UNL     1       2.332   7.135  19.642  0.00  0.00    +0.000 A 
ATOM      6  C   UNL     1       3.283   6.113  19.577  0.00  0.00    +0.000 A 
ATOM      7  C   UNL     1       4.148   6.039  18.483  0.00  0.00    +0.000 A 
ATOM      8  C   UNL     1       4.056   6.994  17.464  0.00  0.00    +0.000 A 
ATOM      9  C   UNL     1       3.114   8.026  17.544  0.00  0.00    +0.000 A 
BRANCH   4  11
ATOM     10  C   UNL     1       0.887   9.317  20.145  0.00  0.00    +0.000 C 
ATOM     11  O   UNL     1       1.253   9.022  18.802  0.00  0.00    +0.000 OA
ENDBRANCH   4  11
ENDBRANCH   2   7
ENDBRANCH   1   2
BRANCH   1  12
ATOM     12  N   UNL     1       4.396   2.689  17.719  0.00  0.00    +0.000 N 
ATOM     13  H   UNL     1       5.099   2.140  18.218  0.00  0.00    +0.000 HD
BRANCH  12  14
ATOM     14  C   UNL     1       3.206   2.811  18.470  0.00  0.00    +0.000 A 
ATOM     15  C   UNL     1       1.975   3.090  17.846  0.00  0.00    +0.000 A 
ATOM     16  C   UNL     1       0.780   3.157  18.567  0.00  0.00    +0.000 A 
ATOM     17  C   UNL     1       0.777   2.898  19.927  0.00  0.00    +0.000 A 
ATOM     18  C   UNL     1       1.969   2.558  20.562  0.00  0.00    +0.000 A 
ATOM     19  C   UNL     1       3.186   2.503  19.850  0.00  0.00    +0.000 A 
BRANCH  19  20
ATOM     20  C   UNL     1       4.433   2.140  20.624  0.00  0.00    +0.000 C 
BRANCH  20  21
ATOM     21  O   UNL     1       5.236   1.193  19.934  0.00  0.00    +0.000 OA
ATOM     22  H   UNL     1       5.480   0.500  20.573  0.00  0.00    +0.000 HD
ENDBRANCH  20  21
ENDBRANCH  19  20
ENDBRANCH  12  14
ENDBRANCH   1  12
TORSDOF 7
ENDMDL
MODEL 3
REMARK VINA RESULT:      -6.5      2.223      3.704
REMARK  Name = 
REMARK  8 active torsions:
REMARK  status: ('A' for Active; 'I' for Inactive)
REMARK    1  A    between atoms: C_1  and  O_2
REMARK    2  A    between atoms: O_2  and  C_3
REMARK    3  A    between atoms: C_6  and  C_7
REMARK    4  A    between atoms: C_7  and  C_9
REMARK    5  A    between atoms: C_9  and  N_10
REMARK    6  A    between atoms: N_10  and  C_11
REMARK    7  A    between atoms: C_16  and  C_17
REMARK    8  A    between atoms: C_17  and  O_18
REMARK                            x       y       z     vdW  Elec       q    Type
REMARK                         _______ _______ _______ _____ _____    ______ ____
ROOT
ATOM      1  C   UNL     1       5.694   4.792  19.267  0.00  0.00    +0.000 C 
ENDROOT
BRANCH   1   2
ATOM      2  C   UNL     1       5.188   5.558  18.053  0.00  0.00    +0.000 C 
ATOM      3  O   UNL     1       4.419   6.512  18.157  0.00  0.00    +0.000 OA
BRANCH   2   7
ATOM      4  C   UNL     1       6.352   4.260  14.130  0.00  0.00    +0.000 A 
ATOM      5  C   UNL     1       7.282   4.896  14.959  0.00  0.00    +0.000 A 
ATOM      6  C   UNL     1       6.925   5.312  16.245  0.00  0.00    +0.000 A 
ATOM      7  C   UNL     1       5.622   5.107  16.703  0.00  0.00    +0.000 A 
ATOM      8  C   UNL     1       4.686   4.483  15.869  0.00  0.00    +0.000 A 
ATOM      9  C   UNL     1       5.055   4.053  14.589  0.00  0.00    +0.000 A 
BRANCH   4  11
ATOM     10  C   UNL     1       5.973   3.128  12.079  0.00  0.00    +0.000 C 
ATOM     11  O   UNL     1       6.822   3.935  12.887  0.00  0.00    +0.000 OA
ENDBRANCH   4  11
ENDBRANCH   2   7
ENDBRANCH   1   2
BRANCH   1  12
ATOM     12  N   UNL     1       5.054   3.469  19.366  0.00  0.00    +0.000 N 
ATOM     13  H   UNL     1       5.575   2.877  20.016  0.00  0.00    +0.000 HD
BRANCH  12  14
ATOM     14  C   UNL     1       3.671   3.461  19.652  0.00  0.00    +0.000 A 
ATOM     15  C   UNL     1       3.114   4.353  20.588  0.00  0.00    +0.000 A 
ATOM     16  C   UNL     1       1.741   4.397  20.840  0.00  0.00    +0.000 A 
ATOM     17  C   UNL     1       0.879   3.581  20.125  0.00  0.00    +0.000 A 
ATOM     18  C   UNL     1       1.393   2.732  19.149  0.00  0.00    +0.000 A 
ATOM     19  C   UNL     1       2.780   2.666  18.895  0.00  0.00    +0.000 A 
BRANCH  19  20
ATOM     20  C   UNL     1       3.250   1.704  17.827  0.00  0.00    +0.000 C 
BRANCH  20  21
ATOM     21  O   UNL     1       4.070   0.672  18.358  0.00  0.00    +0.000 OA
ATOM     22  H   UNL     1       4.949   0.763  17.951  0.00  0.00    +0.000 HD
ENDBRANCH  20  21
ENDBRANCH  19  20
ENDBRANCH  12  14
ENDBRANCH   1  12
TORSDOF 7
ENDMDL
MODEL 4
REMARK VINA RESULT:      -6.4      2.042      5.491
REMARK  Name = 
REMARK  8 active torsions:
REMARK  status: ('A' for Active; 'I' for Inactive)
REMARK    1  A    between atoms: C_1  and  O_2
REMARK    2  A    between atoms: O_2  and  C_3
REMARK    3  A    between atoms: C_6  and  C_7
REMARK    4  A    between atoms: C_7  and  C_9
REMARK    5  A    between atoms: C_9  and  N_10
REMARK    6  A    between atoms: N_10  and  C_11
REMARK    7  A    between atoms: C_16  and  C_17
REMARK    8  A    between atoms: C_17  and  O_18
REMARK                            x       y       z     vdW  Elec       q    Type
REMARK                         _______ _______ _______ _____ _____    ______ ____
ROOT
ATOM      1  C   UNL     1       4.040   2.949  18.034  0.00  0.00    +0.000 C 
ENDROOT
BRANCH   1   2
ATOM      2  C   UNL     1       2.680   3.614  17.864  0.00  0.00    +0.000 C 
ATOM      3  O   UNL     1       1.809   3.142  17.135  0.00  0.00    +0.000 OA
BRANCH   2   7
ATOM      4  C   UNL     1       1.948   7.255  20.018  0.00  0.00    +0.000 A 
ATOM      5  C   UNL     1       2.489   7.303  18.728  0.00  0.00    +0.000 A 
ATOM      6  C   UNL     1       2.719   6.128  18.007  0.00  0.00    +0.000 A 
ATOM      7  C   UNL     1       2.424   4.892  18.584  0.00  0.00    +0.000 A 
ATOM      8  C   UNL     1       1.896   4.841  19.879  0.00  0.00    +0.000 A 
ATOM      9  C   UNL     1       1.651   6.022  20.589  0.00  0.00    +0.000 A 
BRANCH   4  11
ATOM     10  C   UNL     1       0.766   8.581  21.591  0.00  0.00    +0.000 C 
ATOM     11  O   UNL     1       1.804   8.473  20.624  0.00  0.00    +0.000 OA
ENDBRANCH   4  11
ENDBRANCH   2   7
ENDBRANCH   1   2
BRANCH   1  12
ATOM     12  N   UNL     1       5.008   3.460  17.049  0.00  0.00    +0.000 N 
ATOM     13  H   UNL     1       4.528   3.699  16.180  0.00  0.00    +0.000 HD
BRANCH  12  14
ATOM     14  C   UNL     1       5.851   4.508  17.482  0.00  0.00    +0.000 A 
ATOM     15  C   UNL     1       6.116   4.714  18.849  0.00  0.00    +0.000 A 
ATOM     16  C   UNL     1       6.991   5.709  19.290  0.00  0.00    +0.000 A 
ATOM     17  C   UNL     1       7.665   6.495  18.369  0.00  0.00    +0.000 A 
ATOM     18  C   UNL     1       7.472   6.274  17.008  0.00  0.00    +0.000 A 
ATOM     19  C   UNL     1       6.578   5.283  16.549  0.00  0.00    +0.000 A 
BRANCH  19  20
ATOM     20  C   UNL     1       6.418   5.124  15.054  0.00  0.00    +0.000 C 
BRANCH  20  21
ATOM     21  O   UNL     1       7.623   5.399  14.354  0.00  0.00    +0.000 OA
ATOM     22  H   UNL     1       8.358   5.063  14.897  0.00  0.00    +0.000 HD
ENDBRANCH  20  21
ENDBRANCH  19  20
ENDBRANCH  12  14
ENDBRANCH   1  12
TORSDOF 7
ENDMDL
MODEL 5
REMARK VINA RESULT:      -6.4      1.618      2.237
REMARK  Name = 
REMARK  8 active torsions:
REMARK  status: ('A' for Active; 'I' for Inactive)
REMARK    1  A    between atoms: C_1  and  O_2
REMARK    2  A    between atoms: O_2  and  C_3
REMARK    3  A    between atoms: C_6  and  C_7
REMARK    4  A    between atoms: C_7  and  C_9
REMARK    5  A    between atoms: C_9  and  N_10
REMARK    6  A    between atoms: N_10  and  C_11
REMARK    7  A    between atoms: C_16  and  C_17
REMARK    8  A    between atoms: C_17  and  O_18
REMARK                            x       y       z     vdW  Elec       q    Type
REMARK                         _______ _______ _______ _____ _____    ______ ____
ROOT
ATOM      1  C   UNL     1       4.262   3.218  17.098  0.00  0.00    +0.000 C 
ENDROOT
BRANCH   1   2
ATOM      2  C   UNL     1       5.230   3.986  16.207  0.00  0.00    +0.000 C 
ATOM      3  O   UNL     1       5.340   3.749  15.006  0.00  0.00    +0.000 OA
BRANCH   2   7
ATOM      4  C   UNL     1       7.631   7.061  17.999  0.00  0.00    +0.000 A 
ATOM      5  C   UNL     1       7.879   5.718  18.299  0.00  0.00    +0.000 A 
ATOM      6  C   UNL     1       7.118   4.703  17.713  0.00  0.00    +0.000 A 
ATOM      7  C   UNL     1       6.086   5.032  16.832  0.00  0.00    +0.000 A 
ATOM      8  C   UNL     1       5.827   6.376  16.541  0.00  0.00    +0.000 A 
ATOM      9  C   UNL     1       6.605   7.387  17.117  0.00  0.00    +0.000 A 
BRANCH   4  11
ATOM     10  C   UNL     1       8.435   9.288  18.170  0.00  0.00    +0.000 C 
ATOM     11  O   UNL     1       8.427   7.953  18.665  0.00  0.00    +0.000 OA
ENDBRANCH   4  11
ENDBRANCH   2   7
ENDBRANCH   1   2
BRANCH   1  12
ATOM     12  N   UNL     1       2.930   3.845  17.101  0.00  0.00    +0.000 N 
ATOM     13  H   UNL     1       2.239   3.199  16.716  0.00  0.00    +0.000 HD
BRANCH  12  14
ATOM     14  C   UNL     1       2.498   4.395  18.328  0.00  0.00    +0.000 A 
ATOM     15  C   UNL     1       2.912   5.676  18.741  0.00  0.00    +0.000 A 
ATOM     16  C   UNL     1       2.448   6.257  19.923  0.00  0.00    +0.000 A 
ATOM     17  C   UNL     1       1.517   5.591  20.702  0.00  0.00    +0.000 A 
ATOM     18  C   UNL     1       1.041   4.349  20.289  0.00  0.00    +0.000 A 
ATOM     19  C   UNL     1       1.512   3.744  19.106  0.00  0.00    +0.000 A 
BRANCH  19  20
ATOM     20  C   UNL     1       0.951   2.387  18.743  0.00  0.00    +0.000 C 
BRANCH  20  21
ATOM     21  O   UNL     1       1.935   1.364  18.810  0.00  0.00    +0.000 OA
ATOM     22  H   UNL     1       1.534   0.553  18.450  0.00  0.00    +0.000 HD
ENDBRANCH  20  21
ENDBRANCH  19  20
ENDBRANCH  12  14
ENDBRANCH   1  12
TORSDOF 7
ENDMDL
MODEL 6
REMARK VINA RESULT:      -6.3      2.426      4.415
REMARK  Name = 
REMARK  8 active torsions:
REMARK  status: ('A' for Active; 'I' for Inactive)
REMARK    1  A    between atoms: C_1  and  O_2
REMARK    2  A    between atoms: O_2  and  C_3
REMARK    3  A    between atoms: C_6  and  C_7
REMARK    4  A    between atoms: C_7  and  C_9
REMARK    5  A    between atoms: C_9  and  N_10
REMARK    6  A    between atoms: N_10  and  C_11
REMARK    7  A    between atoms: C_16  and  C_17
REMARK    8  A    between atoms: C_17  and  O_18
REMARK                            x       y       z     vdW  Elec       q    Type
REMARK                         _______ _______ _______ _____ _____    ______ ____
ROOT
ATOM      1  C   UNL     1       4.816   4.464  17.160  0.00  0.00    +0.000 C 
ENDROOT
BRANCH   1   2
ATOM      2  C   UNL     1       4.914   5.442  18.323  0.00  0.00    +0.000 C 
ATOM      3  O   UNL     1       5.841   5.405  19.131  0.00  0.00    +0.000 OA
BRANCH   2   7
ATOM      4  C   UNL     1       1.791   8.331  18.902  0.00  0.00    +0.000 A 
ATOM      5  C   UNL     1       2.589   8.386  17.754  0.00  0.00    +0.000 A 
ATOM      6  C   UNL     1       3.600   7.444  17.542  0.00  0.00    +0.000 A 
ATOM      7  C   UNL     1       3.830   6.448  18.492  0.00  0.00    +0.000 A 
ATOM      8  C   UNL     1       3.042   6.400  19.648  0.00  0.00    +0.000 A 
ATOM      9  C   UNL     1       2.019   7.334  19.846  0.00  0.00    +0.000 A 
BRANCH   4  11
ATOM     10  C   UNL     1       0.909  10.125  20.180  0.00  0.00    +0.000 C 
ATOM     11  O   UNL     1       0.862   9.330  19.001  0.00  0.00    +0.000 OA
ENDBRANCH   4  11
ENDBRANCH   2   7
ENDBRANCH   1   2
BRANCH   1  12
ATOM     12  N   UNL     1       4.393   3.131  17.621  0.00  0.00    +0.000 N 
ATOM     13  H   UNL     1       5.164   2.670  18.109  0.00  0.00    +0.000 HD
BRANCH  12  14
ATOM     14  C   UNL     1       3.197   3.076  18.371  0.00  0.00    +0.000 A 
ATOM     15  C   UNL     1       1.948   3.317  17.771  0.00  0.00    +0.000 A 
ATOM     16  C   UNL     1       0.752   3.209  18.485  0.00  0.00    +0.000 A 
ATOM     17  C   UNL     1       0.771   2.809  19.811  0.00  0.00    +0.000 A 
ATOM     18  C   UNL     1       1.988   2.504  20.416  0.00  0.00    +0.000 A 
ATOM     19  C   UNL     1       3.204   2.623  19.711  0.00  0.00    +0.000 A 
BRANCH  19  20
ATOM     20  C   UNL     1       4.478   2.286  20.452  0.00  0.00    +0.000 C 
BRANCH  20  21
ATOM     21  O   UNL     1       5.181   1.208  19.848  0.00  0.00    +0.000 OA
ATOM     22  H   UNL     1       6.119   1.305  20.088  0.00  0.00    +0.000 HD
ENDBRANCH  20  21
ENDBRANCH  19  20
ENDBRANCH  12  14
ENDBRANCH   1  12
TORSDOF 7
ENDMDL
MODEL 7
REMARK VINA RESULT:      -6.3      2.395      5.235
REMARK  Name = 
REMARK  8 active torsions:
REMARK  status: ('A' for Active; 'I' for Inactive)
REMARK    1  A    between atoms: C_1  and  O_2
REMARK    2  A    between atoms: O_2  and  C_3
REMARK    3  A    between atoms: C_6  and  C_7
REMARK    4  A    between atoms: C_7  and  C_9
REMARK    5  A    between atoms: C_9  and  N_10
REMARK    6  A    between atoms: N_10  and  C_11
REMARK    7  A    between atoms: C_16  and  C_17
REMARK    8  A    between atoms: C_17  and  O_18
REMARK                            x       y       z     vdW  Elec       q    Type
REMARK                         _______ _______ _______ _____ _____    ______ ____
ROOT
ATOM      1  C   UNL     1       4.588   3.699  19.521  0.00  0.00    +0.000 C 
ENDROOT
BRANCH   1   2
ATOM      2  C   UNL     1       3.409   4.192  18.693  0.00  0.00    +0.000 C 
ATOM      3  O   UNL     1       2.913   3.513  17.794  0.00  0.00    +0.000 OA
BRANCH   2   7
ATOM      4  C   UNL     1       1.853   8.130  19.401  0.00  0.00    +0.000 A 
ATOM      5  C   UNL     1       1.721   7.140  20.381  0.00  0.00    +0.000 A 
ATOM      6  C   UNL     1       2.235   5.858  20.174  0.00  0.00    +0.000 A 
ATOM      7  C   UNL     1       2.872   5.552  18.969  0.00  0.00    +0.000 A 
ATOM      8  C   UNL     1       2.993   6.537  17.982  0.00  0.00    +0.000 A 
ATOM      9  C   UNL     1       2.492   7.825  18.203  0.00  0.00    +0.000 A 
BRANCH   4  11
ATOM     10  C   UNL     1       0.971  10.193  18.629  0.00  0.00    +0.000 C 
ATOM     11  O   UNL     1       1.278   9.330  19.718  0.00  0.00    +0.000 OA
ENDBRANCH   4  11
ENDBRANCH   2   7
ENDBRANCH   1   2
BRANCH   1  12
ATOM     12  N   UNL     1       5.808   3.600  18.702  0.00  0.00    +0.000 N 
ATOM     13  H   UNL     1       5.643   2.986  17.902  0.00  0.00    +0.000 HD
BRANCH  12  14
ATOM     14  C   UNL     1       6.399   4.821  18.306  0.00  0.00    +0.000 A 
ATOM     15  C   UNL     1       7.223   5.551  19.183  0.00  0.00    +0.000 A 
ATOM     16  C   UNL     1       7.861   6.729  18.787  0.00  0.00    +0.000 A 
ATOM     17  C   UNL     1       7.730   7.183  17.485  0.00  0.00    +0.000 A 
ATOM     18  C   UNL     1       6.972   6.449  16.577  0.00  0.00    +0.000 A 
ATOM     19  C   UNL     1       6.309   5.267  16.967  0.00  0.00    +0.000 A 
BRANCH  19  20
ATOM     20  C   UNL     1       5.495   4.543  15.918  0.00  0.00    +0.000 C 
BRANCH  20  21
ATOM     21  O   UNL     1       5.715   3.139  15.943  0.00  0.00    +0.000 OA
ATOM     22  H   UNL     1       5.072   2.735  15.334  0.00  0.00    +0.000 HD
ENDBRANCH  20  21
ENDBRANCH  19  20
ENDBRANCH  12  14
ENDBRANCH   1  12
TORSDOF 7
ENDMDL
MODEL 8
REMARK VINA RESULT:      -6.2      2.047      2.901
REMARK  Name = 
REMARK  8 active torsions:
REMARK  status: ('A' for Active; 'I' for Inactive)
REMARK    1  A    between atoms: C_1  and  O_2
REMARK    2  A    between atoms: O_2  and  C_3
REMARK    3  A    between atoms: C_6  and  C_7
REMARK    4  A    between atoms: C_7  and  C_9
REMARK    5  A    between atoms: C_9  and  N_10
REMARK    6  A    between atoms: N_10  and  C_11
REMARK    7  A    between atoms: C_16  and  C_17
REMARK    8  A    between atoms: C_17  and  O_18
REMARK                            x       y       z     vdW  Elec       q    Type
REMARK                         _______ _______ _______ _____ _____    ______ ____
ROOT
ATOM      1  C   UNL     1       4.445   3.288  17.081  0.00  0.00    +0.000 C 
ENDROOT
BRANCH   1   2
ATOM      2  C   UNL     1       5.539   3.967  16.268  0.00  0.00    +0.000 C 
ATOM      3  O   UNL     1       5.794   3.635  15.111  0.00  0.00    +0.000 OA
BRANCH   2   7
ATOM      4  C   UNL     1       7.782   7.129  18.113  0.00  0.00    +0.000 A 
ATOM      5  C   UNL     1       7.889   5.821  18.599  0.00  0.00    +0.000 A 
ATOM      6  C   UNL     1       7.178   4.777  18.001  0.00  0.00    +0.000 A 
ATOM      7  C   UNL     1       6.337   5.042  16.918  0.00  0.00    +0.000 A 
ATOM      8  C   UNL     1       6.218   6.352  16.439  0.00  0.00    +0.000 A 
ATOM      9  C   UNL     1       6.947   7.391  17.031  0.00  0.00    +0.000 A 
BRANCH   4  11
ATOM     10  C   UNL     1       8.516   9.380  18.279  0.00  0.00    +0.000 C 
ATOM     11  O   UNL     1       8.505   8.059  18.810  0.00  0.00    +0.000 OA
ENDBRANCH   4  11
ENDBRANCH   2   7
ENDBRANCH   1   2
BRANCH   1  12
ATOM     12  N   UNL     1       3.204   4.081  17.070  0.00  0.00    +0.000 N 
ATOM     13  H   UNL     1       2.660   3.865  16.232  0.00  0.00    +0.000 HD
BRANCH  12  14
ATOM     14  C   UNL     1       2.409   4.019  18.235  0.00  0.00    +0.000 A 
ATOM     15  C   UNL     1       1.550   2.929  18.475  0.00  0.00    +0.000 A 
ATOM     16  C   UNL     1       0.801   2.824  19.649  0.00  0.00    +0.000 A 
ATOM     17  C   UNL     1       0.927   3.784  20.639  0.00  0.00    +0.000 A 
ATOM     18  C   UNL     1       1.815   4.842  20.458  0.00  0.00    +0.000 A 
ATOM     19  C   UNL     1       2.566   4.969  19.270  0.00  0.00    +0.000 A 
BRANCH  19  20
ATOM     20  C   UNL     1       3.494   6.158  19.154  0.00  0.00    +0.000 C 
BRANCH  20  21
ATOM     21  O   UNL     1       3.163   6.990  18.051  0.00  0.00    +0.000 OA
ATOM     22  H   UNL     1       3.943   7.540  17.859  0.00  0.00    +0.000 HD
ENDBRANCH  20  21
ENDBRANCH  19  20
ENDBRANCH  12  14
ENDBRANCH   1  12
TORSDOF 7
ENDMDL
MODEL 9
REMARK VINA RESULT:      -6.2      2.358      3.934
REMARK  Name = 
REMARK  8 active torsions:
REMARK  status: ('A' for Active; 'I' for Inactive)
REMARK    1  A    between atoms: C_1  and  O_2
REMARK    2  A    between atoms: O_2  and  C_3
REMARK    3  A    between atoms: C_6  and  C_7
REMARK    4  A    between atoms: C_7  and  C_9
REMARK    5  A    between atoms: C_9  and  N_10
REMARK    6  A    between atoms: N_10  and  C_11
REMARK    7  A    between atoms: C_16  and  C_17
REMARK    8  A    between atoms: C_17  and  O_18
REMARK                            x       y       z     vdW  Elec       q    Type
REMARK                         _______ _______ _______ _____ _____    ______ ____
ROOT
ATOM      1  C   UNL     1       6.017   5.639  18.469  0.00  0.00    +0.000 C 
ENDROOT
BRANCH   1   2
ATOM      2  C   UNL     1       7.001   4.797  17.668  0.00  0.00    +0.000 C 
ATOM      3  O   UNL     1       8.018   4.325  18.173  0.00  0.00    +0.000 OA
BRANCH   2   7
ATOM      4  C   UNL     1       6.292   4.166  13.481  0.00  0.00    +0.000 A 
ATOM      5  C   UNL     1       5.426   3.608  14.427  0.00  0.00    +0.000 A 
ATOM      6  C   UNL     1       5.633   3.816  15.794  0.00  0.00    +0.000 A 
ATOM      7  C   UNL     1       6.725   4.573  16.222  0.00  0.00    +0.000 A 
ATOM      8  C   UNL     1       7.600   5.121  15.277  0.00  0.00    +0.000 A 
ATOM      9  C   UNL     1       7.377   4.925  13.910  0.00  0.00    +0.000 A 
BRANCH   4  11
ATOM     10  C   UNL     1       4.819   3.087  11.966  0.00  0.00    +0.000 C 
ATOM     11  O   UNL     1       5.995   3.858  12.181  0.00  0.00    +0.000 OA
ENDBRANCH   4  11
ENDBRANCH   2   7
ENDBRANCH   1   2
BRANCH   1  12
ATOM     12  N   UNL     1       5.213   4.801  19.374  0.00  0.00    +0.000 N 
ATOM     13  H   UNL     1       5.177   5.225  20.303  0.00  0.00    +0.000 HD
BRANCH  12  14
ATOM     14  C   UNL     1       3.925   4.441  18.918  0.00  0.00    +0.000 A 
ATOM     15  C   UNL     1       3.063   5.393  18.342  0.00  0.00    +0.000 A 
ATOM     16  C   UNL     1       1.809   5.044  17.835  0.00  0.00    +0.000 A 
ATOM     17  C   UNL     1       1.404   3.719  17.845  0.00  0.00    +0.000 A 
ATOM     18  C   UNL     1       2.260   2.745  18.352  0.00  0.00    +0.000 A 
ATOM     19  C   UNL     1       3.522   3.086  18.883  0.00  0.00    +0.000 A 
BRANCH  19  20
ATOM     20  C   UNL     1       4.379   1.965  19.426  0.00  0.00    +0.000 C 
BRANCH  20  21
ATOM     21  O   UNL     1       4.315   0.800  18.615  0.00  0.00    +0.000 OA
ATOM     22  H   UNL     1       4.220   1.095  17.692  0.00  0.00    +0.000 HD
ENDBRANCH  20  21
ENDBRANCH  19  20
ENDBRANCH  12  14
ENDBRANCH   1  12
TORSDOF 7
ENDMDL
