MODEL 1
REMARK VINA RESULT:      -8.2      0.000      0.000
REMARK  Name = 
REMARK  2 active torsions:
REMARK  status: ('A' for Active; 'I' for Inactive)
REMARK    1  A    between atoms: N_12  and  N_13
REMARK    2  A    between atoms: C_18  and  C_19
REMARK                            x       y       z     vdW  Elec       q    Type
REMARK                         _______ _______ _______ _____ _____    ______ ____
ROOT
ATOM      1  O   UNL     1       2.832   4.800  20.755  0.00  0.00    +0.000 OA
ATOM      2  C   UNL     1       2.275   5.773  20.293  0.00  0.00    +0.000 C 
ATOM      3  N   UNL     1       1.540   6.721  20.964  0.00  0.00    +0.000 N 
ATOM      4  C   UNL     1       1.480   7.889  20.216  0.00  0.00    +0.000 A 
ATOM      5  C   UNL     1       1.023   9.109  20.661  0.00  0.00    +0.000 A 
ATOM      6  C   UNL     1       1.248  10.211  19.833  0.00  0.00    +0.000 A 
ATOM      7  C   UNL     1       1.894  10.057  18.588  0.00  0.00    +0.000 A 
ATOM      8 CL   UNL     1       2.262  11.466  17.669  0.00  0.00    +0.000 Cl
ATOM      9  C   UNL     1       2.287   8.798  18.114  0.00  0.00    +0.000 A 
ATOM     10  C   UNL     1       2.073   7.733  18.958  0.00  0.00    +0.000 A 
ATOM     11  C   UNL     1       2.419   6.312  18.858  0.00  0.00    +0.000 C 
ATOM     12  N   UNL     1       2.753   5.676  17.778  0.00  0.00    +0.000 NA
ATOM     13  H   UNL     1       1.323   6.643  21.945  0.00  0.00    +0.000 HD
ENDROOT
BRANCH  12  14
ATOM     14  N   UNL     1       2.860   4.293  17.855  0.00  0.00    +0.000 N 
ATOM     15  C   UNL     1       1.748   3.437  17.913  0.00  0.00    +0.000 C 
ATOM     16  O   UNL     1       0.587   3.754  17.666  0.00  0.00    +0.000 OA
ATOM     17  C   UNL     1       2.140   2.077  18.450  0.00  0.00    +0.000 C 
ATOM     18  S   UNL     1       3.903   1.890  18.112  0.00  0.00    +0.000 S 
ATOM     19  C   UNL     1       4.167   3.678  18.001  0.00  0.00    +0.000 C 
BRANCH  19  20
ATOM     20  C   UNL     1       5.172   4.044  16.925  0.00  0.00    +0.000 A 
ATOM     21  C   UNL     1       4.900   3.895  15.551  0.00  0.00    +0.000 A 
ATOM     22  C   UNL     1       5.826   4.321  14.595  0.00  0.00    +0.000 A 
ATOM     23  C   UNL     1       7.031   4.877  15.005  0.00  0.00    +0.000 A 
ATOM     24  F   UNL     1       7.902   5.322  14.089  0.00  0.00    +0.000 F 
ATOM     25  C   UNL     1       7.345   4.988  16.353  0.00  0.00    +0.000 A 
ATOM     26  C   UNL     1       6.422   4.564  17.310  0.00  0.00    +0.000 A 
ENDBRANCH  19  20
ENDBRANCH  12  14
TORSDOF 2
ENDMDL
MODEL 2
REMARK VINA RESULT:      -8.1      2.730      4.103
REMARK  Name = 
REMARK  2 active torsions:
REMARK  status: ('A' for Active; 'I' for Inactive)
REMARK    1  A    between atoms: N_12  and  N_13
REMARK    2  A    between atoms: C_18  and  C_19
REMARK                            x       y       z     vdW  Elec       q    Type
REMARK                         _______ _______ _______ _____ _____    ______ ____
ROOT
ATOM      1  O   UNL     1       5.304   5.397  19.399  0.00  0.00    +0.000 OA
ATOM      2  C   UNL     1       4.207   5.903  19.295  0.00  0.00    +0.000 C 
ATOM      3  N   UNL     1       3.234   6.012  20.260  0.00  0.00    +0.000 N 
ATOM      4  C   UNL     1       2.357   7.038  19.933  0.00  0.00    +0.000 A 
ATOM      5  C   UNL     1       1.400   7.576  20.764  0.00  0.00    +0.000 A 
ATOM      6  C   UNL     1       0.768   8.743  20.330  0.00  0.00    +0.000 A 
ATOM      7  C   UNL     1       1.091   9.317  19.082  0.00  0.00    +0.000 A 
ATOM      8 CL   UNL     1       0.378  10.826  18.658  0.00  0.00    +0.000 Cl
ATOM      9  C   UNL     1       2.014   8.718  18.214  0.00  0.00    +0.000 A 
ATOM     10  C   UNL     1       2.637   7.580  18.674  0.00  0.00    +0.000 A 
ATOM     11  C   UNL     1       3.697   6.741  18.109  0.00  0.00    +0.000 C 
ATOM     12  N   UNL     1       4.084   6.722  16.871  0.00  0.00    +0.000 NA
ATOM     13  H   UNL     1       3.324   5.587  21.170  0.00  0.00    +0.000 HD
ENDROOT
BRANCH  12  14
ATOM     14  N   UNL     1       4.972   5.722  16.493  0.00  0.00    +0.000 N 
ATOM     15  C   UNL     1       6.360   5.919  16.402  0.00  0.00    +0.000 C 
ATOM     16  O   UNL     1       6.978   6.877  16.860  0.00  0.00    +0.000 OA
ATOM     17  C   UNL     1       7.003   4.849  15.547  0.00  0.00    +0.000 C 
ATOM     18  S   UNL     1       5.897   3.423  15.606  0.00  0.00    +0.000 S 
ATOM     19  C   UNL     1       4.465   4.435  16.053  0.00  0.00    +0.000 C 
BRANCH  19  20
ATOM     20  C   UNL     1       3.552   3.734  17.041  0.00  0.00    +0.000 A 
ATOM     21  C   UNL     1       3.999   2.694  17.880  0.00  0.00    +0.000 A 
ATOM     22  C   UNL     1       3.142   2.132  18.831  0.00  0.00    +0.000 A 
ATOM     23  C   UNL     1       1.836   2.590  18.934  0.00  0.00    +0.000 A 
ATOM     24  F   UNL     1       1.026   2.079  19.872  0.00  0.00    +0.000 F 
ATOM     25  C   UNL     1       1.355   3.578  18.085  0.00  0.00    +0.000 A 
ATOM     26  C   UNL     1       2.208   4.141  17.135  0.00  0.00    +0.000 A 
ENDBRANCH  19  20
ENDBRANCH  12  14
TORSDOF 2
ENDMDL
MODEL 3
REMARK VINA RESULT:      -8.0      3.434      5.907
REMARK  Name = 
REMARK  2 active torsions:
REMARK  status: ('A' for Active; 'I' for Inactive)
REMARK    1  A    between atoms: N_12  and  N_13
REMARK    2  A    between atoms: C_18  and  C_19
REMARK                            x       y       z     vdW  Elec       q    Type
REMARK                         _______ _______ _______ _____ _____    ______ ____
ROOT
ATOM      1  O   UNL     1       5.883   4.575  19.940  0.00  0.00    +0.000 OA
ATOM      2  C   UNL     1       5.735   4.781  18.755  0.00  0.00    +0.000 C 
ATOM      3  N   UNL     1       6.383   5.708  17.973  0.00  0.00    +0.000 N 
ATOM      4  C   UNL     1       6.313   5.333  16.639  0.00  0.00    +0.000 A 
ATOM      5  C   UNL     1       7.028   5.893  15.604  0.00  0.00    +0.000 A 
ATOM      6  C   UNL     1       6.985   5.235  14.374  0.00  0.00    +0.000 A 
ATOM      7  C   UNL     1       6.217   4.063  14.210  0.00  0.00    +0.000 A 
ATOM      8 CL   UNL     1       6.306   3.221  12.710  0.00  0.00    +0.000 Cl
ATOM      9  C   UNL     1       5.434   3.545  15.250  0.00  0.00    +0.000 A 
ATOM     10  C   UNL     1       5.511   4.200  16.458  0.00  0.00    +0.000 A 
ATOM     11  C   UNL     1       4.925   3.917  17.771  0.00  0.00    +0.000 C 
ATOM     12  N   UNL     1       3.932   3.119  18.014  0.00  0.00    +0.000 NA
ATOM     13  H   UNL     1       7.020   6.388  18.357  0.00  0.00    +0.000 HD
ENDROOT
BRANCH  12  14
ATOM     14  N   UNL     1       3.400   3.130  19.297  0.00  0.00    +0.000 N 
ATOM     15  C   UNL     1       3.913   2.355  20.350  0.00  0.00    +0.000 C 
ATOM     16  O   UNL     1       4.998   1.778  20.351  0.00  0.00    +0.000 OA
ATOM     17  C   UNL     1       2.894   2.207  21.459  0.00  0.00    +0.000 C 
ATOM     18  S   UNL     1       1.781   3.620  21.314  0.00  0.00    +0.000 S 
ATOM     19  C   UNL     1       2.186   3.879  19.569  0.00  0.00    +0.000 C 
BRANCH  19  20
ATOM     20  C   UNL     1       2.245   5.350  19.205  0.00  0.00    +0.000 A 
ATOM     21  C   UNL     1       2.346   5.798  17.873  0.00  0.00    +0.000 A 
ATOM     22  C   UNL     1       2.316   7.165  17.580  0.00  0.00    +0.000 A 
ATOM     23  C   UNL     1       2.205   8.086  18.613  0.00  0.00    +0.000 A 
ATOM     24  F   UNL     1       2.137   9.394  18.330  0.00  0.00    +0.000 F 
ATOM     25  C   UNL     1       2.155   7.673  19.938  0.00  0.00    +0.000 A 
ATOM     26  C   UNL     1       2.185   6.309  20.233  0.00  0.00    +0.000 A 
ENDBRANCH  19  20
ENDBRANCH  12  14
TORSDOF 2
ENDMDL
MODEL 4
REMARK VINA RESULT:      -6.5      5.509      8.569
REMARK  Name = 
REMARK  2 active torsions:
REMARK  status: ('A' for Active; 'I' for Inactive)
REMARK    1  A    between atoms: N_12  and  N_13
REMARK    2  A    between atoms: C_18  and  C_19
REMARK                            x       y       z     vdW  Elec       q    Type
REMARK                         _______ _______ _______ _____ _____    ______ ____
ROOT
ATOM      1  O   UNL     1       1.616  12.139  18.660  0.00  0.00    +0.000 OA
ATOM      2  C   UNL     1       1.475  10.936  18.636  0.00  0.00    +0.000 C 
ATOM      3  N   UNL     1       1.901  10.056  17.668  0.00  0.00    +0.000 N 
ATOM      4  C   UNL     1       1.992   8.777  18.199  0.00  0.00    +0.000 A 
ATOM      5  C   UNL     1       2.588   7.693  17.594  0.00  0.00    +0.000 A 
ATOM      6  C   UNL     1       2.773   6.553  18.377  0.00  0.00    +0.000 A 
ATOM      7  C   UNL     1       2.337   6.521  19.720  0.00  0.00    +0.000 A 
ATOM      8 CL   UNL     1       2.709   5.138  20.676  0.00  0.00    +0.000 Cl
ATOM      9  C   UNL     1       1.665   7.605  20.300  0.00  0.00    +0.000 A 
ATOM     10  C   UNL     1       1.516   8.724  19.514  0.00  0.00    +0.000 A 
ATOM     11  C   UNL     1       0.961  10.053  19.787  0.00  0.00    +0.000 C 
ATOM     12  N   UNL     1       0.194  10.376  20.782  0.00  0.00    +0.000 NA
ATOM     13  H   UNL     1       2.325  10.364  16.807  0.00  0.00    +0.000 HD
ENDROOT
BRANCH  12  14
ATOM     14  N   UNL     1      -0.382  11.640  20.763  0.00  0.00    +0.000 N 
ATOM     15  C   UNL     1       0.252  12.783  21.275  0.00  0.00    +0.000 C 
ATOM     16  O   UNL     1       1.441  12.870  21.570  0.00  0.00    +0.000 OA
ATOM     17  C   UNL     1      -0.752  13.884  21.544  0.00  0.00    +0.000 C 
ATOM     18  S   UNL     1      -2.161  13.558  20.463  0.00  0.00    +0.000 S 
ATOM     19  C   UNL     1      -1.750  11.802  20.303  0.00  0.00    +0.000 C 
BRANCH  19  20
ATOM     20  C   UNL     1      -2.025  11.273  18.908  0.00  0.00    +0.000 A 
ATOM     21  C   UNL     1      -2.550   9.987  18.674  0.00  0.00    +0.000 A 
ATOM     22  C   UNL     1      -2.863   9.574  17.376  0.00  0.00    +0.000 A 
ATOM     23  C   UNL     1      -2.634  10.431  16.308  0.00  0.00    +0.000 A 
ATOM     24  F   UNL     1      -2.970  10.050  15.068  0.00  0.00    +0.000 F 
ATOM     25  C   UNL     1      -2.070  11.685  16.506  0.00  0.00    +0.000 A 
ATOM     26  C   UNL     1      -1.758  12.100  17.801  0.00  0.00    +0.000 A 
ENDBRANCH  19  20
ENDBRANCH  12  14
TORSDOF 2
ENDMDL
MODEL 5
REMARK VINA RESULT:      -6.4      5.083      8.098
REMARK  Name = 
REMARK  2 active torsions:
REMARK  status: ('A' for Active; 'I' for Inactive)
REMARK    1  A    between atoms: N_12  and  N_13
REMARK    2  A    between atoms: C_18  and  C_19
REMARK                            x       y       z     vdW  Elec       q    Type
REMARK                         _______ _______ _______ _____ _____    ______ ____
ROOT
ATOM      1  O   UNL     1      -0.435   8.651  21.209  0.00  0.00    +0.000 OA
ATOM      2  C   UNL     1       0.657   8.411  20.741  0.00  0.00    +0.000 C 
ATOM      3  N   UNL     1       1.500   7.372  21.057  0.00  0.00    +0.000 N 
ATOM      4  C   UNL     1       2.394   7.155  20.017  0.00  0.00    +0.000 A 
ATOM      5  C   UNL     1       3.230   6.070  19.885  0.00  0.00    +0.000 A 
ATOM      6  C   UNL     1       3.891   5.924  18.664  0.00  0.00    +0.000 A 
ATOM      7  C   UNL     1       3.718   6.871  17.632  0.00  0.00    +0.000 A 
ATOM      8 CL   UNL     1       4.453   6.570  16.104  0.00  0.00    +0.000 Cl
ATOM      9  C   UNL     1       2.922   8.010  17.807  0.00  0.00    +0.000 A 
ATOM     10  C   UNL     1       2.264   8.119  19.011  0.00  0.00    +0.000 A 
ATOM     11  C   UNL     1       1.298   9.096  19.521  0.00  0.00    +0.000 C 
ATOM     12  N   UNL     1       1.070  10.277  19.035  0.00  0.00    +0.000 NA
ATOM     13  H   UNL     1       1.303   6.724  21.804  0.00  0.00    +0.000 HD
ENDROOT
BRANCH  12  14
ATOM     14  N   UNL     1       0.253  11.125  19.771  0.00  0.00    +0.000 N 
ATOM     15  C   UNL     1       0.747  12.174  20.564  0.00  0.00    +0.000 C 
ATOM     16  O   UNL     1       1.890  12.623  20.526  0.00  0.00    +0.000 OA
ATOM     17  C   UNL     1      -0.282  12.613  21.584  0.00  0.00    +0.000 C 
ATOM     18  S   UNL     1      -1.891  12.144  20.911  0.00  0.00    +0.000 S 
ATOM     19  C   UNL     1      -1.176  10.874  19.838  0.00  0.00    +0.000 C 
BRANCH  19  20
ATOM     20  C   UNL     1      -1.876  10.796  18.495  0.00  0.00    +0.000 A 
ATOM     21  C   UNL     1      -1.492   9.885  17.491  0.00  0.00    +0.000 A 
ATOM     22  C   UNL     1      -2.219   9.794  16.300  0.00  0.00    +0.000 A 
ATOM     23  C   UNL     1      -3.315  10.622  16.099  0.00  0.00    +0.000 A 
ATOM     24  F   UNL     1      -4.036  10.508  14.975  0.00  0.00    +0.000 F 
ATOM     25  C   UNL     1      -3.684  11.563  17.051  0.00  0.00    +0.000 A 
ATOM     26  C   UNL     1      -2.961  11.656  18.241  0.00  0.00    +0.000 A 
ENDBRANCH  19  20
ENDBRANCH  12  14
TORSDOF 2
ENDMDL
MODEL 6
REMARK VINA RESULT:      -6.4      1.709      1.857
REMARK  Name = 
REMARK  2 active torsions:
REMARK  status: ('A' for Active; 'I' for Inactive)
REMARK    1  A    between atoms: N_12  and  N_13
REMARK    2  A    between atoms: C_18  and  C_19
REMARK                            x       y       z     vdW  Elec       q    Type
REMARK                         _______ _______ _______ _____ _____    ______ ____
ROOT
ATOM      1  O   UNL     1       2.588   5.465  21.183  0.00  0.00    +0.000 OA
ATOM      2  C   UNL     1       1.867   6.364  20.806  0.00  0.00    +0.000 C 
ATOM      3  N   UNL     1       0.964   7.089  21.547  0.00  0.00    +0.000 N 
ATOM      4  C   UNL     1       0.699   8.298  20.919  0.00  0.00    +0.000 A 
ATOM      5  C   UNL     1       0.022   9.362  21.472  0.00  0.00    +0.000 A 
ATOM      6  C   UNL     1       0.050  10.566  20.765  0.00  0.00    +0.000 A 
ATOM      7  C   UNL     1       0.724  10.661  19.529  0.00  0.00    +0.000 A 
ATOM      8 CL   UNL     1       0.836  12.202  18.767  0.00  0.00    +0.000 Cl
ATOM      9  C   UNL     1       1.345   9.550  18.943  0.00  0.00    +0.000 A 
ATOM     10  C   UNL     1       1.322   8.382  19.669  0.00  0.00    +0.000 A 
ATOM     11  C   UNL     1       1.922   7.066  19.437  0.00  0.00    +0.000 C 
ATOM     12  N   UNL     1       2.378   6.617  18.308  0.00  0.00    +0.000 NA
ATOM     13  H   UNL     1       0.756   6.871  22.510  0.00  0.00    +0.000 HD
ENDROOT
BRANCH  12  14
ATOM     14  N   UNL     1       2.735   5.276  18.249  0.00  0.00    +0.000 N 
ATOM     15  C   UNL     1       1.882   4.272  17.761  0.00  0.00    +0.000 C 
ATOM     16  O   UNL     1       0.851   4.459  17.120  0.00  0.00    +0.000 OA
ATOM     17  C   UNL     1       2.327   2.905  18.236  0.00  0.00    +0.000 C 
ATOM     18  S   UNL     1       4.091   3.046  18.595  0.00  0.00    +0.000 S 
ATOM     19  C   UNL     1       3.998   4.840  18.818  0.00  0.00    +0.000 C 
BRANCH  19  20
ATOM     20  C   UNL     1       5.224   5.550  18.276  0.00  0.00    +0.000 A 
ATOM     21  C   UNL     1       5.213   6.262  17.061  0.00  0.00    +0.000 A 
ATOM     22  C   UNL     1       6.344   6.968  16.642  0.00  0.00    +0.000 A 
ATOM     23  C   UNL     1       7.493   6.949  17.421  0.00  0.00    +0.000 A 
ATOM     24  F   UNL     1       8.565   7.657  17.040  0.00  0.00    +0.000 F 
ATOM     25  C   UNL     1       7.547   6.213  18.598  0.00  0.00    +0.000 A 
ATOM     26  C   UNL     1       6.419   5.508  19.018  0.00  0.00    +0.000 A 
ENDBRANCH  19  20
ENDBRANCH  12  14
TORSDOF 2
ENDMDL
MODEL 7
REMARK VINA RESULT:      -6.2      9.144     12.302
REMARK  Name = 
REMARK  2 active torsions:
REMARK  status: ('A' for Active; 'I' for Inactive)
REMARK    1  A    between atoms: N_12  and  N_13
REMARK    2  A    between atoms: C_18  and  C_19
REMARK                            x       y       z     vdW  Elec       q    Type
REMARK                         _______ _______ _______ _____ _____    ______ ____
ROOT
ATOM      1  O   UNL     1      -6.209  13.278  17.952  0.00  0.00    +0.000 OA
ATOM      2  C   UNL     1      -5.453  12.331  17.921  0.00  0.00    +0.000 C 
ATOM      3  N   UNL     1      -5.209  11.482  16.868  0.00  0.00    +0.000 N 
ATOM      4  C   UNL     1      -3.981  10.857  17.040  0.00  0.00    +0.000 A 
ATOM      5  C   UNL     1      -3.313  10.117  16.090  0.00  0.00    +0.000 A 
ATOM      6  C   UNL     1      -1.995   9.757  16.379  0.00  0.00    +0.000 A 
ATOM      7  C   UNL     1      -1.401  10.121  17.607  0.00  0.00    +0.000 A 
ATOM      8 CL   UNL     1       0.266   9.764  17.854  0.00  0.00    +0.000 Cl
ATOM      9  C   UNL     1      -2.117  10.809  18.594  0.00  0.00    +0.000 A 
ATOM     10  C   UNL     1      -3.406  11.171  18.276  0.00  0.00    +0.000 A 
ATOM     11  C   UNL     1      -4.414  11.956  18.993  0.00  0.00    +0.000 C 
ATOM     12  N   UNL     1      -4.410  12.240  20.259  0.00  0.00    +0.000 NA
ATOM     13  H   UNL     1      -5.725  11.530  16.003  0.00  0.00    +0.000 HD
ENDROOT
BRANCH  12  14
ATOM     14  N   UNL     1      -5.550  12.833  20.786  0.00  0.00    +0.000 N 
ATOM     15  C   UNL     1      -6.756  12.141  20.986  0.00  0.00    +0.000 C 
ATOM     16  O   UNL     1      -6.894  10.921  20.959  0.00  0.00    +0.000 OA
ATOM     17  C   UNL     1      -7.917  13.104  21.119  0.00  0.00    +0.000 C 
ATOM     18  S   UNL     1      -7.213  14.669  21.679  0.00  0.00    +0.000 S 
ATOM     19  C   UNL     1      -5.566  14.261  21.047  0.00  0.00    +0.000 C 
BRANCH  19  20
ATOM     20  C   UNL     1      -4.461  14.759  21.960  0.00  0.00    +0.000 A 
ATOM     21  C   UNL     1      -3.481  15.677  21.534  0.00  0.00    +0.000 A 
ATOM     22  C   UNL     1      -2.531  16.169  22.434  0.00  0.00    +0.000 A 
ATOM     23  C   UNL     1      -2.543  15.732  23.752  0.00  0.00    +0.000 A 
ATOM     24  F   UNL     1      -1.657  16.233  24.624  0.00  0.00    +0.000 F 
ATOM     25  C   UNL     1      -3.466  14.790  24.185  0.00  0.00    +0.000 A 
ATOM     26  C   UNL     1      -4.416  14.298  23.289  0.00  0.00    +0.000 A 
ENDBRANCH  19  20
ENDBRANCH  12  14
TORSDOF 2
ENDMDL
MODEL 8
REMARK VINA RESULT:      -6.2      7.739      9.847
REMARK  Name = 
REMARK  2 active torsions:
REMARK  status: ('A' for Active; 'I' for Inactive)
REMARK    1  A    between atoms: N_12  and  N_13
REMARK    2  A    between atoms: C_18  and  C_19
REMARK                            x       y       z     vdW  Elec       q    Type
REMARK                         _______ _______ _______ _____ _____    ______ ____
ROOT
ATOM      1  O   UNL     1       0.449  13.639  21.922  0.00  0.00    +0.000 OA
ATOM      2  C   UNL     1      -0.532  13.762  22.624  0.00  0.00    +0.000 C 
ATOM      3  N   UNL     1      -0.721  14.646  23.660  0.00  0.00    +0.000 N 
ATOM      4  C   UNL     1      -2.078  14.820  23.891  0.00  0.00    +0.000 A 
ATOM      5  C   UNL     1      -2.642  15.787  24.693  0.00  0.00    +0.000 A 
ATOM      6  C   UNL     1      -4.028  15.939  24.623  0.00  0.00    +0.000 A 
ATOM      7  C   UNL     1      -4.803  15.111  23.782  0.00  0.00    +0.000 A 
ATOM      8 CL   UNL     1      -6.489  15.430  23.637  0.00  0.00    +0.000 Cl
ATOM      9  C   UNL     1      -4.224  14.083  23.028  0.00  0.00    +0.000 A 
ATOM     10  C   UNL     1      -2.855  13.969  23.098  0.00  0.00    +0.000 A 
ATOM     11  C   UNL     1      -1.902  13.097  22.405  0.00  0.00    +0.000 C 
ATOM     12  N   UNL     1      -2.184  12.002  21.768  0.00  0.00    +0.000 NA
ATOM     13  H   UNL     1       0.013  15.252  23.995  0.00  0.00    +0.000 HD
ENDROOT
BRANCH  12  14
ATOM     14  N   UNL     1      -1.121  11.218  21.340  0.00  0.00    +0.000 N 
ATOM     15  C   UNL     1      -0.387  10.380  22.196  0.00  0.00    +0.000 C 
ATOM     16  O   UNL     1      -0.720  10.049  23.332  0.00  0.00    +0.000 OA
ATOM     17  C   UNL     1       0.953  10.025  21.589  0.00  0.00    +0.000 C 
ATOM     18  S   UNL     1       0.761  10.204  19.803  0.00  0.00    +0.000 S 
ATOM     19  C   UNL     1      -0.645  11.332  19.973  0.00  0.00    +0.000 C 
BRANCH  19  20
ATOM     20  C   UNL     1      -1.698  11.102  18.906  0.00  0.00    +0.000 A 
ATOM     21  C   UNL     1      -2.893  11.845  18.847  0.00  0.00    +0.000 A 
ATOM     22  C   UNL     1      -3.797  11.654  17.799  0.00  0.00    +0.000 A 
ATOM     23  C   UNL     1      -3.522  10.708  16.819  0.00  0.00    +0.000 A 
ATOM     24  F   UNL     1      -4.369  10.552  15.793  0.00  0.00    +0.000 F 
ATOM     25  C   UNL     1      -2.376   9.927  16.881  0.00  0.00    +0.000 A 
ATOM     26  C   UNL     1      -1.472  10.116  17.927  0.00  0.00    +0.000 A 
ENDBRANCH  19  20
ENDBRANCH  12  14
TORSDOF 2
ENDMDL
MODEL 9
REMARK VINA RESULT:      -6.1      3.590      4.890
REMARK  Name = 
REMARK  2 active torsions:
REMARK  status: ('A' for Active; 'I' for Inactive)
REMARK    1  A    between atoms: N_12  and  N_13
REMARK    2  A    between atoms: C_18  and  C_19
REMARK                            x       y       z     vdW  Elec       q    Type
REMARK                         _______ _______ _______ _____ _____    ______ ____
ROOT
ATOM      1  O   UNL     1       4.103   7.423  18.295  0.00  0.00    +0.000 OA
ATOM      2  C   UNL     1       3.698   6.447  18.890  0.00  0.00    +0.000 C 
ATOM      3  N   UNL     1       2.643   6.372  19.768  0.00  0.00    +0.000 N 
ATOM      4  C   UNL     1       2.196   5.061  19.859  0.00  0.00    +0.000 A 
ATOM      5  C   UNL     1       1.031   4.646  20.463  0.00  0.00    +0.000 A 
ATOM      6  C   UNL     1       0.649   3.319  20.259  0.00  0.00    +0.000 A 
ATOM      7  C   UNL     1       1.447   2.450  19.486  0.00  0.00    +0.000 A 
ATOM      8 CL   UNL     1       0.861   0.864  19.159  0.00  0.00    +0.000 Cl
ATOM      9  C   UNL     1       2.668   2.865  18.939  0.00  0.00    +0.000 A 
ATOM     10  C   UNL     1       3.011   4.182  19.137  0.00  0.00    +0.000 A 
ATOM     11  C   UNL     1       4.136   4.990  18.658  0.00  0.00    +0.000 C 
ATOM     12  N   UNL     1       5.250   4.542  18.166  0.00  0.00    +0.000 NA
ATOM     13  H   UNL     1       2.132   7.187  20.070  0.00  0.00    +0.000 HD
ENDROOT
BRANCH  12  14
ATOM     14  N   UNL     1       6.268   5.460  17.944  0.00  0.00    +0.000 N 
ATOM     15  C   UNL     1       7.221   5.804  18.917  0.00  0.00    +0.000 C 
ATOM     16  O   UNL     1       7.430   5.191  19.962  0.00  0.00    +0.000 OA
ATOM     17  C   UNL     1       7.890   7.119  18.579  0.00  0.00    +0.000 C 
ATOM     18  S   UNL     1       7.732   7.321  16.792  0.00  0.00    +0.000 S 
ATOM     19  C   UNL     1       6.310   6.204  16.698  0.00  0.00    +0.000 C 
BRANCH  19  20
ATOM     20  C   UNL     1       6.331   5.353  15.443  0.00  0.00    +0.000 A 
ATOM     21  C   UNL     1       5.240   4.554  15.050  0.00  0.00    +0.000 A 
ATOM     22  C   UNL     1       5.274   3.849  13.844  0.00  0.00    +0.000 A 
ATOM     23  C   UNL     1       6.402   3.922  13.038  0.00  0.00    +0.000 A 
ATOM     24  F   UNL     1       6.421   3.278  11.863  0.00  0.00    +0.000 F 
ATOM     25  C   UNL     1       7.512   4.661  13.426  0.00  0.00    +0.000 A 
ATOM     26  C   UNL     1       7.480   5.366  14.629  0.00  0.00    +0.000 A 
ENDBRANCH  19  20
ENDBRANCH  12  14
TORSDOF 2
ENDMDL
