MODEL 1
REMARK VINA RESULT:      -8.1      0.000      0.000
REMARK  Name = 
REMARK  3 active torsions:
REMARK  status: ('A' for Active; 'I' for Inactive)
REMARK    1  A    between atoms: C_2  and  C_3
REMARK    2  A    between atoms: C_2  and  C_15
REMARK    3  A    between atoms: C_20  and  C_22
REMARK                            x       y       z     vdW  Elec       q    Type
REMARK                         _______ _______ _______ _____ _____    ______ ____
ROOT
ATOM      1  C   UNL     1      -0.292  10.007  19.600  0.00  0.00    +0.000 C 
ATOM      2  C   UNL     1      -1.212  10.380  18.419  0.00  0.00    +0.000 C 
ATOM      3  C   UNL     1      -1.144  11.840  17.932  0.00  0.00    +0.000 C 
ATOM      4  C   UNL     1      -0.954  12.864  19.051  0.00  0.00    +0.000 C 
ATOM      5  N   UNL     1       0.095  12.427  19.962  0.00  0.00    +0.000 N 
ATOM      6  C   UNL     1       1.332  13.033  20.214  0.00  0.00    +0.000 C 
ATOM      7  O   UNL     1       2.063  12.662  21.133  0.00  0.00    +0.000 OA
ATOM      8  C   UNL     1      -0.201  11.152  20.616  0.00  0.00    +0.000 C 
ENDROOT
BRANCH   6   9
ATOM      9  C   UNL     1       1.819  14.189  19.410  0.00  0.00    +0.000 A 
ATOM     10  C   UNL     1       1.391  15.472  19.772  0.00  0.00    +0.000 A 
ATOM     11  C   UNL     1       1.841  16.590  19.059  0.00  0.00    +0.000 A 
ATOM     12  N   UNL     1       2.703  16.457  17.987  0.00  0.00    +0.000 N 
ATOM     13  O   UNL     1       3.074  17.467  17.319  0.00  0.00    +0.000 OA
ATOM     14  C   UNL     1       3.162  15.192  17.669  0.00  0.00    +0.000 A 
ATOM     15  C   UNL     1       2.762  14.068  18.395  0.00  0.00    +0.000 A 
ENDBRANCH   6   9
BRANCH   1  17
ATOM     16  O   UNL     1       1.801  10.251  18.403  0.00  0.00    +0.000 OA
ATOM     17  C   UNL     1       1.109   9.566  19.155  0.00  0.00    +0.000 C 
BRANCH  17  18
ATOM     18  C   UNL     1       1.638   8.233  19.592  0.00  0.00    +0.000 A 
ATOM     19  C   UNL     1       1.103   7.636  20.755  0.00  0.00    +0.000 A 
ATOM     20  C   UNL     1       1.410   6.309  21.124  0.00  0.00    +0.000 A 
ATOM     21  C   UNL     1       2.239   5.604  20.257  0.00  0.00    +0.000 A 
ATOM     22  C   UNL     1       2.767   6.197  19.130  0.00  0.00    +0.000 A 
ATOM     23  C   UNL     1       3.534   5.303  18.406  0.00  0.00    +0.000 A 
ATOM     24  C   UNL     1       4.196   5.690  17.252  0.00  0.00    +0.000 A 
ATOM     25  C   UNL     1       4.072   7.041  16.893  0.00  0.00    +0.000 A 
ATOM     26  C   UNL     1       3.261   7.936  17.625  0.00  0.00    +0.000 A 
ATOM     27  C   UNL     1       2.544   7.504  18.768  0.00  0.00    +0.000 A 
ATOM     28  C   UNL     1       3.515   3.957  19.047  0.00  0.00    +0.000 C 
ATOM     29  C   UNL     1       2.696   4.182  20.358  0.00  0.00    +0.000 C 
ENDBRANCH  17  18
ENDBRANCH   1  17
TORSDOF 3
ENDMDL
MODEL 2
REMARK VINA RESULT:      -8.1      0.962      2.220
REMARK  Name = 
REMARK  3 active torsions:
REMARK  status: ('A' for Active; 'I' for Inactive)
REMARK    1  A    between atoms: C_2  and  C_3
REMARK    2  A    between atoms: C_2  and  C_15
REMARK    3  A    between atoms: C_20  and  C_22
REMARK                            x       y       z     vdW  Elec       q    Type
REMARK                         _______ _______ _______ _____ _____    ______ ____
ROOT
ATOM      1  C   UNL     1      -0.724  10.197  20.447  0.00  0.00    +0.000 C 
ATOM      2  C   UNL     1      -1.180  10.116  18.974  0.00  0.00    +0.000 C 
ATOM      3  C   UNL     1      -0.974  11.382  18.122  0.00  0.00    +0.000 C 
ATOM      4  C   UNL     1      -1.208  12.689  18.879  0.00  0.00    +0.000 C 
ATOM      5  N   UNL     1      -0.536  12.653  20.171  0.00  0.00    +0.000 N 
ATOM      6  C   UNL     1       0.523  13.452  20.620  0.00  0.00    +0.000 C 
ATOM      7  O   UNL     1       0.893  13.440  21.795  0.00  0.00    +0.000 OA
ATOM      8  C   UNL     1      -1.017  11.580  21.043  0.00  0.00    +0.000 C 
ENDROOT
BRANCH   6   9
ATOM      9  C   UNL     1       1.238  14.393  19.712  0.00  0.00    +0.000 A 
ATOM     10  C   UNL     1       0.869  15.743  19.738  0.00  0.00    +0.000 A 
ATOM     11  C   UNL     1       1.528  16.667  18.919  0.00  0.00    +0.000 A 
ATOM     12  N   UNL     1       2.544  16.274  18.068  0.00  0.00    +0.000 N 
ATOM     13  O   UNL     1       3.110  17.106  17.299  0.00  0.00    +0.000 OA
ATOM     14  C   UNL     1       2.937  14.949  18.087  0.00  0.00    +0.000 A 
ATOM     15  C   UNL     1       2.324  14.018  18.929  0.00  0.00    +0.000 A 
ENDBRANCH   6   9
BRANCH   1  17
ATOM     16  O   UNL     1       1.402  10.215  21.610  0.00  0.00    +0.000 OA
ATOM     17  C   UNL     1       0.753   9.827  20.641  0.00  0.00    +0.000 C 
BRANCH  17  18
ATOM     18  C   UNL     1       1.455   9.020  19.591  0.00  0.00    +0.000 A 
ATOM     19  C   UNL     1       1.942   9.677  18.439  0.00  0.00    +0.000 A 
ATOM     20  C   UNL     1       2.773   9.027  17.501  0.00  0.00    +0.000 A 
ATOM     21  C   UNL     1       3.123   7.713  17.794  0.00  0.00    +0.000 A 
ATOM     22  C   UNL     1       2.635   7.074  18.914  0.00  0.00    +0.000 A 
ATOM     23  C   UNL     1       3.137   5.790  19.017  0.00  0.00    +0.000 A 
ATOM     24  C   UNL     1       2.753   4.946  20.047  0.00  0.00    +0.000 A 
ATOM     25  C   UNL     1       1.803   5.459  20.945  0.00  0.00    +0.000 A 
ATOM     26  C   UNL     1       1.322   6.783  20.844  0.00  0.00    +0.000 A 
ATOM     27  C   UNL     1       1.774   7.649  19.818  0.00  0.00    +0.000 A 
ATOM     28  C   UNL     1       4.088   5.508  17.905  0.00  0.00    +0.000 C 
ATOM     29  C   UNL     1       4.018   6.795  17.021  0.00  0.00    +0.000 C 
ENDBRANCH  17  18
ENDBRANCH   1  17
TORSDOF 3
ENDMDL
MODEL 3
REMARK VINA RESULT:      -8.1      2.994      4.675
REMARK  Name = 
REMARK  3 active torsions:
REMARK  status: ('A' for Active; 'I' for Inactive)
REMARK    1  A    between atoms: C_2  and  C_3
REMARK    2  A    between atoms: C_2  and  C_15
REMARK    3  A    between atoms: C_20  and  C_22
REMARK                            x       y       z     vdW  Elec       q    Type
REMARK                         _______ _______ _______ _____ _____    ______ ____
ROOT
ATOM      1  C   UNL     1       0.981   9.599  21.848  0.00  0.00    +0.000 C 
ATOM      2  C   UNL     1       0.209   9.633  23.185  0.00  0.00    +0.000 C 
ATOM      3  C   UNL     1      -1.053  10.515  23.225  0.00  0.00    +0.000 C 
ATOM      4  C   UNL     1      -0.934  11.813  22.427  0.00  0.00    +0.000 C 
ATOM      5  N   UNL     1      -0.362  11.548  21.113  0.00  0.00    +0.000 N 
ATOM      6  C   UNL     1      -0.961  11.707  19.858  0.00  0.00    +0.000 C 
ATOM      7  O   UNL     1      -0.317  11.611  18.813  0.00  0.00    +0.000 OA
ATOM      8  C   UNL     1       0.984  10.976  21.174  0.00  0.00    +0.000 C 
ENDROOT
BRANCH   6   9
ATOM      9  C   UNL     1      -2.407  12.040  19.714  0.00  0.00    +0.000 A 
ATOM     10  C   UNL     1      -2.959  12.974  20.599  0.00  0.00    +0.000 A 
ATOM     11  C   UNL     1      -4.307  13.336  20.486  0.00  0.00    +0.000 A 
ATOM     12  N   UNL     1      -5.120  12.780  19.516  0.00  0.00    +0.000 N 
ATOM     13  O   UNL     1      -6.349  13.079  19.445  0.00  0.00    +0.000 OA
ATOM     14  C   UNL     1      -4.554  11.898  18.614  0.00  0.00    +0.000 A 
ATOM     15  C   UNL     1      -3.200  11.558  18.679  0.00  0.00    +0.000 A 
ENDBRANCH   6   9
BRANCH   1  17
ATOM     16  O   UNL     1      -0.647   8.009  21.014  0.00  0.00    +0.000 OA
ATOM     17  C   UNL     1       0.461   8.526  20.882  0.00  0.00    +0.000 C 
BRANCH  17  18
ATOM     18  C   UNL     1       1.347   8.037  19.775  0.00  0.00    +0.000 A 
ATOM     19  C   UNL     1       1.665   8.919  18.718  0.00  0.00    +0.000 A 
ATOM     20  C   UNL     1       2.635   8.601  17.744  0.00  0.00    +0.000 A 
ATOM     21  C   UNL     1       3.294   7.386  17.904  0.00  0.00    +0.000 A 
ATOM     22  C   UNL     1       2.970   6.525  18.931  0.00  0.00    +0.000 A 
ATOM     23  C   UNL     1       3.770   5.397  18.910  0.00  0.00    +0.000 A 
ATOM     24  C   UNL     1       3.598   4.374  19.830  0.00  0.00    +0.000 A 
ATOM     25  C   UNL     1       2.546   4.537  20.745  0.00  0.00    +0.000 A 
ATOM     26  C   UNL     1       1.756   5.708  20.773  0.00  0.00    +0.000 A 
ATOM     27  C   UNL     1       1.989   6.768  19.863  0.00  0.00    +0.000 A 
ATOM     28  C   UNL     1       4.768   5.483  17.807  0.00  0.00    +0.000 C 
ATOM     29  C   UNL     1       4.391   6.806  17.067  0.00  0.00    +0.000 C 
ENDBRANCH  17  18
ENDBRANCH   1  17
TORSDOF 3
ENDMDL
MODEL 4
REMARK VINA RESULT:      -7.8      3.081      4.385
REMARK  Name = 
REMARK  3 active torsions:
REMARK  status: ('A' for Active; 'I' for Inactive)
REMARK    1  A    between atoms: C_2  and  C_3
REMARK    2  A    between atoms: C_2  and  C_15
REMARK    3  A    between atoms: C_20  and  C_22
REMARK                            x       y       z     vdW  Elec       q    Type
REMARK                         _______ _______ _______ _____ _____    ______ ____
ROOT
ATOM      1  C   UNL     1       1.872   8.609  20.939  0.00  0.00    +0.000 C 
ATOM      2  C   UNL     1       0.850   8.022  21.936  0.00  0.00    +0.000 C 
ATOM      3  C   UNL     1      -0.595   8.542  21.823  0.00  0.00    +0.000 C 
ATOM      4  C   UNL     1      -0.699  10.027  21.473  0.00  0.00    +0.000 C 
ATOM      5  N   UNL     1       0.203  10.351  20.375  0.00  0.00    +0.000 N 
ATOM      6  C   UNL     1      -0.123  10.791  19.087  0.00  0.00    +0.000 C 
ATOM      7  O   UNL     1       0.734  11.196  18.302  0.00  0.00    +0.000 OA
ATOM      8  C   UNL     1       1.610  10.099  20.689  0.00  0.00    +0.000 C 
ENDROOT
BRANCH   6   9
ATOM      9  C   UNL     1      -1.533  10.832  18.603  0.00  0.00    +0.000 A 
ATOM     10  C   UNL     1      -2.375  11.830  19.110  0.00  0.00    +0.000 A 
ATOM     11  C   UNL     1      -3.700  11.921  18.667  0.00  0.00    +0.000 A 
ATOM     12  N   UNL     1      -4.208  11.034  17.737  0.00  0.00    +0.000 N 
ATOM     13  O   UNL     1      -5.419  11.095  17.370  0.00  0.00    +0.000 OA
ATOM     14  C   UNL     1      -3.355  10.085  17.203  0.00  0.00    +0.000 A 
ATOM     15  C   UNL     1      -2.017  10.005  17.596  0.00  0.00    +0.000 A 
ENDBRANCH   6   9
BRANCH   1  17
ATOM     16  O   UNL     1       1.760   8.395  18.528  0.00  0.00    +0.000 OA
ATOM     17  C   UNL     1       1.927   7.840  19.612  0.00  0.00    +0.000 C 
BRANCH  17  18
ATOM     18  C   UNL     1       2.128   6.354  19.627  0.00  0.00    +0.000 A 
ATOM     19  C   UNL     1       1.339   5.569  20.497  0.00  0.00    +0.000 A 
ATOM     20  C   UNL     1       1.334   4.160  20.436  0.00  0.00    +0.000 A 
ATOM     21  C   UNL     1       2.119   3.582  19.443  0.00  0.00    +0.000 A 
ATOM     22  C   UNL     1       2.895   4.354  18.604  0.00  0.00    +0.000 A 
ATOM     23  C   UNL     1       3.565   3.573  17.681  0.00  0.00    +0.000 A 
ATOM     24  C   UNL     1       4.435   4.132  16.759  0.00  0.00    +0.000 A 
ATOM     25  C   UNL     1       4.622   5.521  16.849  0.00  0.00    +0.000 A 
ATOM     26  C   UNL     1       3.908   6.310  17.778  0.00  0.00    +0.000 A 
ATOM     27  C   UNL     1       2.977   5.725  18.671  0.00  0.00    +0.000 A 
ATOM     28  C   UNL     1       3.203   2.137  17.849  0.00  0.00    +0.000 C 
ATOM     29  C   UNL     1       2.276   2.132  19.107  0.00  0.00    +0.000 C 
ENDBRANCH  17  18
ENDBRANCH   1  17
TORSDOF 3
ENDMDL
MODEL 5
REMARK VINA RESULT:      -7.8      2.831      4.634
REMARK  Name = 
REMARK  3 active torsions:
REMARK  status: ('A' for Active; 'I' for Inactive)
REMARK    1  A    between atoms: C_2  and  C_3
REMARK    2  A    between atoms: C_2  and  C_15
REMARK    3  A    between atoms: C_20  and  C_22
REMARK                            x       y       z     vdW  Elec       q    Type
REMARK                         _______ _______ _______ _____ _____    ______ ____
ROOT
ATOM      1  C   UNL     1       1.050   9.904  21.487  0.00  0.00    +0.000 C 
ATOM      2  C   UNL     1       0.320   9.617  22.817  0.00  0.00    +0.000 C 
ATOM      3  C   UNL     1      -0.928  10.470  23.111  0.00  0.00    +0.000 C 
ATOM      4  C   UNL     1      -0.816  11.923  22.647  0.00  0.00    +0.000 C 
ATOM      5  N   UNL     1      -0.288  11.980  21.291  0.00  0.00    +0.000 N 
ATOM      6  C   UNL     1      -0.923  12.443  20.132  0.00  0.00    +0.000 C 
ATOM      7  O   UNL     1      -0.312  12.599  19.074  0.00  0.00    +0.000 OA
ATOM      8  C   UNL     1       1.052  11.403  21.167  0.00  0.00    +0.000 C 
ENDROOT
BRANCH   6   9
ATOM      9  C   UNL     1      -2.367  12.809  20.121  0.00  0.00    +0.000 A 
ATOM     10  C   UNL     1      -3.243  12.021  19.364  0.00  0.00    +0.000 A 
ATOM     11  C   UNL     1      -4.611  12.314  19.342  0.00  0.00    +0.000 A 
ATOM     12  N   UNL     1      -5.127  13.381  20.052  0.00  0.00    +0.000 N 
ATOM     13  O   UNL     1      -6.360  13.667  19.996  0.00  0.00    +0.000 OA
ATOM     14  C   UNL     1      -4.265  14.123  20.838  0.00  0.00    +0.000 A 
ATOM     15  C   UNL     1      -2.903  13.821  20.911  0.00  0.00    +0.000 A 
ENDBRANCH   6   9
BRANCH   1  17
ATOM     16  O   UNL     1      -0.722   8.965  20.127  0.00  0.00    +0.000 OA
ATOM     17  C   UNL     1       0.487   9.100  20.307  0.00  0.00    +0.000 C 
BRANCH  17  18
ATOM     18  C   UNL     1       1.428   8.399  19.374  0.00  0.00    +0.000 A 
ATOM     19  C   UNL     1       1.935   9.107  18.261  0.00  0.00    +0.000 A 
ATOM     20  C   UNL     1       2.963   8.585  17.448  0.00  0.00    +0.000 A 
ATOM     21  C   UNL     1       3.482   7.351  17.825  0.00  0.00    +0.000 A 
ATOM     22  C   UNL     1       2.974   6.660  18.906  0.00  0.00    +0.000 A 
ATOM     23  C   UNL     1       3.659   5.477  19.111  0.00  0.00    +0.000 A 
ATOM     24  C   UNL     1       3.297   4.600  20.122  0.00  0.00    +0.000 A 
ATOM     25  C   UNL     1       2.179   4.968  20.887  0.00  0.00    +0.000 A 
ATOM     26  C   UNL     1       1.508   6.194  20.684  0.00  0.00    +0.000 A 
ATOM     27  C   UNL     1       1.932   7.104  19.685  0.00  0.00    +0.000 A 
ATOM     28  C   UNL     1       4.768   5.335  18.125  0.00  0.00    +0.000 C 
ATOM     29  C   UNL     1       4.596   6.577  17.193  0.00  0.00    +0.000 C 
ENDBRANCH  17  18
ENDBRANCH   1  17
TORSDOF 3
ENDMDL
MODEL 6
REMARK VINA RESULT:      -7.7      4.494      8.659
REMARK  Name = 
REMARK  3 active torsions:
REMARK  status: ('A' for Active; 'I' for Inactive)
REMARK    1  A    between atoms: C_2  and  C_3
REMARK    2  A    between atoms: C_2  and  C_15
REMARK    3  A    between atoms: C_20  and  C_22
REMARK                            x       y       z     vdW  Elec       q    Type
REMARK                         _______ _______ _______ _____ _____    ______ ____
ROOT
ATOM      1  C   UNL     1       1.270  12.473  19.703  0.00  0.00    +0.000 C 
ATOM      2  C   UNL     1       0.417  12.613  18.423  0.00  0.00    +0.000 C 
ATOM      3  C   UNL     1      -1.111  12.580  18.611  0.00  0.00    +0.000 C 
ATOM      4  C   UNL     1      -1.587  11.611  19.693  0.00  0.00    +0.000 C 
ATOM      5  N   UNL     1      -0.782  11.764  20.898  0.00  0.00    +0.000 N 
ATOM      6  C   UNL     1      -1.190  12.204  22.163  0.00  0.00    +0.000 C 
ATOM      7  O   UNL     1      -0.452  12.128  23.146  0.00  0.00    +0.000 OA
ATOM      8  C   UNL     1       0.638  11.479  20.684  0.00  0.00    +0.000 C 
ENDROOT
BRANCH   6   9
ATOM      9  C   UNL     1      -2.554  12.753  22.401  0.00  0.00    +0.000 A 
ATOM     10  C   UNL     1      -3.263  12.296  23.520  0.00  0.00    +0.000 A 
ATOM     11  C   UNL     1      -4.539  12.802  23.797  0.00  0.00    +0.000 A 
ATOM     12  N   UNL     1      -5.129  13.746  22.978  0.00  0.00    +0.000 N 
ATOM     13  O   UNL     1      -6.300  14.169  23.210  0.00  0.00    +0.000 OA
ATOM     14  C   UNL     1      -4.402  14.230  21.906  0.00  0.00    +0.000 A 
ATOM     15  C   UNL     1      -3.109  13.774  21.638  0.00  0.00    +0.000 A 
ENDBRANCH   6   9
BRANCH   1  17
ATOM     16  O   UNL     1       1.676  13.909  21.612  0.00  0.00    +0.000 OA
ATOM     17  C   UNL     1       1.542  13.817  20.393  0.00  0.00    +0.000 C 
BRANCH  17  18
ATOM     18  C   UNL     1       1.583  15.073  19.576  0.00  0.00    +0.000 A 
ATOM     19  C   UNL     1       2.726  15.334  18.787  0.00  0.00    +0.000 A 
ATOM     20  C   UNL     1       2.765  16.390  17.852  0.00  0.00    +0.000 A 
ATOM     21  C   UNL     1       1.599  17.138  17.717  0.00  0.00    +0.000 A 
ATOM     22  C   UNL     1       0.491  16.885  18.499  0.00  0.00    +0.000 A 
ATOM     23  C   UNL     1      -0.554  17.729  18.174  0.00  0.00    +0.000 A 
ATOM     24  C   UNL     1      -1.759  17.680  18.857  0.00  0.00    +0.000 A 
ATOM     25  C   UNL     1      -1.833  16.759  19.914  0.00  0.00    +0.000 A 
ATOM     26  C   UNL     1      -0.767  15.883  20.215  0.00  0.00    +0.000 A 
ATOM     27  C   UNL     1       0.434  15.907  19.465  0.00  0.00    +0.000 A 
ATOM     28  C   UNL     1      -0.174  18.623  17.044  0.00  0.00    +0.000 C 
ATOM     29  C   UNL     1       1.327  18.276  16.785  0.00  0.00    +0.000 C 
ENDBRANCH  17  18
ENDBRANCH   1  17
TORSDOF 3
ENDMDL
MODEL 7
REMARK VINA RESULT:      -7.7      3.154      4.857
REMARK  Name = 
REMARK  3 active torsions:
REMARK  status: ('A' for Active; 'I' for Inactive)
REMARK    1  A    between atoms: C_2  and  C_3
REMARK    2  A    between atoms: C_2  and  C_15
REMARK    3  A    between atoms: C_20  and  C_22
REMARK                            x       y       z     vdW  Elec       q    Type
REMARK                         _______ _______ _______ _____ _____    ______ ____
ROOT
ATOM      1  C   UNL     1       1.437   9.119  21.578  0.00  0.00    +0.000 C 
ATOM      2  C   UNL     1       0.607   9.454  22.836  0.00  0.00    +0.000 C 
ATOM      3  C   UNL     1      -0.659  10.302  22.616  0.00  0.00    +0.000 C 
ATOM      4  C   UNL     1      -0.511  11.379  21.541  0.00  0.00    +0.000 C 
ATOM      5  N   UNL     1       0.120  10.822  20.352  0.00  0.00    +0.000 N 
ATOM      6  C   UNL     1      -0.424  10.674  19.070  0.00  0.00    +0.000 C 
ATOM      7  O   UNL     1       0.266  10.346  18.105  0.00  0.00    +0.000 OA
ATOM      8  C   UNL     1       1.465  10.301  20.601  0.00  0.00    +0.000 C 
ENDROOT
BRANCH   6   9
ATOM      9  C   UNL     1      -1.864  10.943  18.792  0.00  0.00    +0.000 A 
ATOM     10  C   UNL     1      -2.559  10.038  17.981  0.00  0.00    +0.000 A 
ATOM     11  C   UNL     1      -3.918  10.238  17.712  0.00  0.00    +0.000 A 
ATOM     12  N   UNL     1      -4.599  11.326  18.226  0.00  0.00    +0.000 N 
ATOM     13  O   UNL     1      -5.818  11.525  17.945  0.00  0.00    +0.000 OA
ATOM     14  C   UNL     1      -3.918  12.186  19.068  0.00  0.00    +0.000 A 
ATOM     15  C   UNL     1      -2.574  11.980  19.387  0.00  0.00    +0.000 A 
ENDBRANCH   6   9
BRANCH   1  17
ATOM     16  O   UNL     1      -0.089   7.283  21.165  0.00  0.00    +0.000 OA
ATOM     17  C   UNL     1       0.966   7.842  20.870  0.00  0.00    +0.000 C 
BRANCH  17  18
ATOM     18  C   UNL     1       1.839   7.210  19.828  0.00  0.00    +0.000 A 
ATOM     19  C   UNL     1       2.337   8.013  18.778  0.00  0.00    +0.000 A 
ATOM     20  C   UNL     1       3.309   7.541  17.871  0.00  0.00    +0.000 A 
ATOM     21  C   UNL     1       3.784   6.252  18.091  0.00  0.00    +0.000 A 
ATOM     22  C   UNL     1       3.284   5.469  19.111  0.00  0.00    +0.000 A 
ATOM     23  C   UNL     1       3.921   4.243  19.158  0.00  0.00    +0.000 A 
ATOM     24  C   UNL     1       3.556   3.276  20.081  0.00  0.00    +0.000 A 
ATOM     25  C   UNL     1       2.484   3.604  20.927  0.00  0.00    +0.000 A 
ATOM     26  C   UNL     1       1.864   4.872  20.888  0.00  0.00    +0.000 A 
ATOM     27  C   UNL     1       2.293   5.868  19.976  0.00  0.00    +0.000 A 
ATOM     28  C   UNL     1       4.984   4.164  18.117  0.00  0.00    +0.000 C 
ATOM     29  C   UNL     1       4.837   5.507  17.333  0.00  0.00    +0.000 C 
ENDBRANCH  17  18
ENDBRANCH   1  17
TORSDOF 3
ENDMDL
MODEL 8
REMARK VINA RESULT:      -7.6      2.758      4.578
REMARK  Name = 
REMARK  3 active torsions:
REMARK  status: ('A' for Active; 'I' for Inactive)
REMARK    1  A    between atoms: C_2  and  C_3
REMARK    2  A    between atoms: C_2  and  C_15
REMARK    3  A    between atoms: C_20  and  C_22
REMARK                            x       y       z     vdW  Elec       q    Type
REMARK                         _______ _______ _______ _____ _____    ______ ____
ROOT
ATOM      1  C   UNL     1       1.548   9.435  20.884  0.00  0.00    +0.000 C 
ATOM      2  C   UNL     1       0.718   8.776  22.007  0.00  0.00    +0.000 C 
ATOM      3  C   UNL     1      -0.654   9.409  22.307  0.00  0.00    +0.000 C 
ATOM      4  C   UNL     1      -0.678  10.933  22.191  0.00  0.00    +0.000 C 
ATOM      5  N   UNL     1      -0.014  11.357  20.965  0.00  0.00    +0.000 N 
ATOM      6  C   UNL     1      -0.572  12.010  19.858  0.00  0.00    +0.000 C 
ATOM      7  O   UNL     1       0.127  12.468  18.954  0.00  0.00    +0.000 OA
ATOM      8  C   UNL     1       1.393  10.960  20.902  0.00  0.00    +0.000 C 
ENDROOT
BRANCH   6   9
ATOM      9  C   UNL     1      -2.041  12.224  19.730  0.00  0.00    +0.000 A 
ATOM     10  C   UNL     1      -2.723  11.529  18.724  0.00  0.00    +0.000 A 
ATOM     11  C   UNL     1      -4.108  11.681  18.581  0.00  0.00    +0.000 A 
ATOM     12  N   UNL     1      -4.827  12.517  19.415  0.00  0.00    +0.000 N 
ATOM     13  O   UNL     1      -6.073  12.683  19.255  0.00  0.00    +0.000 OA
ATOM     14  C   UNL     1      -4.155  13.158  20.438  0.00  0.00    +0.000 A 
ATOM     15  C   UNL     1      -2.781  12.985  20.628  0.00  0.00    +0.000 A 
ENDBRANCH   6   9
BRANCH   1  17
ATOM     16  O   UNL     1       0.207   9.192  18.880  0.00  0.00    +0.000 OA
ATOM     17  C   UNL     1       1.226   8.875  19.492  0.00  0.00    +0.000 C 
BRANCH  17  18
ATOM     18  C   UNL     1       2.141   7.861  18.873  0.00  0.00    +0.000 A 
ATOM     19  C   UNL     1       2.962   8.255  17.793  0.00  0.00    +0.000 A 
ATOM     20  C   UNL     1       3.978   7.419  17.282  0.00  0.00    +0.000 A 
ATOM     21  C   UNL     1       4.157   6.200  17.928  0.00  0.00    +0.000 A 
ATOM     22  C   UNL     1       3.344   5.818  18.975  0.00  0.00    +0.000 A 
ATOM     23  C   UNL     1       3.723   4.587  19.478  0.00  0.00    +0.000 A 
ATOM     24  C   UNL     1       3.023   3.986  20.513  0.00  0.00    +0.000 A 
ATOM     25  C   UNL     1       1.895   4.679  20.981  0.00  0.00    +0.000 A 
ATOM     26  C   UNL     1       1.539   5.949  20.476  0.00  0.00    +0.000 A 
ATOM     27  C   UNL     1       2.304   6.573  19.461  0.00  0.00    +0.000 A 
ATOM     28  C   UNL     1       4.924   4.074  18.762  0.00  0.00    +0.000 C 
ATOM     29  C   UNL     1       5.174   5.139  17.646  0.00  0.00    +0.000 C 
ENDBRANCH  17  18
ENDBRANCH   1  17
TORSDOF 3
ENDMDL
MODEL 9
REMARK VINA RESULT:      -7.6      4.599      8.920
REMARK  Name = 
REMARK  3 active torsions:
REMARK  status: ('A' for Active; 'I' for Inactive)
REMARK    1  A    between atoms: C_2  and  C_3
REMARK    2  A    between atoms: C_2  and  C_15
REMARK    3  A    between atoms: C_20  and  C_22
REMARK                            x       y       z     vdW  Elec       q    Type
REMARK                         _______ _______ _______ _____ _____    ______ ____
ROOT
ATOM      1  C   UNL     1       0.279  13.181  21.785  0.00  0.00    +0.000 C 
ATOM      2  C   UNL     1      -0.012  14.528  21.090  0.00  0.00    +0.000 C 
ATOM      3  C   UNL     1      -0.551  14.455  19.649  0.00  0.00    +0.000 C 
ATOM      4  C   UNL     1       0.053  13.327  18.813  0.00  0.00    +0.000 C 
ATOM      5  N   UNL     1       0.064  12.084  19.573  0.00  0.00    +0.000 N 
ATOM      6  C   UNL     1      -0.633  10.899  19.307  0.00  0.00    +0.000 C 
ATOM      7  O   UNL     1      -0.409   9.860  19.929  0.00  0.00    +0.000 OA
ATOM      8  C   UNL     1       0.862  12.162  20.797  0.00  0.00    +0.000 C 
ENDROOT
BRANCH   6   9
ATOM      9  C   UNL     1      -1.658  10.816  18.229  0.00  0.00    +0.000 A 
ATOM     10  C   UNL     1      -1.467   9.877  17.208  0.00  0.00    +0.000 A 
ATOM     11  C   UNL     1      -2.416   9.747  16.187  0.00  0.00    +0.000 A 
ATOM     12  N   UNL     1      -3.549  10.539  16.156  0.00  0.00    +0.000 N 
ATOM     13  O   UNL     1      -4.384  10.447  15.207  0.00  0.00    +0.000 OA
ATOM     14  C   UNL     1      -3.756  11.427  17.195  0.00  0.00    +0.000 A 
ATOM     15  C   UNL     1      -2.845  11.540  18.248  0.00  0.00    +0.000 A 
ENDBRANCH   6   9
BRANCH   1  17
ATOM     16  O   UNL     1      -0.896  11.539  23.125  0.00  0.00    +0.000 OA
ATOM     17  C   UNL     1      -0.946  12.598  22.502  0.00  0.00    +0.000 C 
BRANCH  17  18
ATOM     18  C   UNL     1      -2.268  13.298  22.395  0.00  0.00    +0.000 A 
ATOM     19  C   UNL     1      -3.226  12.808  21.479  0.00  0.00    +0.000 A 
ATOM     20  C   UNL     1      -4.551  13.291  21.453  0.00  0.00    +0.000 A 
ATOM     21  C   UNL     1      -4.878  14.248  22.407  0.00  0.00    +0.000 A 
ATOM     22  C   UNL     1      -3.935  14.730  23.291  0.00  0.00    +0.000 A 
ATOM     23  C   UNL     1      -4.490  15.648  24.163  0.00  0.00    +0.000 A 
ATOM     24  C   UNL     1      -3.718  16.293  25.117  0.00  0.00    +0.000 A 
ATOM     25  C   UNL     1      -2.348  15.988  25.113  0.00  0.00    +0.000 A 
ATOM     26  C   UNL     1      -1.801  15.026  24.235  0.00  0.00    +0.000 A 
ATOM     27  C   UNL     1      -2.619  14.333  23.309  0.00  0.00    +0.000 A 
ATOM     28  C   UNL     1      -5.950  15.800  23.907  0.00  0.00    +0.000 C 
ATOM     29  C   UNL     1      -6.201  14.904  22.653  0.00  0.00    +0.000 C 
ENDBRANCH  17  18
ENDBRANCH   1  17
TORSDOF 3
ENDMDL
