MODEL 1
REMARK VINA RESULT:      -8.4      0.000      0.000
REMARK  Name = 
REMARK  8 active torsions:
REMARK  status: ('A' for Active; 'I' for Inactive)
REMARK    1  A    between atoms: C_1  and  C_2
REMARK    2  A    between atoms: N_4  and  C_5
REMARK    3  A    between atoms: C_5  and  C_6
REMARK    4  A    between atoms: C_5  and  C_7
REMARK    5  A    between atoms: C_10  and  O_11
REMARK    6  A    between atoms: O_11  and  C_12
REMARK    7  A    between atoms: N_15  and  C_16
REMARK    8  A    between atoms: C_23  and  C_24
REMARK                            x       y       z     vdW  Elec       q    Type
REMARK                         _______ _______ _______ _____ _____    ______ ____
ROOT
ATOM      1  C   UNL     1       2.524   6.779  18.718  0.00  0.00    +0.000 C 
ATOM      2  C   UNL     1       2.246   7.738  17.556  0.00  0.00    +0.000 C 
ATOM      3  C   UNL     1       1.962   9.105  18.187  0.00  0.00    +0.000 C 
ATOM      4  N   UNL     1       1.447   8.784  19.502  0.00  0.00    +0.000 N 
ATOM      5  C   UNL     1       1.841   7.446  19.927  0.00  0.00    +0.000 C 
ENDROOT
BRANCH   4   6
ATOM      6  C   UNL     1       0.917   9.733  20.354  0.00  0.00    +0.000 A 
ATOM      7  N   UNL     1       1.118  11.049  20.082  0.00  0.00    +0.000 NA
ATOM      8  C   UNL     1       0.561  11.994  20.880  0.00  0.00    +0.000 A 
ATOM      9  N   UNL     1       0.769  13.326  20.619  0.00  0.00    +0.000 N 
ATOM     10  C   UNL     1      -0.190  14.316  21.097  0.00  0.00    +0.000 C 
ATOM     11  C   UNL     1      -0.398  15.226  19.892  0.00  0.00    +0.000 C 
ATOM     12  C   UNL     1       0.950  15.201  19.191  0.00  0.00    +0.000 C 
ATOM     13  C   UNL     1       1.470  13.769  19.420  0.00  0.00    +0.000 C 
ATOM     14  C   UNL     1       2.975  13.779  19.660  0.00  0.00    +0.000 C 
ATOM     15  N   UNL     1      -0.187  11.691  21.953  0.00  0.00    +0.000 NA
ATOM     16  C   UNL     1      -0.371  10.391  22.221  0.00  0.00    +0.000 A 
ATOM     17  C   UNL     1       0.152   9.381  21.459  0.00  0.00    +0.000 A 
ATOM     18  F   UNL     1      -0.108   8.107  21.799  0.00  0.00    +0.000 F 
ENDBRANCH   4   6
BRANCH   1  19
ATOM     19  O   UNL     1       3.946   6.607  18.884  0.00  0.00    +0.000 OA
BRANCH  19  23
ATOM     20  C   UNL     1       5.765   4.730  15.581  0.00  0.00    +0.000 A 
ATOM     21  C   UNL     1       4.745   4.111  16.318  0.00  0.00    +0.000 A 
ATOM     22  C   UNL     1       4.169   4.759  17.426  0.00  0.00    +0.000 A 
ATOM     23  C   UNL     1       4.609   6.023  17.832  0.00  0.00    +0.000 A 
ATOM     24  C   UNL     1       5.642   6.629  17.113  0.00  0.00    +0.000 A 
ATOM     25  C   UNL     1       6.210   5.990  16.010  0.00  0.00    +0.000 A 
BRANCH  20  26
ATOM     26  C   UNL     1       6.335   4.111  14.310  0.00  0.00    +0.000 C 
ATOM     27  C   UNL     1       7.487   4.958  13.756  0.00  0.00    +0.000 C 
BRANCH  26  31
ATOM     28  C   UNL     1       4.058   3.303  11.375  0.00  0.00    +0.000 C 
ATOM     29  C   UNL     1       5.328   3.251  12.182  0.00  0.00    +0.000 C 
ATOM     30  O   UNL     1       6.316   2.623  11.821  0.00  0.00    +0.000 OA
ATOM     31  N   UNL     1       5.248   3.982  13.341  0.00  0.00    +0.000 N 
ATOM     32  H   UNL     1       4.334   4.306  13.630  0.00  0.00    +0.000 HD
ENDBRANCH  26  31
ENDBRANCH  20  26
ENDBRANCH  19  23
ENDBRANCH   1  19
TORSDOF 5
ENDMDL
MODEL 2
REMARK VINA RESULT:      -8.4      4.236      6.359
REMARK  Name = 
REMARK  8 active torsions:
REMARK  status: ('A' for Active; 'I' for Inactive)
REMARK    1  A    between atoms: C_1  and  C_2
REMARK    2  A    between atoms: N_4  and  C_5
REMARK    3  A    between atoms: C_5  and  C_6
REMARK    4  A    between atoms: C_5  and  C_7
REMARK    5  A    between atoms: C_10  and  O_11
REMARK    6  A    between atoms: O_11  and  C_12
REMARK    7  A    between atoms: N_15  and  C_16
REMARK    8  A    between atoms: C_23  and  C_24
REMARK                            x       y       z     vdW  Elec       q    Type
REMARK                         _______ _______ _______ _____ _____    ______ ____
ROOT
ATOM      1  C   UNL     1       0.128  10.930  18.626  0.00  0.00    +0.000 C 
ATOM      2  C   UNL     1       0.213  12.459  18.592  0.00  0.00    +0.000 C 
ATOM      3  C   UNL     1      -1.061  12.975  19.269  0.00  0.00    +0.000 C 
ATOM      4  N   UNL     1      -2.026  11.916  19.052  0.00  0.00    +0.000 N 
ATOM      5  C   UNL     1      -1.378  10.640  18.773  0.00  0.00    +0.000 C 
ENDROOT
BRANCH   4   6
ATOM      6  C   UNL     1      -3.363  12.042  19.373  0.00  0.00    +0.000 A 
ATOM      7  N   UNL     1      -3.707  12.573  20.575  0.00  0.00    +0.000 NA
ATOM      8  C   UNL     1      -5.016  12.751  20.883  0.00  0.00    +0.000 A 
ATOM      9  N   UNL     1      -5.371  13.276  22.102  0.00  0.00    +0.000 N 
ATOM     10  C   UNL     1      -6.658  13.945  22.254  0.00  0.00    +0.000 C 
ATOM     11  C   UNL     1      -6.315  15.214  23.025  0.00  0.00    +0.000 C 
ATOM     12  C   UNL     1      -5.147  14.792  23.901  0.00  0.00    +0.000 C 
ATOM     13  C   UNL     1      -4.373  13.778  23.037  0.00  0.00    +0.000 C 
ATOM     14  C   UNL     1      -3.838  12.642  23.900  0.00  0.00    +0.000 C 
ATOM     15  N   UNL     1      -6.012  12.414  20.049  0.00  0.00    +0.000 NA
ATOM     16  C   UNL     1      -5.665  11.880  18.869  0.00  0.00    +0.000 A 
ATOM     17  C   UNL     1      -4.368  11.677  18.484  0.00  0.00    +0.000 A 
ATOM     18  F   UNL     1      -4.122  11.155  17.270  0.00  0.00    +0.000 F 
ENDBRANCH   4   6
BRANCH   1  19
ATOM     19  O   UNL     1       0.921  10.419  19.717  0.00  0.00    +0.000 OA
BRANCH  19  23
ATOM     20  C   UNL     1       2.353   6.479  19.310  0.00  0.00    +0.000 A 
ATOM     21  C   UNL     1       1.834   6.958  20.522  0.00  0.00    +0.000 A 
ATOM     22  C   UNL     1       1.379   8.286  20.628  0.00  0.00    +0.000 A 
ATOM     23  C   UNL     1       1.448   9.162  19.541  0.00  0.00    +0.000 A 
ATOM     24  C   UNL     1       1.988   8.692  18.342  0.00  0.00    +0.000 A 
ATOM     25  C   UNL     1       2.435   7.374  18.233  0.00  0.00    +0.000 A 
BRANCH  20  26
ATOM     26  C   UNL     1       2.751   5.019  19.122  0.00  0.00    +0.000 C 
ATOM     27  C   UNL     1       2.390   4.529  17.715  0.00  0.00    +0.000 C 
BRANCH  26  31
ATOM     28  C   UNL     1       1.698   2.488  21.756  0.00  0.00    +0.000 C 
ATOM     29  C   UNL     1       2.610   3.096  20.723  0.00  0.00    +0.000 C 
ATOM     30  O   UNL     1       3.696   2.612  20.433  0.00  0.00    +0.000 OA
ATOM     31  N   UNL     1       2.084   4.230  20.155  0.00  0.00    +0.000 N 
ATOM     32  H   UNL     1       1.271   4.643  20.596  0.00  0.00    +0.000 HD
ENDBRANCH  26  31
ENDBRANCH  20  26
ENDBRANCH  19  23
ENDBRANCH   1  19
TORSDOF 5
ENDMDL
MODEL 3
REMARK VINA RESULT:      -8.3      3.638      5.139
REMARK  Name = 
REMARK  8 active torsions:
REMARK  status: ('A' for Active; 'I' for Inactive)
REMARK    1  A    between atoms: C_1  and  C_2
REMARK    2  A    between atoms: N_4  and  C_5
REMARK    3  A    between atoms: C_5  and  C_6
REMARK    4  A    between atoms: C_5  and  C_7
REMARK    5  A    between atoms: C_10  and  O_11
REMARK    6  A    between atoms: O_11  and  C_12
REMARK    7  A    between atoms: N_15  and  C_16
REMARK    8  A    between atoms: C_23  and  C_24
REMARK                            x       y       z     vdW  Elec       q    Type
REMARK                         _______ _______ _______ _____ _____    ______ ____
ROOT
ATOM      1  C   UNL     1       0.640  10.062  18.421  0.00  0.00    +0.000 C 
ATOM      2  C   UNL     1       1.052  11.499  18.754  0.00  0.00    +0.000 C 
ATOM      3  C   UNL     1      -0.164  12.151  19.419  0.00  0.00    +0.000 C 
ATOM      4  N   UNL     1      -1.293  11.423  18.877  0.00  0.00    +0.000 N 
ATOM      5  C   UNL     1      -0.899  10.116  18.364  0.00  0.00    +0.000 C 
ENDROOT
BRANCH   4   6
ATOM      6  C   UNL     1      -2.604  11.795  19.100  0.00  0.00    +0.000 A 
ATOM      7  N   UNL     1      -2.939  12.347  20.296  0.00  0.00    +0.000 NA
ATOM      8  C   UNL     1      -4.211  12.765  20.511  0.00  0.00    +0.000 A 
ATOM      9  N   UNL     1      -4.560  13.312  21.722  0.00  0.00    +0.000 N 
ATOM     10  C   UNL     1      -5.705  14.212  21.805  0.00  0.00    +0.000 C 
ATOM     11  C   UNL     1      -5.193  15.368  22.657  0.00  0.00    +0.000 C 
ATOM     12  C   UNL     1      -4.203  14.703  23.599  0.00  0.00    +0.000 C 
ATOM     13  C   UNL     1      -3.567  13.585  22.752  0.00  0.00    +0.000 C 
ATOM     14  C   UNL     1      -3.331  12.341  23.601  0.00  0.00    +0.000 C 
ATOM     15  N   UNL     1      -5.180  12.651  19.589  0.00  0.00    +0.000 NA
ATOM     16  C   UNL     1      -4.844  12.096  18.417  0.00  0.00    +0.000 A 
ATOM     17  C   UNL     1      -3.582  11.657  18.122  0.00  0.00    +0.000 A 
ATOM     18  F   UNL     1      -3.340  11.134  16.908  0.00  0.00    +0.000 F 
ENDBRANCH   4   6
BRANCH   1  19
ATOM     19  O   UNL     1       1.146   9.160  19.427  0.00  0.00    +0.000 OA
BRANCH  19  23
ATOM     20  C   UNL     1       3.815   6.146  18.191  0.00  0.00    +0.000 A 
ATOM     21  C   UNL     1       3.125   6.072  19.410  0.00  0.00    +0.000 A 
ATOM     22  C   UNL     1       2.253   7.105  19.800  0.00  0.00    +0.000 A 
ATOM     23  C   UNL     1       2.065   8.234  18.997  0.00  0.00    +0.000 A 
ATOM     24  C   UNL     1       2.771   8.319  17.795  0.00  0.00    +0.000 A 
ATOM     25  C   UNL     1       3.633   7.293  17.403  0.00  0.00    +0.000 A 
BRANCH  20  26
ATOM     26  C   UNL     1       4.681   4.999  17.680  0.00  0.00    +0.000 C 
ATOM     27  C   UNL     1       5.132   5.252  16.237  0.00  0.00    +0.000 C 
BRANCH  26  31
ATOM     28  C   UNL     1       3.163   1.648  18.638  0.00  0.00    +0.000 C 
ATOM     29  C   UNL     1       4.098   2.821  18.774  0.00  0.00    +0.000 C 
ATOM     30  O   UNL     1       4.932   2.902  19.666  0.00  0.00    +0.000 OA
ATOM     31  N   UNL     1       3.909   3.763  17.794  0.00  0.00    +0.000 N 
ATOM     32  H   UNL     1       3.077   3.686  17.223  0.00  0.00    +0.000 HD
ENDBRANCH  26  31
ENDBRANCH  20  26
ENDBRANCH  19  23
ENDBRANCH   1  19
TORSDOF 5
ENDMDL
MODEL 4
REMARK VINA RESULT:      -8.2      3.464     10.147
REMARK  Name = 
REMARK  8 active torsions:
REMARK  status: ('A' for Active; 'I' for Inactive)
REMARK    1  A    between atoms: C_1  and  C_2
REMARK    2  A    between atoms: N_4  and  C_5
REMARK    3  A    between atoms: C_5  and  C_6
REMARK    4  A    between atoms: C_5  and  C_7
REMARK    5  A    between atoms: C_10  and  O_11
REMARK    6  A    between atoms: O_11  and  C_12
REMARK    7  A    between atoms: N_15  and  C_16
REMARK    8  A    between atoms: C_23  and  C_24
REMARK                            x       y       z     vdW  Elec       q    Type
REMARK                         _______ _______ _______ _____ _____    ______ ____
ROOT
ATOM      1  C   UNL     1       0.904  10.191  18.848  0.00  0.00    +0.000 C 
ATOM      2  C   UNL     1       0.507   9.871  20.292  0.00  0.00    +0.000 C 
ATOM      3  C   UNL     1       1.400   8.708  20.735  0.00  0.00    +0.000 C 
ATOM      4  N   UNL     1       1.721   8.022  19.501  0.00  0.00    +0.000 N 
ATOM      5  C   UNL     1       1.552   8.889  18.340  0.00  0.00    +0.000 C 
ENDROOT
BRANCH   4   6
ATOM      6  C   UNL     1       2.388   6.814  19.464  0.00  0.00    +0.000 A 
ATOM      7  N   UNL     1       3.491   6.692  18.680  0.00  0.00    +0.000 NA
ATOM      8  C   UNL     1       4.187   5.528  18.673  0.00  0.00    +0.000 A 
ATOM      9  N   UNL     1       5.296   5.393  17.874  0.00  0.00    +0.000 N 
ATOM     10  C   UNL     1       6.321   4.414  18.217  0.00  0.00    +0.000 C 
ATOM     11  C   UNL     1       7.626   5.183  18.041  0.00  0.00    +0.000 C 
ATOM     12  C   UNL     1       7.317   6.151  16.911  0.00  0.00    +0.000 C 
ATOM     13  C   UNL     1       5.835   6.518  17.121  0.00  0.00    +0.000 C 
ATOM     14  C   UNL     1       5.123   6.648  15.780  0.00  0.00    +0.000 C 
ATOM     15  N   UNL     1       3.831   4.463  19.408  0.00  0.00    +0.000 NA
ATOM     16  C   UNL     1       2.735   4.587  20.171  0.00  0.00    +0.000 A 
ATOM     17  C   UNL     1       1.986   5.731  20.237  0.00  0.00    +0.000 A 
ATOM     18  F   UNL     1       0.916   5.763  21.049  0.00  0.00    +0.000 F 
ENDBRANCH   4   6
BRANCH   1  19
ATOM     19  O   UNL     1       1.796  11.324  18.822  0.00  0.00    +0.000 OA
BRANCH  19  23
ATOM     20  C   UNL     1       0.234  15.189  19.424  0.00  0.00    +0.000 A 
ATOM     21  C   UNL     1       1.417  14.762  20.043  0.00  0.00    +0.000 A 
ATOM     22  C   UNL     1       1.903  13.458  19.834  0.00  0.00    +0.000 A 
ATOM     23  C   UNL     1       1.214  12.552  19.022  0.00  0.00    +0.000 A 
ATOM     24  C   UNL     1       0.022  12.970  18.424  0.00  0.00    +0.000 A 
ATOM     25  C   UNL     1      -0.458  14.265  18.626  0.00  0.00    +0.000 A 
BRANCH  20  26
ATOM     26  C   UNL     1      -0.265  16.626  19.534  0.00  0.00    +0.000 C 
ATOM     27  C   UNL     1      -1.676  16.672  20.132  0.00  0.00    +0.000 C 
BRANCH  26  31
ATOM     28  C   UNL     1       0.565  18.500  16.333  0.00  0.00    +0.000 C 
ATOM     29  C   UNL     1       0.795  18.019  17.741  0.00  0.00    +0.000 C 
ATOM     30  O   UNL     1       1.788  18.322  18.389  0.00  0.00    +0.000 OA
ATOM     31  N   UNL     1      -0.225  17.224  18.202  0.00  0.00    +0.000 N 
ATOM     32  H   UNL     1      -0.901  16.888  17.526  0.00  0.00    +0.000 HD
ENDBRANCH  26  31
ENDBRANCH  20  26
ENDBRANCH  19  23
ENDBRANCH   1  19
TORSDOF 5
ENDMDL
MODEL 5
REMARK VINA RESULT:      -8.1      4.157      5.564
REMARK  Name = 
REMARK  8 active torsions:
REMARK  status: ('A' for Active; 'I' for Inactive)
REMARK    1  A    between atoms: C_1  and  C_2
REMARK    2  A    between atoms: N_4  and  C_5
REMARK    3  A    between atoms: C_5  and  C_6
REMARK    4  A    between atoms: C_5  and  C_7
REMARK    5  A    between atoms: C_10  and  O_11
REMARK    6  A    between atoms: O_11  and  C_12
REMARK    7  A    between atoms: N_15  and  C_16
REMARK    8  A    between atoms: C_23  and  C_24
REMARK                            x       y       z     vdW  Elec       q    Type
REMARK                         _______ _______ _______ _____ _____    ______ ____
ROOT
ATOM      1  C   UNL     1       0.601  10.347  18.712  0.00  0.00    +0.000 C 
ATOM      2  C   UNL     1       0.608  11.664  19.493  0.00  0.00    +0.000 C 
ATOM      3  C   UNL     1      -0.858  11.995  19.791  0.00  0.00    +0.000 C 
ATOM      4  N   UNL     1      -1.587  11.350  18.719  0.00  0.00    +0.000 N 
ATOM      5  C   UNL     1      -0.813  10.279  18.103  0.00  0.00    +0.000 C 
ENDROOT
BRANCH   4   6
ATOM      6  C   UNL     1      -2.942  11.528  18.520  0.00  0.00    +0.000 A 
ATOM      7  N   UNL     1      -3.651  12.258  19.420  0.00  0.00    +0.000 NA
ATOM      8  C   UNL     1      -4.972  12.485  19.211  0.00  0.00    +0.000 A 
ATOM      9  N   UNL     1      -5.699  13.211  20.122  0.00  0.00    +0.000 N 
ATOM     10  C   UNL     1      -6.915  13.895  19.698  0.00  0.00    +0.000 C 
ATOM     11  C   UNL     1      -6.788  15.279  20.325  0.00  0.00    +0.000 C 
ATOM     12  C   UNL     1      -6.027  15.015  21.614  0.00  0.00    +0.000 C 
ATOM     13  C   UNL     1      -5.062  13.868  21.257  0.00  0.00    +0.000 C 
ATOM     14  C   UNL     1      -4.931  12.898  22.425  0.00  0.00    +0.000 C 
ATOM     15  N   UNL     1      -5.632  12.009  18.143  0.00  0.00    +0.000 NA
ATOM     16  C   UNL     1      -4.928  11.280  17.266  0.00  0.00    +0.000 A 
ATOM     17  C   UNL     1      -3.592  11.014  17.404  0.00  0.00    +0.000 A 
ATOM     18  F   UNL     1      -2.970  10.292  16.457  0.00  0.00    +0.000 F 
ENDBRANCH   4   6
BRANCH   1  19
ATOM     19  O   UNL     1       0.898   9.248  19.597  0.00  0.00    +0.000 OA
BRANCH  19  23
ATOM     20  C   UNL     1       3.655   6.331  18.321  0.00  0.00    +0.000 A 
ATOM     21  C   UNL     1       2.996   6.240  19.556  0.00  0.00    +0.000 A 
ATOM     22  C   UNL     1       2.093   7.241  19.960  0.00  0.00    +0.000 A 
ATOM     23  C   UNL     1       1.843   8.355  19.154  0.00  0.00    +0.000 A 
ATOM     24  C   UNL     1       2.518   8.458  17.935  0.00  0.00    +0.000 A 
ATOM     25  C   UNL     1       3.410   7.464  17.530  0.00  0.00    +0.000 A 
BRANCH  20  26
ATOM     26  C   UNL     1       4.553   5.215  17.799  0.00  0.00    +0.000 C 
ATOM     27  C   UNL     1       5.045   5.525  16.380  0.00  0.00    +0.000 C 
BRANCH  26  31
ATOM     28  C   UNL     1       3.111   1.777  18.542  0.00  0.00    +0.000 C 
ATOM     29  C   UNL     1       4.043   2.944  18.729  0.00  0.00    +0.000 C 
ATOM     30  O   UNL     1       4.924   2.957  19.580  0.00  0.00    +0.000 OA
ATOM     31  N   UNL     1       3.797   3.965  17.845  0.00  0.00    +0.000 N 
ATOM     32  H   UNL     1       2.936   3.928  17.314  0.00  0.00    +0.000 HD
ENDBRANCH  26  31
ENDBRANCH  20  26
ENDBRANCH  19  23
ENDBRANCH   1  19
TORSDOF 5
ENDMDL
MODEL 6
REMARK VINA RESULT:      -8.1      3.880      5.321
REMARK  Name = 
REMARK  8 active torsions:
REMARK  status: ('A' for Active; 'I' for Inactive)
REMARK    1  A    between atoms: C_1  and  C_2
REMARK    2  A    between atoms: N_4  and  C_5
REMARK    3  A    between atoms: C_5  and  C_6
REMARK    4  A    between atoms: C_5  and  C_7
REMARK    5  A    between atoms: C_10  and  O_11
REMARK    6  A    between atoms: O_11  and  C_12
REMARK    7  A    between atoms: N_15  and  C_16
REMARK    8  A    between atoms: C_23  and  C_24
REMARK                            x       y       z     vdW  Elec       q    Type
REMARK                         _______ _______ _______ _____ _____    ______ ____
ROOT
ATOM      1  C   UNL     1       0.847   9.807  18.906  0.00  0.00    +0.000 C 
ATOM      2  C   UNL     1       1.533  11.163  18.716  0.00  0.00    +0.000 C 
ATOM      3  C   UNL     1       0.700  12.179  19.505  0.00  0.00    +0.000 C 
ATOM      4  N   UNL     1      -0.630  11.606  19.519  0.00  0.00    +0.000 N 
ATOM      5  C   UNL     1      -0.604  10.168  19.278  0.00  0.00    +0.000 C 
ENDROOT
BRANCH   4   6
ATOM      6  C   UNL     1      -1.734  12.282  20.001  0.00  0.00    +0.000 A 
ATOM      7  N   UNL     1      -2.954  12.021  19.463  0.00  0.00    +0.000 NA
ATOM      8  C   UNL     1      -4.055  12.638  19.960  0.00  0.00    +0.000 A 
ATOM      9  N   UNL     1      -5.290  12.389  19.413  0.00  0.00    +0.000 N 
ATOM     10  C   UNL     1      -6.491  12.601  20.213  0.00  0.00    +0.000 C 
ATOM     11  C   UNL     1      -7.324  11.351  19.949  0.00  0.00    +0.000 C 
ATOM     12  C   UNL     1      -6.965  10.981  18.520  0.00  0.00    +0.000 C 
ATOM     13  C   UNL     1      -5.480  11.370  18.389  0.00  0.00    +0.000 C 
ATOM     14  C   UNL     1      -5.200  11.950  17.008  0.00  0.00    +0.000 C 
ATOM     15  N   UNL     1      -4.000  13.519  20.971  0.00  0.00    +0.000 NA
ATOM     16  C   UNL     1      -2.792  13.780  21.489  0.00  0.00    +0.000 A 
ATOM     17  C   UNL     1      -1.637  13.192  21.047  0.00  0.00    +0.000 A 
ATOM     18  F   UNL     1      -0.476  13.504  21.646  0.00  0.00    +0.000 F 
ENDBRANCH   4   6
BRANCH   1  19
ATOM     19  O   UNL     1       1.529   9.049  19.926  0.00  0.00    +0.000 OA
BRANCH  19  23
ATOM     20  C   UNL     1       3.174   5.386  18.656  0.00  0.00    +0.000 A 
ATOM     21  C   UNL     1       3.187   6.527  17.841  0.00  0.00    +0.000 A 
ATOM     22  C   UNL     1       2.613   7.731  18.289  0.00  0.00    +0.000 A 
ATOM     23  C   UNL     1       2.004   7.818  19.545  0.00  0.00    +0.000 A 
ATOM     24  C   UNL     1       1.970   6.674  20.346  0.00  0.00    +0.000 A 
ATOM     25  C   UNL     1       2.543   5.480  19.905  0.00  0.00    +0.000 A 
BRANCH  20  26
ATOM     26  C   UNL     1       3.882   4.097  18.253  0.00  0.00    +0.000 C 
ATOM     27  C   UNL     1       3.445   2.929  19.145  0.00  0.00    +0.000 C 
BRANCH  26  31
ATOM     28  C   UNL     1       7.594   4.639  17.634  0.00  0.00    +0.000 C 
ATOM     29  C   UNL     1       6.158   4.402  17.248  0.00  0.00    +0.000 C 
ATOM     30  O   UNL     1       5.796   4.286  16.084  0.00  0.00    +0.000 OA
ATOM     31  N   UNL     1       5.323   4.326  18.336  0.00  0.00    +0.000 N 
ATOM     32  H   UNL     1       5.693   4.618  19.232  0.00  0.00    +0.000 HD
ENDBRANCH  26  31
ENDBRANCH  20  26
ENDBRANCH  19  23
ENDBRANCH   1  19
TORSDOF 5
ENDMDL
MODEL 7
REMARK VINA RESULT:      -8.1      4.257      5.621
REMARK  Name = 
REMARK  8 active torsions:
REMARK  status: ('A' for Active; 'I' for Inactive)
REMARK    1  A    between atoms: C_1  and  C_2
REMARK    2  A    between atoms: N_4  and  C_5
REMARK    3  A    between atoms: C_5  and  C_6
REMARK    4  A    between atoms: C_5  and  C_7
REMARK    5  A    between atoms: C_10  and  O_11
REMARK    6  A    between atoms: O_11  and  C_12
REMARK    7  A    between atoms: N_15  and  C_16
REMARK    8  A    between atoms: C_23  and  C_24
REMARK                            x       y       z     vdW  Elec       q    Type
REMARK                         _______ _______ _______ _____ _____    ______ ____
ROOT
ATOM      1  C   UNL     1       0.806  10.170  19.491  0.00  0.00    +0.000 C 
ATOM      2  C   UNL     1       0.406  11.335  20.401  0.00  0.00    +0.000 C 
ATOM      3  C   UNL     1      -1.098  11.543  20.196  0.00  0.00    +0.000 C 
ATOM      4  N   UNL     1      -1.339  11.057  18.853  0.00  0.00    +0.000 N 
ATOM      5  C   UNL     1      -0.293  10.142  18.412  0.00  0.00    +0.000 C 
ENDROOT
BRANCH   4   6
ATOM      6  C   UNL     1      -2.551  11.204  18.208  0.00  0.00    +0.000 A 
ATOM      7  N   UNL     1      -3.557  11.867  18.836  0.00  0.00    +0.000 NA
ATOM      8  C   UNL     1      -4.736  12.064  18.194  0.00  0.00    +0.000 A 
ATOM      9  N   UNL     1      -5.762  12.722  18.827  0.00  0.00    +0.000 N 
ATOM     10  C   UNL     1      -6.790  13.390  18.037  0.00  0.00    +0.000 C 
ATOM     11  C   UNL     1      -6.947  14.744  18.720  0.00  0.00    +0.000 C 
ATOM     12  C   UNL     1      -6.661  14.439  20.181  0.00  0.00    +0.000 C 
ATOM     13  C   UNL     1      -5.582  13.340  20.134  0.00  0.00    +0.000 C 
ATOM     14  C   UNL     1      -5.814  12.317  21.240  0.00  0.00    +0.000 C 
ATOM     15  N   UNL     1      -4.969  11.623  16.949  0.00  0.00    +0.000 NA
ATOM     16  C   UNL     1      -3.976  10.960  16.340  0.00  0.00    +0.000 A 
ATOM     17  C   UNL     1      -2.757  10.728  16.918  0.00  0.00    +0.000 A 
ATOM     18  F   UNL     1      -1.817  10.072  16.217  0.00  0.00    +0.000 F 
ENDBRANCH   4   6
BRANCH   1  19
ATOM     19  O   UNL     1       0.889   8.952  20.259  0.00  0.00    +0.000 OA
BRANCH  19  23
ATOM     20  C   UNL     1       3.122   5.740  18.699  0.00  0.00    +0.000 A 
ATOM     21  C   UNL     1       2.453   5.651  19.929  0.00  0.00    +0.000 A 
ATOM     22  C   UNL     1       1.729   6.749  20.429  0.00  0.00    +0.000 A 
ATOM     23  C   UNL     1       1.672   7.957  19.727  0.00  0.00    +0.000 A 
ATOM     24  C   UNL     1       2.359   8.053  18.515  0.00  0.00    +0.000 A 
ATOM     25  C   UNL     1       3.073   6.963  18.014  0.00  0.00    +0.000 A 
BRANCH  20  26
ATOM     26  C   UNL     1       3.822   4.540  18.071  0.00  0.00    +0.000 C 
ATOM     27  C   UNL     1       3.325   3.228  18.689  0.00  0.00    +0.000 C 
BRANCH  26  31
ATOM     28  C   UNL     1       7.608   4.691  17.759  0.00  0.00    +0.000 C 
ATOM     29  C   UNL     1       6.201   4.428  17.290  0.00  0.00    +0.000 C 
ATOM     30  O   UNL     1       5.945   4.003  16.171  0.00  0.00    +0.000 OA
ATOM     31  N   UNL     1       5.262   4.708  18.252  0.00  0.00    +0.000 N 
ATOM     32  H   UNL     1       5.566   5.225  19.068  0.00  0.00    +0.000 HD
ENDBRANCH  26  31
ENDBRANCH  20  26
ENDBRANCH  19  23
ENDBRANCH   1  19
TORSDOF 5
ENDMDL
MODEL 8
REMARK VINA RESULT:      -8.1      3.545      5.031
REMARK  Name = 
REMARK  8 active torsions:
REMARK  status: ('A' for Active; 'I' for Inactive)
REMARK    1  A    between atoms: C_1  and  C_2
REMARK    2  A    between atoms: N_4  and  C_5
REMARK    3  A    between atoms: C_5  and  C_6
REMARK    4  A    between atoms: C_5  and  C_7
REMARK    5  A    between atoms: C_10  and  O_11
REMARK    6  A    between atoms: O_11  and  C_12
REMARK    7  A    between atoms: N_15  and  C_16
REMARK    8  A    between atoms: C_23  and  C_24
REMARK                            x       y       z     vdW  Elec       q    Type
REMARK                         _______ _______ _______ _____ _____    ______ ____
ROOT
ATOM      1  C   UNL     1       1.099   9.724  18.347  0.00  0.00    +0.000 C 
ATOM      2  C   UNL     1       1.481  11.191  18.565  0.00  0.00    +0.000 C 
ATOM      3  C   UNL     1       0.223  11.887  19.096  0.00  0.00    +0.000 C 
ATOM      4  N   UNL     1      -0.866  11.097  18.562  0.00  0.00    +0.000 N 
ATOM      5  C   UNL     1      -0.434   9.753  18.197  0.00  0.00    +0.000 C 
ENDROOT
BRANCH   4   6
ATOM      6  C   UNL     1      -2.191  11.471  18.674  0.00  0.00    +0.000 A 
ATOM      7  N   UNL     1      -2.603  12.109  19.800  0.00  0.00    +0.000 NA
ATOM      8  C   UNL     1      -3.889  12.529  19.904  0.00  0.00    +0.000 A 
ATOM      9  N   UNL     1      -4.316  13.164  21.044  0.00  0.00    +0.000 N 
ATOM     10  C   UNL     1      -5.469  14.056  20.987  0.00  0.00    +0.000 C 
ATOM     11  C   UNL     1      -5.017  15.279  21.777  0.00  0.00    +0.000 C 
ATOM     12  C   UNL     1      -4.085  14.698  22.827  0.00  0.00    +0.000 C 
ATOM     13  C   UNL     1      -3.391  13.525  22.110  0.00  0.00    +0.000 C 
ATOM     14  C   UNL     1      -3.201  12.353  23.065  0.00  0.00    +0.000 C 
ATOM     15  N   UNL     1      -4.797  12.336  18.935  0.00  0.00    +0.000 NA
ATOM     16  C   UNL     1      -4.386  11.696  17.831  0.00  0.00    +0.000 A 
ATOM     17  C   UNL     1      -3.105  11.249  17.650  0.00  0.00    +0.000 A 
ATOM     18  F   UNL     1      -2.784  10.636  16.498  0.00  0.00    +0.000 F 
ENDBRANCH   4   6
BRANCH   1  19
ATOM     19  O   UNL     1       1.553   8.927  19.460  0.00  0.00    +0.000 OA
BRANCH  19  23
ATOM     20  C   UNL     1       3.398   5.244  18.584  0.00  0.00    +0.000 A 
ATOM     21  C   UNL     1       2.774   5.486  19.817  0.00  0.00    +0.000 A 
ATOM     22  C   UNL     1       2.181   6.735  20.083  0.00  0.00    +0.000 A 
ATOM     23  C   UNL     1       2.213   7.766  19.140  0.00  0.00    +0.000 A 
ATOM     24  C   UNL     1       2.857   7.532  17.922  0.00  0.00    +0.000 A 
ATOM     25  C   UNL     1       3.441   6.293  17.654  0.00  0.00    +0.000 A 
BRANCH  20  26
ATOM     26  C   UNL     1       3.952   3.872  18.215  0.00  0.00    +0.000 C 
ATOM     27  C   UNL     1       3.997   2.950  19.439  0.00  0.00    +0.000 C 
BRANCH  26  31
ATOM     28  C   UNL     1       7.597   4.654  17.466  0.00  0.00    +0.000 C 
ATOM     29  C   UNL     1       6.359   4.567  18.318  0.00  0.00    +0.000 C 
ATOM     30  O   UNL     1       6.336   4.921  19.490  0.00  0.00    +0.000 OA
ATOM     31  N   UNL     1       5.281   4.060  17.635  0.00  0.00    +0.000 N 
ATOM     32  H   UNL     1       5.455   3.630  16.735  0.00  0.00    +0.000 HD
ENDBRANCH  26  31
ENDBRANCH  20  26
ENDBRANCH  19  23
ENDBRANCH   1  19
TORSDOF 5
ENDMDL
MODEL 9
REMARK VINA RESULT:      -8.1      4.003      6.209
REMARK  Name = 
REMARK  8 active torsions:
REMARK  status: ('A' for Active; 'I' for Inactive)
REMARK    1  A    between atoms: C_1  and  C_2
REMARK    2  A    between atoms: N_4  and  C_5
REMARK    3  A    between atoms: C_5  and  C_6
REMARK    4  A    between atoms: C_5  and  C_7
REMARK    5  A    between atoms: C_10  and  O_11
REMARK    6  A    between atoms: O_11  and  C_12
REMARK    7  A    between atoms: N_15  and  C_16
REMARK    8  A    between atoms: C_23  and  C_24
REMARK                            x       y       z     vdW  Elec       q    Type
REMARK                         _______ _______ _______ _____ _____    ______ ____
ROOT
ATOM      1  C   UNL     1       0.050  10.951  18.662  0.00  0.00    +0.000 C 
ATOM      2  C   UNL     1      -0.073  12.446  18.352  0.00  0.00    +0.000 C 
ATOM      3  C   UNL     1      -0.686  13.093  19.598  0.00  0.00    +0.000 C 
ATOM      4  N   UNL     1      -1.450  12.025  20.208  0.00  0.00    +0.000 N 
ATOM      5  C   UNL     1      -0.987  10.712  19.776  0.00  0.00    +0.000 C 
ENDROOT
BRANCH   4   6
ATOM      6  C   UNL     1      -2.293  12.224  21.283  0.00  0.00    +0.000 A 
ATOM      7  N   UNL     1      -3.579  12.597  21.053  0.00  0.00    +0.000 NA
ATOM      8  C   UNL     1      -4.434  12.746  22.096  0.00  0.00    +0.000 A 
ATOM      9  N   UNL     1      -5.732  13.135  21.873  0.00  0.00    +0.000 N 
ATOM     10  C   UNL     1      -6.764  12.805  22.848  0.00  0.00    +0.000 C 
ATOM     11  C   UNL     1      -7.915  12.288  21.993  0.00  0.00    +0.000 C 
ATOM     12  C   UNL     1      -7.786  13.085  20.706  0.00  0.00    +0.000 C 
ATOM     13  C   UNL     1      -6.268  13.269  20.524  0.00  0.00    +0.000 C 
ATOM     14  C   UNL     1      -5.960  14.654  19.967  0.00  0.00    +0.000 C 
ATOM     15  N   UNL     1      -4.066  12.549  23.372  0.00  0.00    +0.000 NA
ATOM     16  C   UNL     1      -2.793  12.192  23.592  0.00  0.00    +0.000 A 
ATOM     17  C   UNL     1      -1.874  12.015  22.592  0.00  0.00    +0.000 A 
ATOM     18  F   UNL     1      -0.626  11.634  22.913  0.00  0.00    +0.000 F 
ENDBRANCH   4   6
BRANCH   1  19
ATOM     19  O   UNL     1       1.401  10.640  19.058  0.00  0.00    +0.000 OA
BRANCH  19  23
ATOM     20  C   UNL     1       2.330   6.535  18.906  0.00  0.00    +0.000 A 
ATOM     21  C   UNL     1       1.853   7.145  20.075  0.00  0.00    +0.000 A 
ATOM     22  C   UNL     1       1.568   8.523  20.097  0.00  0.00    +0.000 A 
ATOM     23  C   UNL     1       1.768   9.320  18.966  0.00  0.00    +0.000 A 
ATOM     24  C   UNL     1       2.267   8.717  17.809  0.00  0.00    +0.000 A 
ATOM     25  C   UNL     1       2.546   7.349  17.783  0.00  0.00    +0.000 A 
BRANCH  20  26
ATOM     26  C   UNL     1       2.544   5.029  18.808  0.00  0.00    +0.000 C 
ATOM     27  C   UNL     1       1.746   4.436  17.641  0.00  0.00    +0.000 C 
BRANCH  26  31
ATOM     28  C   UNL     1       2.009   2.840  21.871  0.00  0.00    +0.000 C 
ATOM     29  C   UNL     1       2.575   3.200  20.522  0.00  0.00    +0.000 C 
ATOM     30  O   UNL     1       3.322   2.457  19.899  0.00  0.00    +0.000 OA
ATOM     31  N   UNL     1       2.154   4.432  20.084  0.00  0.00    +0.000 N 
ATOM     32  H   UNL     1       1.693   5.036  20.753  0.00  0.00    +0.000 HD
ENDBRANCH  26  31
ENDBRANCH  20  26
ENDBRANCH  19  23
ENDBRANCH   1  19
TORSDOF 5
ENDMDL
