MODEL 1
REMARK VINA RESULT:      -7.0      0.000      0.000
REMARK  Name = 
REMARK  2 active torsions:
REMARK  status: ('A' for Active; 'I' for Inactive)
REMARK    1  A    between atoms: C_5  and  O_6
REMARK    2  A    between atoms: O_6  and  C_7
REMARK                            x       y       z     vdW  Elec       q    Type
REMARK                         _______ _______ _______ _____ _____    ______ ____
ROOT
ATOM      1  C   UNL     1       7.067   4.615  15.583  0.00  0.00    +0.000 A 
ATOM      2  C   UNL     1       5.895   3.973  15.944  0.00  0.00    +0.000 A 
ATOM      3  C   UNL     1       4.909   4.703  16.618  0.00  0.00    +0.000 A 
ATOM      4  C   UNL     1       3.720   4.099  17.049  0.00  0.00    +0.000 A 
ATOM      5  C   UNL     1       2.791   4.815  17.809  0.00  0.00    +0.000 A 
ATOM      6  C   UNL     1       2.991   6.173  18.042  0.00  0.00    +0.000 A 
ATOM      7  C   UNL     1       4.153   6.802  17.587  0.00  0.00    +0.000 A 
ATOM      8  C   UNL     1       5.131   6.065  16.893  0.00  0.00    +0.000 A 
ATOM      9  C   UNL     1       6.345   6.611  16.467  0.00  0.00    +0.000 A 
ATOM     10  N   UNL     1       7.316   5.917  15.826  0.00  0.00    +0.000 NA
ENDROOT
BRANCH   5  11
ATOM     11  O   UNL     1       1.674   4.267  18.388  0.00  0.00    +0.000 OA
BRANCH  11  12
ATOM     12  C   UNL     1       1.717   4.133  19.810  0.00  0.00    +0.000 C 
ATOM     13  C   UNL     1       0.727   3.106  20.349  0.00  0.00    +0.000 C 
ATOM     14  C   UNL     1       1.355   2.720  21.666  0.00  0.00    +0.000 C 
ATOM     15  N   UNL     1       2.785   2.592  21.361  0.00  0.00    +0.000 NA
ATOM     16  C   UNL     1       3.061   3.549  20.267  0.00  0.00    +0.000 C 
ATOM     17  H   UNL     1       2.951   1.650  21.002  0.00  0.00    +0.000 HD
ENDBRANCH  11  12
ENDBRANCH   5  11
TORSDOF 2
ENDMDL
MODEL 2
REMARK VINA RESULT:      -7.0      0.809      1.147
REMARK  Name = 
REMARK  2 active torsions:
REMARK  status: ('A' for Active; 'I' for Inactive)
REMARK    1  A    between atoms: C_5  and  O_6
REMARK    2  A    between atoms: O_6  and  C_7
REMARK                            x       y       z     vdW  Elec       q    Type
REMARK                         _______ _______ _______ _____ _____    ______ ____
ROOT
ATOM      1  C   UNL     1       7.122   4.868  15.824  0.00  0.00    +0.000 A 
ATOM      2  C   UNL     1       6.017   4.043  15.951  0.00  0.00    +0.000 A 
ATOM      3  C   UNL     1       4.881   4.537  16.604  0.00  0.00    +0.000 A 
ATOM      4  C   UNL     1       3.748   3.737  16.803  0.00  0.00    +0.000 A 
ATOM      5  C   UNL     1       2.662   4.210  17.545  0.00  0.00    +0.000 A 
ATOM      6  C   UNL     1       2.654   5.528  17.992  0.00  0.00    +0.000 A 
ATOM      7  C   UNL     1       3.760   6.354  17.770  0.00  0.00    +0.000 A 
ATOM      8  C   UNL     1       4.891   5.856  17.096  0.00  0.00    +0.000 A 
ATOM      9  C   UNL     1       6.057   6.601  16.896  0.00  0.00    +0.000 A 
ATOM     10  N   UNL     1       7.170   6.136  16.279  0.00  0.00    +0.000 NA
ENDROOT
BRANCH   5  11
ATOM     11  O   UNL     1       1.578   3.450  17.905  0.00  0.00    +0.000 OA
BRANCH  11  12
ATOM     12  C   UNL     1       1.700   2.745  19.142  0.00  0.00    +0.000 C 
ATOM     13  C   UNL     1       3.099   2.821  19.744  0.00  0.00    +0.000 C 
ATOM     14  C   UNL     1       2.829   2.577  21.209  0.00  0.00    +0.000 C 
ATOM     15  N   UNL     1       1.628   3.371  21.493  0.00  0.00    +0.000 NA
ATOM     16  C   UNL     1       0.848   3.403  20.236  0.00  0.00    +0.000 C 
ATOM     17  H   UNL     1       1.921   4.327  21.703  0.00  0.00    +0.000 HD
ENDBRANCH  11  12
ENDBRANCH   5  11
TORSDOF 2
ENDMDL
MODEL 3
REMARK VINA RESULT:      -6.9      1.547      5.804
REMARK  Name = 
REMARK  2 active torsions:
REMARK  status: ('A' for Active; 'I' for Inactive)
REMARK    1  A    between atoms: C_5  and  O_6
REMARK    2  A    between atoms: O_6  and  C_7
REMARK                            x       y       z     vdW  Elec       q    Type
REMARK                         _______ _______ _______ _____ _____    ______ ____
ROOT
ATOM      1  C   UNL     1       3.048   2.264  21.336  0.00  0.00    +0.000 A 
ATOM      2  C   UNL     1       3.800   2.593  20.221  0.00  0.00    +0.000 A 
ATOM      3  C   UNL     1       3.596   3.840  19.619  0.00  0.00    +0.000 A 
ATOM      4  C   UNL     1       4.294   4.215  18.462  0.00  0.00    +0.000 A 
ATOM      5  C   UNL     1       4.006   5.419  17.814  0.00  0.00    +0.000 A 
ATOM      6  C   UNL     1       3.102   6.311  18.385  0.00  0.00    +0.000 A 
ATOM      7  C   UNL     1       2.424   5.971  19.559  0.00  0.00    +0.000 A 
ATOM      8  C   UNL     1       2.649   4.723  20.170  0.00  0.00    +0.000 A 
ATOM      9  C   UNL     1       1.960   4.289  21.306  0.00  0.00    +0.000 A 
ATOM     10  N   UNL     1       2.134   3.081  21.895  0.00  0.00    +0.000 NA
ENDROOT
BRANCH   5  11
ATOM     11  O   UNL     1       4.538   5.798  16.608  0.00  0.00    +0.000 OA
BRANCH  11  12
ATOM     12  C   UNL     1       5.560   4.944  16.087  0.00  0.00    +0.000 C 
ATOM     13  C   UNL     1       5.404   4.657  14.598  0.00  0.00    +0.000 C 
ATOM     14  C   UNL     1       6.815   4.306  14.193  0.00  0.00    +0.000 C 
ATOM     15  N   UNL     1       7.647   5.295  14.887  0.00  0.00    +0.000 NA
ATOM     16  C   UNL     1       6.930   5.634  16.136  0.00  0.00    +0.000 C 
ATOM     17  H   UNL     1       7.688   6.138  14.311  0.00  0.00    +0.000 HD
ENDBRANCH  11  12
ENDBRANCH   5  11
TORSDOF 2
ENDMDL
MODEL 4
REMARK VINA RESULT:      -6.8      1.999      5.303
REMARK  Name = 
REMARK  2 active torsions:
REMARK  status: ('A' for Active; 'I' for Inactive)
REMARK    1  A    between atoms: C_5  and  O_6
REMARK    2  A    between atoms: O_6  and  C_7
REMARK                            x       y       z     vdW  Elec       q    Type
REMARK                         _______ _______ _______ _____ _____    ______ ____
ROOT
ATOM      1  C   UNL     1       1.369   1.937  18.716  0.00  0.00    +0.000 A 
ATOM      2  C   UNL     1       2.466   2.321  17.964  0.00  0.00    +0.000 A 
ATOM      3  C   UNL     1       2.858   3.665  17.986  0.00  0.00    +0.000 A 
ATOM      4  C   UNL     1       3.931   4.125  17.212  0.00  0.00    +0.000 A 
ATOM      5  C   UNL     1       4.246   5.486  17.165  0.00  0.00    +0.000 A 
ATOM      6  C   UNL     1       3.562   6.380  17.985  0.00  0.00    +0.000 A 
ATOM      7  C   UNL     1       2.513   5.934  18.793  0.00  0.00    +0.000 A 
ATOM      8  C   UNL     1       2.137   4.577  18.780  0.00  0.00    +0.000 A 
ATOM      9  C   UNL     1       1.058   4.072  19.510  0.00  0.00    +0.000 A 
ATOM     10  N   UNL     1       0.656   2.778  19.491  0.00  0.00    +0.000 NA
ENDROOT
BRANCH   5  11
ATOM     11  O   UNL     1       5.185   6.038  16.331  0.00  0.00    +0.000 OA
BRANCH  11  12
ATOM     12  C   UNL     1       6.538   5.963  16.787  0.00  0.00    +0.000 C 
ATOM     13  C   UNL     1       6.663   5.971  18.307  0.00  0.00    +0.000 C 
ATOM     14  C   UNL     1       7.997   5.298  18.519  0.00  0.00    +0.000 C 
ATOM     15  N   UNL     1       7.991   4.176  17.573  0.00  0.00    +0.000 NA
ATOM     16  C   UNL     1       7.166   4.610  16.424  0.00  0.00    +0.000 C 
ATOM     17  H   UNL     1       7.518   3.387  18.018  0.00  0.00    +0.000 HD
ENDBRANCH  11  12
ENDBRANCH   5  11
TORSDOF 2
ENDMDL
MODEL 5
REMARK VINA RESULT:      -6.7      1.506      6.138
REMARK  Name = 
REMARK  2 active torsions:
REMARK  status: ('A' for Active; 'I' for Inactive)
REMARK    1  A    between atoms: C_5  and  O_6
REMARK    2  A    between atoms: O_6  and  C_7
REMARK                            x       y       z     vdW  Elec       q    Type
REMARK                         _______ _______ _______ _____ _____    ______ ____
ROOT
ATOM      1  C   UNL     1       1.970   3.560  21.844  0.00  0.00    +0.000 A 
ATOM      2  C   UNL     1       2.634   4.494  21.067  0.00  0.00    +0.000 A 
ATOM      3  C   UNL     1       2.762   4.256  19.693  0.00  0.00    +0.000 A 
ATOM      4  C   UNL     1       3.461   5.141  18.861  0.00  0.00    +0.000 A 
ATOM      5  C   UNL     1       3.668   4.840  17.512  0.00  0.00    +0.000 A 
ATOM      6  C   UNL     1       3.076   3.707  16.960  0.00  0.00    +0.000 A 
ATOM      7  C   UNL     1       2.343   2.832  17.766  0.00  0.00    +0.000 A 
ATOM      8  C   UNL     1       2.202   3.088  19.143  0.00  0.00    +0.000 A 
ATOM      9  C   UNL     1       1.541   2.225  20.022  0.00  0.00    +0.000 A 
ATOM     10  N   UNL     1       1.418   2.431  21.355  0.00  0.00    +0.000 NA
ENDROOT
BRANCH   5  11
ATOM     11  O   UNL     1       4.455   5.577  16.664  0.00  0.00    +0.000 OA
BRANCH  11  12
ATOM     12  C   UNL     1       5.545   4.874  16.064  0.00  0.00    +0.000 C 
ATOM     13  C   UNL     1       5.462   4.817  14.543  0.00  0.00    +0.000 C 
ATOM     14  C   UNL     1       6.906   4.613  14.153  0.00  0.00    +0.000 C 
ATOM     15  N   UNL     1       7.650   5.524  15.030  0.00  0.00    +0.000 NA
ATOM     16  C   UNL     1       6.868   5.622  16.283  0.00  0.00    +0.000 C 
ATOM     17  H   UNL     1       7.660   6.449  14.595  0.00  0.00    +0.000 HD
ENDBRANCH  11  12
ENDBRANCH   5  11
TORSDOF 2
ENDMDL
MODEL 6
REMARK VINA RESULT:      -6.7      1.573      6.184
REMARK  Name = 
REMARK  2 active torsions:
REMARK  status: ('A' for Active; 'I' for Inactive)
REMARK    1  A    between atoms: C_5  and  O_6
REMARK    2  A    between atoms: O_6  and  C_7
REMARK                            x       y       z     vdW  Elec       q    Type
REMARK                         _______ _______ _______ _____ _____    ______ ____
ROOT
ATOM      1  C   UNL     1       0.655   3.189  20.489  0.00  0.00    +0.000 A 
ATOM      2  C   UNL     1       1.035   3.750  19.281  0.00  0.00    +0.000 A 
ATOM      3  C   UNL     1       2.399   3.813  18.971  0.00  0.00    +0.000 A 
ATOM      4  C   UNL     1       2.850   4.409  17.785  0.00  0.00    +0.000 A 
ATOM      5  C   UNL     1       4.218   4.556  17.536  0.00  0.00    +0.000 A 
ATOM      6  C   UNL     1       5.142   4.003  18.418  0.00  0.00    +0.000 A 
ATOM      7  C   UNL     1       4.710   3.371  19.587  0.00  0.00    +0.000 A 
ATOM      8  C   UNL     1       3.336   3.294  19.883  0.00  0.00    +0.000 A 
ATOM      9  C   UNL     1       2.835   2.737  21.063  0.00  0.00    +0.000 A 
ATOM     10  N   UNL     1       1.521   2.679  21.387  0.00  0.00    +0.000 NA
ENDROOT
BRANCH   5  11
ATOM     11  O   UNL     1       4.743   5.248  16.474  0.00  0.00    +0.000 OA
BRANCH  11  12
ATOM     12  C   UNL     1       5.760   4.568  15.736  0.00  0.00    +0.000 C 
ATOM     13  C   UNL     1       5.392   4.337  14.274  0.00  0.00    +0.000 C 
ATOM     14  C   UNL     1       6.747   4.201  13.623  0.00  0.00    +0.000 C 
ATOM     15  N   UNL     1       7.554   5.258  14.243  0.00  0.00    +0.000 NA
ATOM     16  C   UNL     1       7.022   5.434  15.612  0.00  0.00    +0.000 C 
ATOM     17  H   UNL     1       7.391   6.126  13.730  0.00  0.00    +0.000 HD
ENDBRANCH  11  12
ENDBRANCH   5  11
TORSDOF 2
ENDMDL
MODEL 7
REMARK VINA RESULT:      -6.7      1.653      5.873
REMARK  Name = 
REMARK  2 active torsions:
REMARK  status: ('A' for Active; 'I' for Inactive)
REMARK    1  A    between atoms: C_5  and  O_6
REMARK    2  A    between atoms: O_6  and  C_7
REMARK                            x       y       z     vdW  Elec       q    Type
REMARK                         _______ _______ _______ _____ _____    ______ ____
ROOT
ATOM      1  C   UNL     1       1.216   2.105  19.684  0.00  0.00    +0.000 A 
ATOM      2  C   UNL     1       2.179   2.435  18.745  0.00  0.00    +0.000 A 
ATOM      3  C   UNL     1       2.607   3.765  18.660  0.00  0.00    +0.000 A 
ATOM      4  C   UNL     1       3.545   4.170  17.702  0.00  0.00    +0.000 A 
ATOM      5  C   UNL     1       3.886   5.518  17.562  0.00  0.00    +0.000 A 
ATOM      6  C   UNL     1       3.379   6.454  18.460  0.00  0.00    +0.000 A 
ATOM      7  C   UNL     1       2.470   6.063  19.447  0.00  0.00    +0.000 A 
ATOM      8  C   UNL     1       2.059   4.719  19.538  0.00  0.00    +0.000 A 
ATOM      9  C   UNL     1       1.106   4.268  20.455  0.00  0.00    +0.000 A 
ATOM     10  N   UNL     1       0.670   2.988  20.543  0.00  0.00    +0.000 NA
ENDROOT
BRANCH   5  11
ATOM     11  O   UNL     1       4.685   6.018  16.565  0.00  0.00    +0.000 OA
BRANCH  11  12
ATOM     12  C   UNL     1       5.641   5.104  16.022  0.00  0.00    +0.000 C 
ATOM     13  C   UNL     1       5.446   4.843  14.532  0.00  0.00    +0.000 C 
ATOM     14  C   UNL     1       6.825   4.404  14.104  0.00  0.00    +0.000 C 
ATOM     15  N   UNL     1       7.730   5.329  14.796  0.00  0.00    +0.000 NA
ATOM     16  C   UNL     1       7.054   5.702  16.058  0.00  0.00    +0.000 C 
ATOM     17  H   UNL     1       7.819   6.173  14.227  0.00  0.00    +0.000 HD
ENDBRANCH  11  12
ENDBRANCH   5  11
TORSDOF 2
ENDMDL
MODEL 8
REMARK VINA RESULT:      -6.7      1.775      5.636
REMARK  Name = 
REMARK  2 active torsions:
REMARK  status: ('A' for Active; 'I' for Inactive)
REMARK    1  A    between atoms: C_5  and  O_6
REMARK    2  A    between atoms: O_6  and  C_7
REMARK                            x       y       z     vdW  Elec       q    Type
REMARK                         _______ _______ _______ _____ _____    ______ ____
ROOT
ATOM      1  C   UNL     1       1.301   3.855  21.036  0.00  0.00    +0.000 A 
ATOM      2  C   UNL     1       1.914   4.848  20.292  0.00  0.00    +0.000 A 
ATOM      3  C   UNL     1       2.584   4.490  19.116  0.00  0.00    +0.000 A 
ATOM      4  C   UNL     1       3.262   5.441  18.344  0.00  0.00    +0.000 A 
ATOM      5  C   UNL     1       4.012   5.054  17.229  0.00  0.00    +0.000 A 
ATOM      6  C   UNL     1       3.990   3.726  16.812  0.00  0.00    +0.000 A 
ATOM      7  C   UNL     1       3.288   2.767  17.549  0.00  0.00    +0.000 A 
ATOM      8  C   UNL     1       2.600   3.139  18.720  0.00  0.00    +0.000 A 
ATOM      9  C   UNL     1       1.933   2.226  19.541  0.00  0.00    +0.000 A 
ATOM     10  N   UNL     1       1.291   2.552  20.689  0.00  0.00    +0.000 NA
ENDROOT
BRANCH   5  11
ATOM     11  O   UNL     1       4.815   5.896  16.503  0.00  0.00    +0.000 OA
BRANCH  11  12
ATOM     12  C   UNL     1       6.191   5.923  16.888  0.00  0.00    +0.000 C 
ATOM     13  C   UNL     1       6.410   5.618  18.366  0.00  0.00    +0.000 C 
ATOM     14  C   UNL     1       7.834   5.119  18.380  0.00  0.00    +0.000 C 
ATOM     15  N   UNL     1       7.922   4.242  17.207  0.00  0.00    +0.000 NA
ATOM     16  C   UNL     1       6.974   4.790  16.211  0.00  0.00    +0.000 C 
ATOM     17  H   UNL     1       7.590   3.314  17.477  0.00  0.00    +0.000 HD
ENDBRANCH  11  12
ENDBRANCH   5  11
TORSDOF 2
ENDMDL
MODEL 9
REMARK VINA RESULT:      -6.6      1.745      1.931
REMARK  Name = 
REMARK  2 active torsions:
REMARK  status: ('A' for Active; 'I' for Inactive)
REMARK    1  A    between atoms: C_5  and  O_6
REMARK    2  A    between atoms: O_6  and  C_7
REMARK                            x       y       z     vdW  Elec       q    Type
REMARK                         _______ _______ _______ _____ _____    ______ ____
ROOT
ATOM      1  C   UNL     1       6.676   4.526  14.149  0.00  0.00    +0.000 A 
ATOM      2  C   UNL     1       5.739   3.942  14.984  0.00  0.00    +0.000 A 
ATOM      3  C   UNL     1       5.708   4.324  16.330  0.00  0.00    +0.000 A 
ATOM      4  C   UNL     1       4.813   3.737  17.235  0.00  0.00    +0.000 A 
ATOM      5  C   UNL     1       4.863   4.054  18.596  0.00  0.00    +0.000 A 
ATOM      6  C   UNL     1       5.730   5.049  19.040  0.00  0.00    +0.000 A 
ATOM      7  C   UNL     1       6.604   5.673  18.146  0.00  0.00    +0.000 A 
ATOM      8  C   UNL     1       6.616   5.297  16.789  0.00  0.00    +0.000 A 
ATOM      9  C   UNL     1       7.506   5.829  15.852  0.00  0.00    +0.000 A 
ATOM     10  N   UNL     1       7.559   5.462  14.549  0.00  0.00    +0.000 NA
ENDROOT
BRANCH   5  11
ATOM     11  O   UNL     1       4.123   3.428  19.567  0.00  0.00    +0.000 OA
BRANCH  11  12
ATOM     12  C   UNL     1       2.709   3.622  19.489  0.00  0.00    +0.000 C 
ATOM     13  C   UNL     1       1.964   2.411  18.939  0.00  0.00    +0.000 C 
ATOM     14  C   UNL     1       0.579   2.605  19.507  0.00  0.00    +0.000 C 
ATOM     15  N   UNL     1       0.812   3.029  20.892  0.00  0.00    +0.000 NA
ATOM     16  C   UNL     1       2.096   3.764  20.889  0.00  0.00    +0.000 C 
ATOM     17  H   UNL     1       0.933   2.191  21.466  0.00  0.00    +0.000 HD
ENDBRANCH  11  12
ENDBRANCH   5  11
TORSDOF 2
ENDMDL
