MODEL 1
REMARK VINA RESULT:      -8.4      0.000      0.000
REMARK  Name = 
REMARK  9 active torsions:
REMARK  status: ('A' for Active; 'I' for Inactive)
REMARK    1  A    between atoms: C_1  and  C_2
REMARK    2  A    between atoms: C_2  and  O_3
REMARK    3  A    between atoms: O_3  and  C_4
REMARK    4  A    between atoms: C_4  and  C_6
REMARK    5  A    between atoms: C_10  and  N_11
REMARK    6  A    between atoms: N_11  and  S_12
REMARK    7  A    between atoms: S_12  and  C_15
REMARK    8  A    between atoms: C_18  and  C_19
REMARK    9  A    between atoms: C_22  and  C_23
REMARK                            x       y       z     vdW  Elec       q    Type
REMARK                         _______ _______ _______ _____ _____    ______ ____
ROOT
ATOM      1  S   UNL     1       3.465   3.311  18.821  0.00  0.00    +0.000 S 
ATOM      2  O   UNL     1       3.267   2.970  17.429  0.00  0.00    +0.000 OA
ATOM      3  O   UNL     1       2.878   2.517  19.880  0.00  0.00    +0.000 OA
ENDROOT
BRANCH   1   4
ATOM      4  C   UNL     1       2.922   4.995  19.027  0.00  0.00    +0.000 A 
ATOM      5  C   UNL     1       2.980   5.862  17.932  0.00  0.00    +0.000 A 
ATOM      6  C   UNL     1       2.517   7.174  18.062  0.00  0.00    +0.000 A 
ATOM      7  C   UNL     1       1.981   7.627  19.277  0.00  0.00    +0.000 A 
ATOM      8  C   UNL     1       1.922   6.740  20.363  0.00  0.00    +0.000 A 
ATOM      9  C   UNL     1       2.377   5.422  20.240  0.00  0.00    +0.000 A 
BRANCH   7  10
ATOM     10  C   UNL     1       1.488   8.985  19.413  0.00  0.00    +0.000 A 
ATOM     11  C   UNL     1       1.420   9.925  18.411  0.00  0.00    +0.000 A 
ATOM     12  O   UNL     1       0.913  11.073  18.935  0.00  0.00    +0.000 OA
ATOM     13  C   UNL     1       0.683  10.765  20.248  0.00  0.00    +0.000 A 
ATOM     14  C   UNL     1       0.135  11.848  21.087  0.00  0.00    +0.000 C 
ATOM     15  N   UNL     1       0.999   9.529  20.582  0.00  0.00    +0.000 NA
ENDBRANCH   7  10
ENDBRANCH   1   4
BRANCH   1  16
ATOM     16  N   UNL     1       5.133   3.410  19.047  0.00  0.00    +0.000 N 
ATOM     17  H   UNL     1       5.562   2.536  19.343  0.00  0.00    +0.000 HD
BRANCH  16  22
ATOM     18  C   UNL     1       6.828   5.027  16.156  0.00  0.00    +0.000 A 
ATOM     19  C   UNL     1       7.375   6.153  16.787  0.00  0.00    +0.000 A 
ATOM     20  C   UNL     1       7.174   6.362  18.149  0.00  0.00    +0.000 A 
ATOM     21  C   UNL     1       6.423   5.448  18.885  0.00  0.00    +0.000 A 
ATOM     22  C   UNL     1       5.896   4.314  18.265  0.00  0.00    +0.000 A 
ATOM     23  C   UNL     1       6.095   4.094  16.904  0.00  0.00    +0.000 A 
BRANCH  18  24
ATOM     24  C   UNL     1       6.982   4.922  14.681  0.00  0.00    +0.000 C 
ATOM     25  O   UNL     1       7.790   5.576  14.040  0.00  0.00    +0.000 OA
BRANCH  24  26
ATOM     26  O   UNL     1       6.022   4.112  14.173  0.00  0.00    +0.000 OA
BRANCH  26  28
ATOM     27  C   UNL     1       4.970   3.436  12.139  0.00  0.00    +0.000 C 
ATOM     28  C   UNL     1       6.294   3.593  12.863  0.00  0.00    +0.000 C 
ENDBRANCH  26  28
ENDBRANCH  24  26
ENDBRANCH  18  24
ENDBRANCH  16  22
ENDBRANCH   1  16
TORSDOF 7
ENDMDL
MODEL 2
REMARK VINA RESULT:      -8.4      1.051      1.186
REMARK  Name = 
REMARK  9 active torsions:
REMARK  status: ('A' for Active; 'I' for Inactive)
REMARK    1  A    between atoms: C_1  and  C_2
REMARK    2  A    between atoms: C_2  and  O_3
REMARK    3  A    between atoms: O_3  and  C_4
REMARK    4  A    between atoms: C_4  and  C_6
REMARK    5  A    between atoms: C_10  and  N_11
REMARK    6  A    between atoms: N_11  and  S_12
REMARK    7  A    between atoms: S_12  and  C_15
REMARK    8  A    between atoms: C_18  and  C_19
REMARK    9  A    between atoms: C_22  and  C_23
REMARK                            x       y       z     vdW  Elec       q    Type
REMARK                         _______ _______ _______ _____ _____    ______ ____
ROOT
ATOM      1  S   UNL     1       2.814   3.185  18.387  0.00  0.00    +0.000 S 
ATOM      2  O   UNL     1       2.636   3.314  16.957  0.00  0.00    +0.000 OA
ATOM      3  O   UNL     1       2.115   2.167  19.143  0.00  0.00    +0.000 OA
ENDROOT
BRANCH   1   4
ATOM      4  C   UNL     1       2.426   4.769  19.104  0.00  0.00    +0.000 A 
ATOM      5  C   UNL     1       2.659   5.926  18.354  0.00  0.00    +0.000 A 
ATOM      6  C   UNL     1       2.319   7.174  18.882  0.00  0.00    +0.000 A 
ATOM      7  C   UNL     1       1.733   7.279  20.153  0.00  0.00    +0.000 A 
ATOM      8  C   UNL     1       1.498   6.107  20.888  0.00  0.00    +0.000 A 
ATOM      9  C   UNL     1       1.828   4.852  20.365  0.00  0.00    +0.000 A 
BRANCH   7  10
ATOM     10  C   UNL     1       1.367   8.573  20.700  0.00  0.00    +0.000 A 
ATOM     11  C   UNL     1       1.326   8.903  22.035  0.00  0.00    +0.000 A 
ATOM     12  O   UNL     1       0.929  10.200  22.141  0.00  0.00    +0.000 OA
ATOM     13  C   UNL     1       0.758  10.602  20.845  0.00  0.00    +0.000 A 
ATOM     14  C   UNL     1       0.305  11.993  20.646  0.00  0.00    +0.000 C 
ATOM     15  N   UNL     1       1.017   9.672  19.946  0.00  0.00    +0.000 NA
ENDBRANCH   7  10
ENDBRANCH   1   4
BRANCH   1  16
ATOM     16  N   UNL     1       4.474   3.040  18.643  0.00  0.00    +0.000 N 
ATOM     17  H   UNL     1       4.782   2.088  18.829  0.00  0.00    +0.000 HD
BRANCH  16  22
ATOM     18  C   UNL     1       6.510   4.717  16.018  0.00  0.00    +0.000 A 
ATOM     19  C   UNL     1       7.100   5.738  16.775  0.00  0.00    +0.000 A 
ATOM     20  C   UNL     1       6.816   5.858  18.134  0.00  0.00    +0.000 A 
ATOM     21  C   UNL     1       5.939   4.961  18.738  0.00  0.00    +0.000 A 
ATOM     22  C   UNL     1       5.366   3.930  17.992  0.00  0.00    +0.000 A 
ATOM     23  C   UNL     1       5.648   3.798  16.635  0.00  0.00    +0.000 A 
BRANCH  18  24
ATOM     24  C   UNL     1       6.764   4.712  14.553  0.00  0.00    +0.000 C 
ATOM     25  O   UNL     1       7.653   5.359  14.022  0.00  0.00    +0.000 OA
BRANCH  24  26
ATOM     26  O   UNL     1       5.798   4.006  13.919  0.00  0.00    +0.000 OA
BRANCH  26  28
ATOM     27  C   UNL     1       4.894   3.435  11.783  0.00  0.00    +0.000 C 
ATOM     28  C   UNL     1       6.158   3.511  12.621  0.00  0.00    +0.000 C 
ENDBRANCH  26  28
ENDBRANCH  24  26
ENDBRANCH  18  24
ENDBRANCH  16  22
ENDBRANCH   1  16
TORSDOF 7
ENDMDL
MODEL 3
REMARK VINA RESULT:      -7.9      1.895      3.329
REMARK  Name = 
REMARK  9 active torsions:
REMARK  status: ('A' for Active; 'I' for Inactive)
REMARK    1  A    between atoms: C_1  and  C_2
REMARK    2  A    between atoms: C_2  and  O_3
REMARK    3  A    between atoms: O_3  and  C_4
REMARK    4  A    between atoms: C_4  and  C_6
REMARK    5  A    between atoms: C_10  and  N_11
REMARK    6  A    between atoms: N_11  and  S_12
REMARK    7  A    between atoms: S_12  and  C_15
REMARK    8  A    between atoms: C_18  and  C_19
REMARK    9  A    between atoms: C_22  and  C_23
REMARK                            x       y       z     vdW  Elec       q    Type
REMARK                         _______ _______ _______ _____ _____    ______ ____
ROOT
ATOM      1  S   UNL     1       2.650   2.935  18.467  0.00  0.00    +0.000 S 
ATOM      2  O   UNL     1       2.264   2.899  17.073  0.00  0.00    +0.000 OA
ATOM      3  O   UNL     1       2.144   1.961  19.412  0.00  0.00    +0.000 OA
ENDROOT
BRANCH   1   4
ATOM      4  C   UNL     1       2.245   4.558  19.078  0.00  0.00    +0.000 A 
ATOM      5  C   UNL     1       1.846   4.699  20.410  0.00  0.00    +0.000 A 
ATOM      6  C   UNL     1       1.568   5.970  20.920  0.00  0.00    +0.000 A 
ATOM      7  C   UNL     1       1.698   7.110  20.111  0.00  0.00    +0.000 A 
ATOM      8  C   UNL     1       2.108   6.951  18.780  0.00  0.00    +0.000 A 
ATOM      9  C   UNL     1       2.396   5.683  18.262  0.00  0.00    +0.000 A 
BRANCH   7  10
ATOM     10  C   UNL     1       1.421   8.433  20.640  0.00  0.00    +0.000 A 
ATOM     11  C   UNL     1       1.444   8.794  21.968  0.00  0.00    +0.000 A 
ATOM     12  O   UNL     1       1.121  10.113  22.057  0.00  0.00    +0.000 OA
ATOM     13  C   UNL     1       0.926  10.495  20.758  0.00  0.00    +0.000 A 
ATOM     14  C   UNL     1       0.540  11.904  20.542  0.00  0.00    +0.000 C 
ATOM     15  N   UNL     1       1.102   9.533  19.873  0.00  0.00    +0.000 NA
ENDBRANCH   7  10
ENDBRANCH   1   4
BRANCH   1  16
ATOM     16  N   UNL     1       4.335   2.921  18.488  0.00  0.00    +0.000 N 
ATOM     17  H   UNL     1       4.739   1.999  18.642  0.00  0.00    +0.000 HD
BRANCH  16  22
ATOM     18  C   UNL     1       6.635   5.670  17.490  0.00  0.00    +0.000 A 
ATOM     19  C   UNL     1       6.465   5.645  16.099  0.00  0.00    +0.000 A 
ATOM     20  C   UNL     1       5.600   4.722  15.514  0.00  0.00    +0.000 A 
ATOM     21  C   UNL     1       4.906   3.821  16.318  0.00  0.00    +0.000 A 
ATOM     22  C   UNL     1       5.056   3.858  17.705  0.00  0.00    +0.000 A 
ATOM     23  C   UNL     1       5.914   4.780  18.299  0.00  0.00    +0.000 A 
BRANCH  18  24
ATOM     24  C   UNL     1       7.656   6.600  18.041  0.00  0.00    +0.000 C 
ATOM     25  O   UNL     1       8.142   6.483  19.155  0.00  0.00    +0.000 OA
BRANCH  24  26
ATOM     26  O   UNL     1       7.850   7.633  17.186  0.00  0.00    +0.000 OA
BRANCH  26  28
ATOM     27  C   UNL     1       8.679   9.616  18.228  0.00  0.00    +0.000 C 
ATOM     28  C   UNL     1       7.446   8.917  17.683  0.00  0.00    +0.000 C 
ENDBRANCH  26  28
ENDBRANCH  24  26
ENDBRANCH  18  24
ENDBRANCH  16  22
ENDBRANCH   1  16
TORSDOF 7
ENDMDL
MODEL 4
REMARK VINA RESULT:      -7.8      1.835      2.545
REMARK  Name = 
REMARK  9 active torsions:
REMARK  status: ('A' for Active; 'I' for Inactive)
REMARK    1  A    between atoms: C_1  and  C_2
REMARK    2  A    between atoms: C_2  and  O_3
REMARK    3  A    between atoms: O_3  and  C_4
REMARK    4  A    between atoms: C_4  and  C_6
REMARK    5  A    between atoms: C_10  and  N_11
REMARK    6  A    between atoms: N_11  and  S_12
REMARK    7  A    between atoms: S_12  and  C_15
REMARK    8  A    between atoms: C_18  and  C_19
REMARK    9  A    between atoms: C_22  and  C_23
REMARK                            x       y       z     vdW  Elec       q    Type
REMARK                         _______ _______ _______ _____ _____    ______ ____
ROOT
ATOM      1  S   UNL     1       3.042   6.110  18.758  0.00  0.00    +0.000 S 
ATOM      2  O   UNL     1       2.200   5.409  17.813  0.00  0.00    +0.000 OA
ATOM      3  O   UNL     1       3.616   5.431  19.900  0.00  0.00    +0.000 OA
ENDROOT
BRANCH   1   4
ATOM      4  C   UNL     1       2.105   7.501  19.357  0.00  0.00    +0.000 A 
ATOM      5  C   UNL     1       1.659   7.496  20.682  0.00  0.00    +0.000 A 
ATOM      6  C   UNL     1       0.961   8.597  21.183  0.00  0.00    +0.000 A 
ATOM      7  C   UNL     1       0.714   9.717  20.374  0.00  0.00    +0.000 A 
ATOM      8  C   UNL     1       1.177   9.710  19.050  0.00  0.00    +0.000 A 
ATOM      9  C   UNL     1       1.883   8.613  18.541  0.00  0.00    +0.000 A 
BRANCH   7  10
ATOM     10  C   UNL     1       0.000  10.869  20.894  0.00  0.00    +0.000 A 
ATOM     11  C   UNL     1      -0.118  12.093  20.277  0.00  0.00    +0.000 A 
ATOM     12  O   UNL     1      -0.850  12.908  21.083  0.00  0.00    +0.000 OA
ATOM     13  C   UNL     1      -1.155  12.122  22.161  0.00  0.00    +0.000 A 
ATOM     14  C   UNL     1      -1.949  12.759  23.231  0.00  0.00    +0.000 C 
ATOM     15  N   UNL     1      -0.680  10.894  22.093  0.00  0.00    +0.000 NA
ENDBRANCH   7  10
ENDBRANCH   1   4
BRANCH   1  16
ATOM     16  N   UNL     1       4.268   6.829  17.851  0.00  0.00    +0.000 N 
ATOM     17  H   UNL     1       4.457   7.796  18.107  0.00  0.00    +0.000 HD
BRANCH  16  22
ATOM     18  C   UNL     1       6.501   4.957  15.537  0.00  0.00    +0.000 A 
ATOM     19  C   UNL     1       7.470   4.501  16.441  0.00  0.00    +0.000 A 
ATOM     20  C   UNL     1       7.374   4.820  17.794  0.00  0.00    +0.000 A 
ATOM     21  C   UNL     1       6.310   5.598  18.246  0.00  0.00    +0.000 A 
ATOM     22  C   UNL     1       5.331   6.035  17.353  0.00  0.00    +0.000 A 
ATOM     23  C   UNL     1       5.416   5.718  15.999  0.00  0.00    +0.000 A 
BRANCH  18  24
ATOM     24  C   UNL     1       6.723   4.680  14.094  0.00  0.00    +0.000 C 
ATOM     25  O   UNL     1       7.549   5.270  13.414  0.00  0.00    +0.000 OA
BRANCH  24  26
ATOM     26  O   UNL     1       5.799   3.796  13.646  0.00  0.00    +0.000 OA
BRANCH  26  28
ATOM     27  C   UNL     1       4.624   3.243  11.641  0.00  0.00    +0.000 C 
ATOM     28  C   UNL     1       5.990   3.348  12.296  0.00  0.00    +0.000 C 
ENDBRANCH  26  28
ENDBRANCH  24  26
ENDBRANCH  18  24
ENDBRANCH  16  22
ENDBRANCH   1  16
TORSDOF 7
ENDMDL
MODEL 5
REMARK VINA RESULT:      -7.8      3.955      6.755
REMARK  Name = 
REMARK  9 active torsions:
REMARK  status: ('A' for Active; 'I' for Inactive)
REMARK    1  A    between atoms: C_1  and  C_2
REMARK    2  A    between atoms: C_2  and  O_3
REMARK    3  A    between atoms: O_3  and  C_4
REMARK    4  A    between atoms: C_4  and  C_6
REMARK    5  A    between atoms: C_10  and  N_11
REMARK    6  A    between atoms: N_11  and  S_12
REMARK    7  A    between atoms: S_12  and  C_15
REMARK    8  A    between atoms: C_18  and  C_19
REMARK    9  A    between atoms: C_22  and  C_23
REMARK                            x       y       z     vdW  Elec       q    Type
REMARK                         _______ _______ _______ _____ _____    ______ ____
ROOT
ATOM      1  S   UNL     1       6.962   4.833  17.670  0.00  0.00    +0.000 S 
ATOM      2  O   UNL     1       6.488   4.320  18.937  0.00  0.00    +0.000 OA
ATOM      3  O   UNL     1       8.002   4.155  16.926  0.00  0.00    +0.000 OA
ENDROOT
BRANCH   1   4
ATOM      4  C   UNL     1       7.490   6.511  17.952  0.00  0.00    +0.000 A 
ATOM      5  C   UNL     1       8.354   6.777  19.019  0.00  0.00    +0.000 A 
ATOM      6  C   UNL     1       8.814   8.078  19.230  0.00  0.00    +0.000 A 
ATOM      7  C   UNL     1       8.430   9.121  18.373  0.00  0.00    +0.000 A 
ATOM      8  C   UNL     1       7.570   8.835  17.303  0.00  0.00    +0.000 A 
ATOM      9  C   UNL     1       7.109   7.533  17.079  0.00  0.00    +0.000 A 
BRANCH   7  10
ATOM     10  C   UNL     1       8.915  10.474  18.582  0.00  0.00    +0.000 A 
ATOM     11  C   UNL     1       9.765  10.882  19.584  0.00  0.00    +0.000 A 
ATOM     12  O   UNL     1       9.975  12.219  19.447  0.00  0.00    +0.000 OA
ATOM     13  C   UNL     1       9.240  12.559  18.345  0.00  0.00    +0.000 A 
ATOM     14  C   UNL     1       9.265  13.983  17.956  0.00  0.00    +0.000 C 
ATOM     15  N   UNL     1       8.597  11.552  17.785  0.00  0.00    +0.000 NA
ENDBRANCH   7  10
ENDBRANCH   1   4
BRANCH   1  16
ATOM     16  N   UNL     1       5.597   5.014  16.697  0.00  0.00    +0.000 N 
ATOM     17  H   UNL     1       5.688   4.592  15.775  0.00  0.00    +0.000 HD
BRANCH  16  22
ATOM     18  C   UNL     1       2.337   4.023  18.191  0.00  0.00    +0.000 A 
ATOM     19  C   UNL     1       1.810   5.285  18.499  0.00  0.00    +0.000 A 
ATOM     20  C   UNL     1       2.537   6.439  18.212  0.00  0.00    +0.000 A 
ATOM     21  C   UNL     1       3.794   6.333  17.620  0.00  0.00    +0.000 A 
ATOM     22  C   UNL     1       4.312   5.079  17.293  0.00  0.00    +0.000 A 
ATOM     23  C   UNL     1       3.591   3.921  17.571  0.00  0.00    +0.000 A 
BRANCH  18  24
ATOM     24  C   UNL     1       1.563   2.831  18.626  0.00  0.00    +0.000 C 
ATOM     25  O   UNL     1       0.508   2.488  18.114  0.00  0.00    +0.000 OA
BRANCH  24  26
ATOM     26  O   UNL     1       2.132   2.288  19.729  0.00  0.00    +0.000 OA
BRANCH  26  28
ATOM     27  C   UNL     1       2.247   3.481  21.795  0.00  0.00    +0.000 C 
ATOM     28  C   UNL     1       1.424   2.519  20.956  0.00  0.00    +0.000 C 
ENDBRANCH  26  28
ENDBRANCH  24  26
ENDBRANCH  18  24
ENDBRANCH  16  22
ENDBRANCH   1  16
TORSDOF 7
ENDMDL
MODEL 6
REMARK VINA RESULT:      -7.5      1.961      7.917
REMARK  Name = 
REMARK  9 active torsions:
REMARK  status: ('A' for Active; 'I' for Inactive)
REMARK    1  A    between atoms: C_1  and  C_2
REMARK    2  A    between atoms: C_2  and  O_3
REMARK    3  A    between atoms: O_3  and  C_4
REMARK    4  A    between atoms: C_4  and  C_6
REMARK    5  A    between atoms: C_10  and  N_11
REMARK    6  A    between atoms: N_11  and  S_12
REMARK    7  A    between atoms: S_12  and  C_15
REMARK    8  A    between atoms: C_18  and  C_19
REMARK    9  A    between atoms: C_22  and  C_23
REMARK                            x       y       z     vdW  Elec       q    Type
REMARK                         _______ _______ _______ _____ _____    ______ ____
ROOT
ATOM      1  S   UNL     1       2.139   4.154  20.364  0.00  0.00    +0.000 S 
ATOM      2  O   UNL     1       2.642   3.155  21.282  0.00  0.00    +0.000 OA
ATOM      3  O   UNL     1       0.789   4.088  19.846  0.00  0.00    +0.000 OA
ENDROOT
BRANCH   1   4
ATOM      4  C   UNL     1       3.259   4.200  18.980  0.00  0.00    +0.000 A 
ATOM      5  C   UNL     1       2.749   4.016  17.691  0.00  0.00    +0.000 A 
ATOM      6  C   UNL     1       3.605   4.092  16.590  0.00  0.00    +0.000 A 
ATOM      7  C   UNL     1       4.971   4.366  16.761  0.00  0.00    +0.000 A 
ATOM      8  C   UNL     1       5.464   4.557  18.060  0.00  0.00    +0.000 A 
ATOM      9  C   UNL     1       4.613   4.489  19.170  0.00  0.00    +0.000 A 
BRANCH   7  10
ATOM     10  C   UNL     1       5.861   4.458  15.618  0.00  0.00    +0.000 A 
ATOM     11  C   UNL     1       7.064   5.124  15.583  0.00  0.00    +0.000 A 
ATOM     12  O   UNL     1       7.591   4.987  14.337  0.00  0.00    +0.000 OA
ATOM     13  C   UNL     1       6.673   4.223  13.671  0.00  0.00    +0.000 A 
ATOM     14  C   UNL     1       6.978   3.918  12.258  0.00  0.00    +0.000 C 
ATOM     15  N   UNL     1       5.627   3.872  14.393  0.00  0.00    +0.000 NA
ENDBRANCH   7  10
ENDBRANCH   1   4
BRANCH   1  16
ATOM     16  N   UNL     1       2.386   5.645  21.112  0.00  0.00    +0.000 N 
ATOM     17  H   UNL     1       3.181   5.661  21.747  0.00  0.00    +0.000 HD
BRANCH  16  22
ATOM     18  C   UNL     1       0.937   8.990  20.364  0.00  0.00    +0.000 A 
ATOM     19  C   UNL     1       1.401   9.175  19.054  0.00  0.00    +0.000 A 
ATOM     20  C   UNL     1       2.183   8.198  18.442  0.00  0.00    +0.000 A 
ATOM     21  C   UNL     1       2.507   7.036  19.139  0.00  0.00    +0.000 A 
ATOM     22  C   UNL     1       2.029   6.839  20.435  0.00  0.00    +0.000 A 
ATOM     23  C   UNL     1       1.242   7.807  21.054  0.00  0.00    +0.000 A 
BRANCH  18  24
ATOM     24  C   UNL     1       0.205  10.117  21.000  0.00  0.00    +0.000 C 
ATOM     25  O   UNL     1       0.481  10.563  22.103  0.00  0.00    +0.000 OA
BRANCH  24  26
ATOM     26  O   UNL     1      -0.862  10.461  20.240  0.00  0.00    +0.000 OA
BRANCH  26  28
ATOM     27  C   UNL     1      -1.353  12.082  18.555  0.00  0.00    +0.000 C 
ATOM     28  C   UNL     1      -1.025  11.871  20.023  0.00  0.00    +0.000 C 
ENDBRANCH  26  28
ENDBRANCH  24  26
ENDBRANCH  18  24
ENDBRANCH  16  22
ENDBRANCH   1  16
TORSDOF 7
ENDMDL
MODEL 7
REMARK VINA RESULT:      -7.4      3.238      8.952
REMARK  Name = 
REMARK  9 active torsions:
REMARK  status: ('A' for Active; 'I' for Inactive)
REMARK    1  A    between atoms: C_1  and  C_2
REMARK    2  A    between atoms: C_2  and  O_3
REMARK    3  A    between atoms: O_3  and  C_4
REMARK    4  A    between atoms: C_4  and  C_6
REMARK    5  A    between atoms: C_10  and  N_11
REMARK    6  A    between atoms: N_11  and  S_12
REMARK    7  A    between atoms: S_12  and  C_15
REMARK    8  A    between atoms: C_18  and  C_19
REMARK    9  A    between atoms: C_22  and  C_23
REMARK                            x       y       z     vdW  Elec       q    Type
REMARK                         _______ _______ _______ _____ _____    ______ ____
ROOT
ATOM      1  S   UNL     1       0.742   9.224  21.255  0.00  0.00    +0.000 S 
ATOM      2  O   UNL     1       1.603   9.519  22.379  0.00  0.00    +0.000 OA
ATOM      3  O   UNL     1      -0.580   8.665  21.447  0.00  0.00    +0.000 OA
ENDROOT
BRANCH   1   4
ATOM      4  C   UNL     1       1.649   8.137  20.175  0.00  0.00    +0.000 A 
ATOM      5  C   UNL     1       1.957   6.847  20.618  0.00  0.00    +0.000 A 
ATOM      6  C   UNL     1       2.629   5.965  19.769  0.00  0.00    +0.000 A 
ATOM      7  C   UNL     1       2.987   6.354  18.469  0.00  0.00    +0.000 A 
ATOM      8  C   UNL     1       2.662   7.649  18.037  0.00  0.00    +0.000 A 
ATOM      9  C   UNL     1       1.983   8.538  18.879  0.00  0.00    +0.000 A 
BRANCH   7  10
ATOM     10  C   UNL     1       3.675   5.436  17.579  0.00  0.00    +0.000 A 
ATOM     11  C   UNL     1       3.453   4.082  17.486  0.00  0.00    +0.000 A 
ATOM     12  O   UNL     1       4.299   3.574  16.550  0.00  0.00    +0.000 OA
ATOM     13  C   UNL     1       4.995   4.665  16.106  0.00  0.00    +0.000 A 
ATOM     14  C   UNL     1       6.019   4.410  15.073  0.00  0.00    +0.000 C 
ATOM     15  N   UNL     1       4.654   5.802  16.680  0.00  0.00    +0.000 NA
ENDBRANCH   7  10
ENDBRANCH   1   4
BRANCH   1  16
ATOM     16  N   UNL     1       0.628  10.651  20.364  0.00  0.00    +0.000 N 
ATOM     17  H   UNL     1       1.330  10.736  19.631  0.00  0.00    +0.000 HD
BRANCH  16  22
ATOM     18  C   UNL     1      -2.630  11.639  18.863  0.00  0.00    +0.000 A 
ATOM     19  C   UNL     1      -3.132  12.464  19.879  0.00  0.00    +0.000 A 
ATOM     20  C   UNL     1      -2.391  12.678  21.039  0.00  0.00    +0.000 A 
ATOM     21  C   UNL     1      -1.149  12.065  21.189  0.00  0.00    +0.000 A 
ATOM     22  C   UNL     1      -0.637  11.261  20.170  0.00  0.00    +0.000 A 
ATOM     23  C   UNL     1      -1.367  11.045  19.004  0.00  0.00    +0.000 A 
BRANCH  18  24
ATOM     24  C   UNL     1      -3.516  11.360  17.703  0.00  0.00    +0.000 C 
ATOM     25  O   UNL     1      -4.725  11.210  17.799  0.00  0.00    +0.000 OA
BRANCH  24  26
ATOM     26  O   UNL     1      -2.772  11.173  16.587  0.00  0.00    +0.000 OA
BRANCH  26  28
ATOM     27  C   UNL     1      -3.050  10.165  14.439  0.00  0.00    +0.000 C 
ATOM     28  C   UNL     1      -2.961   9.909  15.933  0.00  0.00    +0.000 C 
ENDBRANCH  26  28
ENDBRANCH  24  26
ENDBRANCH  18  24
ENDBRANCH  16  22
ENDBRANCH   1  16
TORSDOF 7
ENDMDL
MODEL 8
REMARK VINA RESULT:      -7.4      1.194      1.675
REMARK  Name = 
REMARK  9 active torsions:
REMARK  status: ('A' for Active; 'I' for Inactive)
REMARK    1  A    between atoms: C_1  and  C_2
REMARK    2  A    between atoms: C_2  and  O_3
REMARK    3  A    between atoms: O_3  and  C_4
REMARK    4  A    between atoms: C_4  and  C_6
REMARK    5  A    between atoms: C_10  and  N_11
REMARK    6  A    between atoms: N_11  and  S_12
REMARK    7  A    between atoms: S_12  and  C_15
REMARK    8  A    between atoms: C_18  and  C_19
REMARK    9  A    between atoms: C_22  and  C_23
REMARK                            x       y       z     vdW  Elec       q    Type
REMARK                         _______ _______ _______ _____ _____    ______ ____
ROOT
ATOM      1  S   UNL     1       3.397   3.286  18.912  0.00  0.00    +0.000 S 
ATOM      2  O   UNL     1       3.332   3.260  17.467  0.00  0.00    +0.000 OA
ATOM      3  O   UNL     1       2.782   2.247  19.711  0.00  0.00    +0.000 OA
ENDROOT
BRANCH   1   4
ATOM      4  C   UNL     1       2.728   4.852  19.435  0.00  0.00    +0.000 A 
ATOM      5  C   UNL     1       1.960   4.903  20.602  0.00  0.00    +0.000 A 
ATOM      6  C   UNL     1       1.465   6.129  21.052  0.00  0.00    +0.000 A 
ATOM      7  C   UNL     1       1.741   7.314  20.353  0.00  0.00    +0.000 A 
ATOM      8  C   UNL     1       2.522   7.246  19.189  0.00  0.00    +0.000 A 
ATOM      9  C   UNL     1       3.028   6.023  18.734  0.00  0.00    +0.000 A 
BRANCH   7  10
ATOM     10  C   UNL     1       1.238   8.592  20.824  0.00  0.00    +0.000 A 
ATOM     11  C   UNL     1       1.382   9.098  22.095  0.00  0.00    +0.000 A 
ATOM     12  O   UNL     1       0.767  10.310  22.144  0.00  0.00    +0.000 OA
ATOM     13  C   UNL     1       0.282  10.487  20.877  0.00  0.00    +0.000 A 
ATOM     14  C   UNL     1      -0.463  11.737  20.631  0.00  0.00    +0.000 C 
ATOM     15  N   UNL     1       0.545   9.495  20.048  0.00  0.00    +0.000 NA
ENDBRANCH   7  10
ENDBRANCH   1   4
BRANCH   1  16
ATOM     16  N   UNL     1       5.031   3.410  19.307  0.00  0.00    +0.000 N 
ATOM     17  H   UNL     1       5.455   2.530  19.591  0.00  0.00    +0.000 HD
BRANCH  16  22
ATOM     18  C   UNL     1       6.569   5.545  16.675  0.00  0.00    +0.000 A 
ATOM     19  C   UNL     1       7.431   6.325  17.460  0.00  0.00    +0.000 A 
ATOM     20  C   UNL     1       7.488   6.136  18.839  0.00  0.00    +0.000 A 
ATOM     21  C   UNL     1       6.682   5.171  19.438  0.00  0.00    +0.000 A 
ATOM     22  C   UNL     1       5.840   4.378  18.658  0.00  0.00    +0.000 A 
ATOM     23  C   UNL     1       5.778   4.555  17.278  0.00  0.00    +0.000 A 
BRANCH  18  24
ATOM     24  C   UNL     1       6.471   5.873  15.229  0.00  0.00    +0.000 C 
ATOM     25  O   UNL     1       5.538   6.493  14.741  0.00  0.00    +0.000 OA
BRANCH  24  26
ATOM     26  O   UNL     1       7.479   5.276  14.550  0.00  0.00    +0.000 OA
BRANCH  26  28
ATOM     27  C   UNL     1       6.112   3.667  13.435  0.00  0.00    +0.000 C 
ATOM     28  C   UNL     1       7.128   4.779  13.250  0.00  0.00    +0.000 C 
ENDBRANCH  26  28
ENDBRANCH  24  26
ENDBRANCH  18  24
ENDBRANCH  16  22
ENDBRANCH   1  16
TORSDOF 7
ENDMDL
MODEL 9
REMARK VINA RESULT:      -7.3      4.185      9.956
REMARK  Name = 
REMARK  9 active torsions:
REMARK  status: ('A' for Active; 'I' for Inactive)
REMARK    1  A    between atoms: C_1  and  C_2
REMARK    2  A    between atoms: C_2  and  O_3
REMARK    3  A    between atoms: O_3  and  C_4
REMARK    4  A    between atoms: C_4  and  C_6
REMARK    5  A    between atoms: C_10  and  N_11
REMARK    6  A    between atoms: N_11  and  S_12
REMARK    7  A    between atoms: S_12  and  C_15
REMARK    8  A    between atoms: C_18  and  C_19
REMARK    9  A    between atoms: C_22  and  C_23
REMARK                            x       y       z     vdW  Elec       q    Type
REMARK                         _______ _______ _______ _____ _____    ______ ____
ROOT
ATOM      1  S   UNL     1       0.363  11.140  19.967  0.00  0.00    +0.000 S 
ATOM      2  O   UNL     1       1.404  12.104  20.250  0.00  0.00    +0.000 OA
ATOM      3  O   UNL     1      -0.725  10.914  20.895  0.00  0.00    +0.000 OA
ENDROOT
BRANCH   1   4
ATOM      4  C   UNL     1       1.167   9.578  19.669  0.00  0.00    +0.000 A 
ATOM      5  C   UNL     1       1.220   8.637  20.701  0.00  0.00    +0.000 A 
ATOM      6  C   UNL     1       1.806   7.390  20.473  0.00  0.00    +0.000 A 
ATOM      7  C   UNL     1       2.332   7.066  19.213  0.00  0.00    +0.000 A 
ATOM      8  C   UNL     1       2.263   8.018  18.186  0.00  0.00    +0.000 A 
ATOM      9  C   UNL     1       1.671   9.268  18.403  0.00  0.00    +0.000 A 
BRANCH   7  10
ATOM     10  C   UNL     1       2.932   5.767  18.968  0.00  0.00    +0.000 A 
ATOM     11  C   UNL     1       3.196   5.218  17.734  0.00  0.00    +0.000 A 
ATOM     12  O   UNL     1       3.748   3.989  17.923  0.00  0.00    +0.000 OA
ATOM     13  C   UNL     1       3.802   3.856  19.284  0.00  0.00    +0.000 A 
ATOM     14  C   UNL     1       4.354   2.585  19.794  0.00  0.00    +0.000 C 
ATOM     15  N   UNL     1       3.338   4.893  19.953  0.00  0.00    +0.000 NA
ENDBRANCH   7  10
ENDBRANCH   1   4
BRANCH   1  16
ATOM     16  N   UNL     1      -0.259  11.551  18.455  0.00  0.00    +0.000 N 
ATOM     17  H   UNL     1       0.444  11.610  17.721  0.00  0.00    +0.000 HD
BRANCH  16  22
ATOM     18  C   UNL     1      -3.973  11.389  18.280  0.00  0.00    +0.000 A 
ATOM     19  C   UNL     1      -4.133  10.358  17.344  0.00  0.00    +0.000 A 
ATOM     20  C   UNL     1      -3.018   9.737  16.786  0.00  0.00    +0.000 A 
ATOM     21  C   UNL     1      -1.740  10.147  17.159  0.00  0.00    +0.000 A 
ATOM     22  C   UNL     1      -1.576  11.158  18.106  0.00  0.00    +0.000 A 
ATOM     23  C   UNL     1      -2.685  11.782  18.674  0.00  0.00    +0.000 A 
BRANCH  18  24
ATOM     24  C   UNL     1      -5.198  12.087  18.751  0.00  0.00    +0.000 C 
ATOM     25  O   UNL     1      -5.176  13.100  19.433  0.00  0.00    +0.000 OA
BRANCH  24  26
ATOM     26  O   UNL     1      -6.296  11.363  18.426  0.00  0.00    +0.000 OA
BRANCH  26  28
ATOM     27  C   UNL     1      -7.059   9.365  19.488  0.00  0.00    +0.000 C 
ATOM     28  C   UNL     1      -7.061  10.882  19.540  0.00  0.00    +0.000 C 
ENDBRANCH  26  28
ENDBRANCH  24  26
ENDBRANCH  18  24
ENDBRANCH  16  22
ENDBRANCH   1  16
TORSDOF 7
ENDMDL
