MODEL 1
REMARK VINA RESULT:      -7.6      0.000      0.000
REMARK  Name = 
REMARK  7 active torsions:
REMARK  status: ('A' for Active; 'I' for Inactive)
REMARK    1  A    between atoms: C_1  and  C_2
REMARK    2  A    between atoms: C_5  and  C_6
REMARK    3  A    between atoms: C_10  and  C_12
REMARK    4  A    between atoms: C_12  and  N_13
REMARK    5  A    between atoms: N_16  and  C_17
REMARK    6  A    between atoms: C_21  and  N_22
REMARK    7  A    between atoms: C_26  and  C_27
REMARK                            x       y       z     vdW  Elec       q    Type
REMARK                         _______ _______ _______ _____ _____    ______ ____
ROOT
ATOM      1  C   UNL     1       6.434   4.933  15.926  0.00  0.00    +0.000 A 
ATOM      2  N   UNL     1       6.937   6.075  16.416  0.00  0.00    +0.000 NA
ATOM      3  C   UNL     1       6.549   6.436  17.645  0.00  0.00    +0.000 A 
ATOM      4  N   UNL     1       7.095   7.575  18.265  0.00  0.00    +0.000 N 
ATOM      5  C   UNL     1       8.115   8.350  17.747  0.00  0.00    +0.000 C 
ATOM      6  O   UNL     1       8.677   8.187  16.661  0.00  0.00    +0.000 OA
ATOM      7  C   UNL     1       5.631   5.699  18.367  0.00  0.00    +0.000 A 
ATOM      8  C   UNL     1       5.231   4.497  17.813  0.00  0.00    +0.000 A 
ATOM      9  N   UNL     1       5.621   4.102  16.587  0.00  0.00    +0.000 NA
ATOM     10  H   UNL     1       6.791   7.780  19.207  0.00  0.00    +0.000 HD
ENDROOT
BRANCH   1  15
ATOM     11  C   UNL     1       5.530   2.650  11.794  0.00  0.00    +0.000 C 
ATOM     12  C   UNL     1       6.292   3.598  12.629  0.00  0.00    +0.000 A 
ATOM     13  C   UNL     1       7.296   4.504  12.366  0.00  0.00    +0.000 A 
ATOM     14  C   UNL     1       7.577   5.158  13.592  0.00  0.00    +0.000 A 
ATOM     15  C   UNL     1       6.714   4.627  14.533  0.00  0.00    +0.000 A 
ATOM     16  O   UNL     1       5.948   3.652  13.946  0.00  0.00    +0.000 OA
ENDBRANCH   1  15
BRANCH   8  17
ATOM     17  N   UNL     1       4.413   3.614  18.587  0.00  0.00    +0.000 N 
ATOM     18  N   UNL     1       4.965   2.827  19.558  0.00  0.00    +0.000 NA
ATOM     19  C   UNL     1       3.944   2.118  20.038  0.00  0.00    +0.000 A 
ATOM     20  C   UNL     1       2.735   2.411  19.398  0.00  0.00    +0.000 A 
ATOM     21  C   UNL     1       3.049   3.370  18.459  0.00  0.00    +0.000 A 
ATOM     22  C   UNL     1       2.175   4.006  17.436  0.00  0.00    +0.000 C 
ENDBRANCH   8  17
BRANCH   5  23
ATOM     23  C   UNL     1       8.555   9.498  18.672  0.00  0.00    +0.000 C 
BRANCH  23  24
ATOM     24  N   UNL     1       9.176  10.620  17.934  0.00  0.00    +0.000 NA
ATOM     25  C   UNL     1      10.540  10.878  18.459  0.00  0.00    +0.000 C 
ATOM     26  C   UNL     1      11.248  12.073  17.764  0.00  0.00    +0.000 C 
ATOM     27  N   UNL     1      10.468  13.323  17.679  0.00  0.00    +0.000 NA
ATOM     28  C   UNL     1      10.494  14.075  18.930  0.00  0.00    +0.000 C 
ATOM     29  C   UNL     1       9.086  13.015  17.260  0.00  0.00    +0.000 C 
ATOM     30  C   UNL     1       8.406  11.880  18.062  0.00  0.00    +0.000 C 
ENDBRANCH  23  24
ENDBRANCH   5  23
TORSDOF 4
ENDMDL
MODEL 2
REMARK VINA RESULT:      -7.5      0.944      1.381
REMARK  Name = 
REMARK  7 active torsions:
REMARK  status: ('A' for Active; 'I' for Inactive)
REMARK    1  A    between atoms: C_1  and  C_2
REMARK    2  A    between atoms: C_5  and  C_6
REMARK    3  A    between atoms: C_10  and  C_12
REMARK    4  A    between atoms: C_12  and  N_13
REMARK    5  A    between atoms: N_16  and  C_17
REMARK    6  A    between atoms: C_21  and  N_22
REMARK    7  A    between atoms: C_26  and  C_27
REMARK                            x       y       z     vdW  Elec       q    Type
REMARK                         _______ _______ _______ _____ _____    ______ ____
ROOT
ATOM      1  C   UNL     1       5.825   4.931  15.579  0.00  0.00    +0.000 A 
ATOM      2  N   UNL     1       6.466   5.976  16.121  0.00  0.00    +0.000 NA
ATOM      3  C   UNL     1       5.977   6.464  17.268  0.00  0.00    +0.000 A 
ATOM      4  N   UNL     1       6.640   7.505  17.946  0.00  0.00    +0.000 N 
ATOM      5  C   UNL     1       7.860   8.040  17.582  0.00  0.00    +0.000 C 
ATOM      6  O   UNL     1       8.535   7.719  16.600  0.00  0.00    +0.000 OA
ATOM      7  C   UNL     1       4.833   5.956  17.849  0.00  0.00    +0.000 A 
ATOM      8  C   UNL     1       4.289   4.829  17.260  0.00  0.00    +0.000 A 
ATOM      9  N   UNL     1       4.773   4.307  16.119  0.00  0.00    +0.000 NA
ATOM     10  H   UNL     1       6.244   7.811  18.825  0.00  0.00    +0.000 HD
ENDROOT
BRANCH   1  15
ATOM     11  C   UNL     1       5.184   2.537  11.460  0.00  0.00    +0.000 C 
ATOM     12  C   UNL     1       5.948   3.430  12.353  0.00  0.00    +0.000 A 
ATOM     13  C   UNL     1       7.090   4.185  12.196  0.00  0.00    +0.000 A 
ATOM     14  C   UNL     1       7.289   4.870  13.421  0.00  0.00    +0.000 A 
ATOM     15  C   UNL     1       6.246   4.509  14.253  0.00  0.00    +0.000 A 
ATOM     16  O   UNL     1       5.441   3.606  13.605  0.00  0.00    +0.000 OA
ENDBRANCH   1  15
BRANCH   8  17
ATOM     17  N   UNL     1       3.204   4.161  17.912  0.00  0.00    +0.000 N 
ATOM     18  N   UNL     1       1.911   4.441  17.574  0.00  0.00    +0.000 NA
ATOM     19  C   UNL     1       1.177   3.684  18.389  0.00  0.00    +0.000 A 
ATOM     20  C   UNL     1       1.957   2.921  19.264  0.00  0.00    +0.000 A 
ATOM     21  C   UNL     1       3.262   3.240  18.954  0.00  0.00    +0.000 A 
ATOM     22  C   UNL     1       4.520   2.790  19.607  0.00  0.00    +0.000 C 
ENDBRANCH   8  17
BRANCH   5  23
ATOM     23  C   UNL     1       8.376   9.125  18.544  0.00  0.00    +0.000 C 
BRANCH  23  24
ATOM     24  N   UNL     1       8.786  10.362  17.844  0.00  0.00    +0.000 NA
ATOM     25  C   UNL     1      10.058  10.869  18.415  0.00  0.00    +0.000 C 
ATOM     26  C   UNL     1      10.537  12.193  17.761  0.00  0.00    +0.000 C 
ATOM     27  N   UNL     1       9.531  13.269  17.671  0.00  0.00    +0.000 NA
ATOM     28  C   UNL     1       9.375  13.985  18.934  0.00  0.00    +0.000 C 
ATOM     29  C   UNL     1       8.248  12.707  17.204  0.00  0.00    +0.000 C 
ATOM     30  C   UNL     1       7.781  11.444  17.967  0.00  0.00    +0.000 C 
ENDBRANCH  23  24
ENDBRANCH   5  23
TORSDOF 4
ENDMDL
MODEL 3
REMARK VINA RESULT:      -7.5      5.392      7.687
REMARK  Name = 
REMARK  7 active torsions:
REMARK  status: ('A' for Active; 'I' for Inactive)
REMARK    1  A    between atoms: C_1  and  C_2
REMARK    2  A    between atoms: C_5  and  C_6
REMARK    3  A    between atoms: C_10  and  C_12
REMARK    4  A    between atoms: C_12  and  N_13
REMARK    5  A    between atoms: N_16  and  C_17
REMARK    6  A    between atoms: C_21  and  N_22
REMARK    7  A    between atoms: C_26  and  C_27
REMARK                            x       y       z     vdW  Elec       q    Type
REMARK                         _______ _______ _______ _____ _____    ______ ____
ROOT
ATOM      1  C   UNL     1       2.808   5.171  18.065  0.00  0.00    +0.000 A 
ATOM      2  N   UNL     1       2.453   6.439  18.315  0.00  0.00    +0.000 NA
ATOM      3  C   UNL     1       3.235   7.403  17.812  0.00  0.00    +0.000 A 
ATOM      4  N   UNL     1       2.886   8.759  17.956  0.00  0.00    +0.000 N 
ATOM      5  C   UNL     1       1.708   9.222  18.510  0.00  0.00    +0.000 C 
ATOM      6  O   UNL     1       0.805   8.531  18.989  0.00  0.00    +0.000 OA
ATOM      7  C   UNL     1       4.388   7.115  17.110  0.00  0.00    +0.000 A 
ATOM      8  C   UNL     1       4.628   5.781  16.835  0.00  0.00    +0.000 A 
ATOM      9  N   UNL     1       3.847   4.795  17.312  0.00  0.00    +0.000 NA
ATOM     10  H   UNL     1       3.495   9.442  17.527  0.00  0.00    +0.000 HD
ENDROOT
BRANCH   1  15
ATOM     11  C   UNL     1       1.641   2.629  21.975  0.00  0.00    +0.000 C 
ATOM     12  C   UNL     1       1.511   2.970  20.544  0.00  0.00    +0.000 A 
ATOM     13  C   UNL     1       0.652   2.570  19.544  0.00  0.00    +0.000 A 
ATOM     14  C   UNL     1       1.016   3.304  18.387  0.00  0.00    +0.000 A 
ATOM     15  C   UNL     1       2.066   4.126  18.750  0.00  0.00    +0.000 A 
ATOM     16  O   UNL     1       2.385   3.899  20.066  0.00  0.00    +0.000 OA
ENDBRANCH   1  15
BRANCH   8  17
ATOM     17  N   UNL     1       5.714   5.436  15.970  0.00  0.00    +0.000 N 
ATOM     18  N   UNL     1       5.560   5.466  14.613  0.00  0.00    +0.000 NA
ATOM     19  C   UNL     1       6.733   5.055  14.131  0.00  0.00    +0.000 A 
ATOM     20  C   UNL     1       7.652   4.743  15.140  0.00  0.00    +0.000 A 
ATOM     21  C   UNL     1       6.983   4.984  16.321  0.00  0.00    +0.000 A 
ATOM     22  C   UNL     1       7.437   4.760  17.720  0.00  0.00    +0.000 C 
ENDBRANCH   8  17
BRANCH   5  23
ATOM     23  C   UNL     1       1.567  10.754  18.481  0.00  0.00    +0.000 C 
BRANCH  23  24
ATOM     24  N   UNL     1       0.550  11.253  19.432  0.00  0.00    +0.000 NA
ATOM     25  C   UNL     1      -0.601  11.824  18.690  0.00  0.00    +0.000 C 
ATOM     26  C   UNL     1      -1.699  12.410  19.619  0.00  0.00    +0.000 C 
ATOM     27  N   UNL     1      -1.229  13.340  20.665  0.00  0.00    +0.000 NA
ATOM     28  C   UNL     1      -0.995  14.683  20.145  0.00  0.00    +0.000 C 
ATOM     29  C   UNL     1      -0.019  12.788  21.307  0.00  0.00    +0.000 C 
ATOM     30  C   UNL     1       1.076  12.315  20.321  0.00  0.00    +0.000 C 
ENDBRANCH  23  24
ENDBRANCH   5  23
TORSDOF 4
ENDMDL
MODEL 4
REMARK VINA RESULT:      -7.3      7.868     10.628
REMARK  Name = 
REMARK  7 active torsions:
REMARK  status: ('A' for Active; 'I' for Inactive)
REMARK    1  A    between atoms: C_1  and  C_2
REMARK    2  A    between atoms: C_5  and  C_6
REMARK    3  A    between atoms: C_10  and  C_12
REMARK    4  A    between atoms: C_12  and  N_13
REMARK    5  A    between atoms: N_16  and  C_17
REMARK    6  A    between atoms: C_21  and  N_22
REMARK    7  A    between atoms: C_26  and  C_27
REMARK                            x       y       z     vdW  Elec       q    Type
REMARK                         _______ _______ _______ _____ _____    ______ ____
ROOT
ATOM      1  C   UNL     1      -1.565  11.249  18.542  0.00  0.00    +0.000 A 
ATOM      2  N   UNL     1      -0.508  10.460  18.306  0.00  0.00    +0.000 NA
ATOM      3  C   UNL     1       0.543  10.587  19.126  0.00  0.00    +0.000 A 
ATOM      4  N   UNL     1       1.659   9.737  19.000  0.00  0.00    +0.000 N 
ATOM      5  C   UNL     1       1.748   8.665  18.133  0.00  0.00    +0.000 C 
ATOM      6  O   UNL     1       0.890   8.310  17.320  0.00  0.00    +0.000 OA
ATOM      7  C   UNL     1       0.569  11.522  20.141  0.00  0.00    +0.000 A 
ATOM      8  C   UNL     1      -0.597  12.233  20.355  0.00  0.00    +0.000 A 
ATOM      9  N   UNL     1      -1.674  12.111  19.558  0.00  0.00    +0.000 NA
ATOM     10  H   UNL     1       2.408   9.855  19.668  0.00  0.00    +0.000 HD
ENDROOT
BRANCH   1  15
ATOM     11  C   UNL     1      -3.378  10.163  14.223  0.00  0.00    +0.000 C 
ATOM     12  C   UNL     1      -3.477  10.725  15.584  0.00  0.00    +0.000 A 
ATOM     13  C   UNL     1      -4.519  11.227  16.333  0.00  0.00    +0.000 A 
ATOM     14  C   UNL     1      -3.976  11.569  17.598  0.00  0.00    +0.000 A 
ATOM     15  C   UNL     1      -2.634  11.239  17.556  0.00  0.00    +0.000 A 
ATOM     16  O   UNL     1      -2.326  10.748  16.312  0.00  0.00    +0.000 OA
ENDBRANCH   1  15
BRANCH   8  17
ATOM     17  N   UNL     1      -0.685  13.095  21.495  0.00  0.00    +0.000 N 
ATOM     18  N   UNL     1      -0.164  14.357  21.454  0.00  0.00    +0.000 NA
ATOM     19  C   UNL     1      -0.382  14.851  22.673  0.00  0.00    +0.000 A 
ATOM     20  C   UNL     1      -1.022  13.938  23.519  0.00  0.00    +0.000 A 
ATOM     21  C   UNL     1      -1.207  12.807  22.753  0.00  0.00    +0.000 A 
ATOM     22  C   UNL     1      -1.772  11.488  23.145  0.00  0.00    +0.000 C 
ENDBRANCH   8  17
BRANCH   5  23
ATOM     23  C   UNL     1       3.061   7.874  18.255  0.00  0.00    +0.000 C 
BRANCH  23  24
ATOM     24  N   UNL     1       2.879   6.424  18.025  0.00  0.00    +0.000 NA
ATOM     25  C   UNL     1       2.494   5.754  19.292  0.00  0.00    +0.000 C 
ATOM     26  C   UNL     1       2.323   4.218  19.145  0.00  0.00    +0.000 C 
ATOM     27  N   UNL     1       3.435   3.506  18.487  0.00  0.00    +0.000 NA
ATOM     28  C   UNL     1       4.552   3.264  19.396  0.00  0.00    +0.000 C 
ATOM     29  C   UNL     1       3.864   4.259  17.291  0.00  0.00    +0.000 C 
ATOM     30  C   UNL     1       4.112   5.767  17.532  0.00  0.00    +0.000 C 
ENDBRANCH  23  24
ENDBRANCH   5  23
TORSDOF 4
ENDMDL
MODEL 5
REMARK VINA RESULT:      -7.3      4.610      7.327
REMARK  Name = 
REMARK  7 active torsions:
REMARK  status: ('A' for Active; 'I' for Inactive)
REMARK    1  A    between atoms: C_1  and  C_2
REMARK    2  A    between atoms: C_5  and  C_6
REMARK    3  A    between atoms: C_10  and  C_12
REMARK    4  A    between atoms: C_12  and  N_13
REMARK    5  A    between atoms: N_16  and  C_17
REMARK    6  A    between atoms: C_21  and  N_22
REMARK    7  A    between atoms: C_26  and  C_27
REMARK                            x       y       z     vdW  Elec       q    Type
REMARK                         _______ _______ _______ _____ _____    ______ ____
ROOT
ATOM      1  C   UNL     1       4.328   4.236  17.074  0.00  0.00    +0.000 A 
ATOM      2  N   UNL     1       3.839   5.429  17.440  0.00  0.00    +0.000 NA
ATOM      3  C   UNL     1       4.276   6.501  16.769  0.00  0.00    +0.000 A 
ATOM      4  N   UNL     1       3.749   7.779  17.034  0.00  0.00    +0.000 N 
ATOM      5  C   UNL     1       2.703   8.043  17.897  0.00  0.00    +0.000 C 
ATOM      6  O   UNL     1       2.097   7.218  18.585  0.00  0.00    +0.000 OA
ATOM      7  C   UNL     1       5.228   6.401  15.774  0.00  0.00    +0.000 A 
ATOM      8  C   UNL     1       5.613   5.123  15.413  0.00  0.00    +0.000 A 
ATOM      9  N   UNL     1       5.174   4.028  16.059  0.00  0.00    +0.000 NA
ATOM     10  H   UNL     1       4.092   8.547  16.473  0.00  0.00    +0.000 HD
ENDROOT
BRANCH   1  15
ATOM     11  C   UNL     1       4.737   1.611  21.081  0.00  0.00    +0.000 C 
ATOM     12  C   UNL     1       4.159   1.897  19.753  0.00  0.00    +0.000 A 
ATOM     13  C   UNL     1       3.135   1.339  19.020  0.00  0.00    +0.000 A 
ATOM     14  C   UNL     1       3.034   2.100  17.827  0.00  0.00    +0.000 A 
ATOM     15  C   UNL     1       3.991   3.094  17.908  0.00  0.00    +0.000 A 
ATOM     16  O   UNL     1       4.697   2.950  19.076  0.00  0.00    +0.000 OA
ENDBRANCH   1  15
BRANCH   8  17
ATOM     17  N   UNL     1       6.469   4.951  14.278  0.00  0.00    +0.000 N 
ATOM     18  N   UNL     1       7.688   5.563  14.228  0.00  0.00    +0.000 NA
ATOM     19  C   UNL     1       8.187   5.225  13.039  0.00  0.00    +0.000 A 
ATOM     20  C   UNL     1       7.318   4.414  12.301  0.00  0.00    +0.000 A 
ATOM     21  C   UNL     1       6.210   4.249  13.105  0.00  0.00    +0.000 A 
ATOM     22  C   UNL     1       4.935   3.541  12.813  0.00  0.00    +0.000 C 
ENDBRANCH   8  17
BRANCH   5  23
ATOM     23  C   UNL     1       2.295   9.526  17.944  0.00  0.00    +0.000 C 
BRANCH  23  24
ATOM     24  N   UNL     1       1.098   9.764  18.780  0.00  0.00    +0.000 NA
ATOM     25  C   UNL     1      -0.091   9.967  17.916  0.00  0.00    +0.000 C 
ATOM     26  C   UNL     1      -1.387  10.266  18.718  0.00  0.00    +0.000 C 
ATOM     27  N   UNL     1      -1.284  11.330  19.736  0.00  0.00    +0.000 NA
ATOM     28  C   UNL     1      -1.375  12.664  19.151  0.00  0.00    +0.000 C 
ATOM     29  C   UNL     1      -0.034  11.158  20.503  0.00  0.00    +0.000 C 
ATOM     30  C   UNL     1       1.234  10.965  19.638  0.00  0.00    +0.000 C 
ENDBRANCH  23  24
ENDBRANCH   5  23
TORSDOF 4
ENDMDL
MODEL 6
REMARK VINA RESULT:      -7.0      4.472      7.460
REMARK  Name = 
REMARK  7 active torsions:
REMARK  status: ('A' for Active; 'I' for Inactive)
REMARK    1  A    between atoms: C_1  and  C_2
REMARK    2  A    between atoms: C_5  and  C_6
REMARK    3  A    between atoms: C_10  and  C_12
REMARK    4  A    between atoms: C_12  and  N_13
REMARK    5  A    between atoms: N_16  and  C_17
REMARK    6  A    between atoms: C_21  and  N_22
REMARK    7  A    between atoms: C_26  and  C_27
REMARK                            x       y       z     vdW  Elec       q    Type
REMARK                         _______ _______ _______ _____ _____    ______ ____
ROOT
ATOM      1  C   UNL     1       2.600   7.011  18.674  0.00  0.00    +0.000 A 
ATOM      2  N   UNL     1       3.672   6.791  17.901  0.00  0.00    +0.000 NA
ATOM      3  C   UNL     1       4.288   5.610  18.032  0.00  0.00    +0.000 A 
ATOM      4  N   UNL     1       5.368   5.266  17.197  0.00  0.00    +0.000 N 
ATOM      5  C   UNL     1       5.824   6.024  16.135  0.00  0.00    +0.000 C 
ATOM      6  O   UNL     1       5.384   7.119  15.777  0.00  0.00    +0.000 OA
ATOM      7  C   UNL     1       3.878   4.672  18.958  0.00  0.00    +0.000 A 
ATOM      8  C   UNL     1       2.717   4.956  19.653  0.00  0.00    +0.000 A 
ATOM      9  N   UNL     1       2.068   6.127  19.525  0.00  0.00    +0.000 NA
ATOM     10  H   UNL     1       5.773   4.348  17.318  0.00  0.00    +0.000 HD
ENDROOT
BRANCH   1  15
ATOM     11  C   UNL     1       0.226  10.661  20.712  0.00  0.00    +0.000 C 
ATOM     12  C   UNL     1       0.964  10.036  19.598  0.00  0.00    +0.000 A 
ATOM     13  C   UNL     1       1.436  10.499  18.389  0.00  0.00    +0.000 A 
ATOM     14  C   UNL     1       2.114   9.413  17.780  0.00  0.00    +0.000 A 
ATOM     15  C   UNL     1       2.035   8.351  18.661  0.00  0.00    +0.000 A 
ATOM     16  O   UNL     1       1.306   8.727  19.762  0.00  0.00    +0.000 OA
ENDBRANCH   1  15
BRANCH   8  17
ATOM     17  N   UNL     1       2.153   3.951  20.502  0.00  0.00    +0.000 N 
ATOM     18  N   UNL     1       2.486   3.892  21.825  0.00  0.00    +0.000 NA
ATOM     19  C   UNL     1       1.824   2.834  22.293  0.00  0.00    +0.000 A 
ATOM     20  C   UNL     1       1.073   2.188  21.305  0.00  0.00    +0.000 A 
ATOM     21  C   UNL     1       1.297   2.911  20.152  0.00  0.00    +0.000 A 
ATOM     22  C   UNL     1       0.817   2.647  18.770  0.00  0.00    +0.000 C 
ENDBRANCH   8  17
BRANCH   5  23
ATOM     23  C   UNL     1       6.981   5.372  15.358  0.00  0.00    +0.000 C 
BRANCH  23  24
ATOM     24  N   UNL     1       6.630   5.076  13.952  0.00  0.00    +0.000 NA
ATOM     25  C   UNL     1       5.881   3.798  13.875  0.00  0.00    +0.000 C 
ATOM     26  C   UNL     1       5.509   3.392  12.423  0.00  0.00    +0.000 C 
ATOM     27  N   UNL     1       6.614   3.416  11.445  0.00  0.00    +0.000 NA
ATOM     28  C   UNL     1       7.454   2.226  11.530  0.00  0.00    +0.000 C 
ATOM     29  C   UNL     1       7.403   4.651  11.624  0.00  0.00    +0.000 C 
ATOM     30  C   UNL     1       7.824   4.942  13.084  0.00  0.00    +0.000 C 
ENDBRANCH  23  24
ENDBRANCH   5  23
TORSDOF 4
ENDMDL
MODEL 7
REMARK VINA RESULT:      -7.0      4.943      7.518
REMARK  Name = 
REMARK  7 active torsions:
REMARK  status: ('A' for Active; 'I' for Inactive)
REMARK    1  A    between atoms: C_1  and  C_2
REMARK    2  A    between atoms: C_5  and  C_6
REMARK    3  A    between atoms: C_10  and  C_12
REMARK    4  A    between atoms: C_12  and  N_13
REMARK    5  A    between atoms: N_16  and  C_17
REMARK    6  A    between atoms: C_21  and  N_22
REMARK    7  A    between atoms: C_26  and  C_27
REMARK                            x       y       z     vdW  Elec       q    Type
REMARK                         _______ _______ _______ _____ _____    ______ ____
ROOT
ATOM      1  C   UNL     1       4.255   4.758  18.168  0.00  0.00    +0.000 A 
ATOM      2  N   UNL     1       3.654   5.946  18.321  0.00  0.00    +0.000 NA
ATOM      3  C   UNL     1       3.966   6.907  17.442  0.00  0.00    +0.000 A 
ATOM      4  N   UNL     1       3.316   8.155  17.481  0.00  0.00    +0.000 N 
ATOM      5  C   UNL     1       2.265   8.477  18.318  0.00  0.00    +0.000 C 
ATOM      6  O   UNL     1       1.760   7.745  19.172  0.00  0.00    +0.000 OA
ATOM      7  C   UNL     1       4.904   6.710  16.449  0.00  0.00    +0.000 A 
ATOM      8  C   UNL     1       5.411   5.430  16.321  0.00  0.00    +0.000 A 
ATOM      9  N   UNL     1       5.098   4.442  17.179  0.00  0.00    +0.000 NA
ATOM     10  H   UNL     1       3.567   8.830  16.772  0.00  0.00    +0.000 HD
ENDROOT
BRANCH   1  15
ATOM     11  C   UNL     1       1.654   2.702  21.649  0.00  0.00    +0.000 C 
ATOM     12  C   UNL     1       2.857   2.811  20.800  0.00  0.00    +0.000 A 
ATOM     13  C   UNL     1       3.978   2.029  20.633  0.00  0.00    +0.000 A 
ATOM     14  C   UNL     1       4.754   2.652  19.623  0.00  0.00    +0.000 A 
ATOM     15  C   UNL     1       4.053   3.771  19.216  0.00  0.00    +0.000 A 
ATOM     16  O   UNL     1       2.904   3.881  19.959  0.00  0.00    +0.000 OA
ENDBRANCH   1  15
BRANCH   8  17
ATOM     17  N   UNL     1       6.258   5.126  15.208  0.00  0.00    +0.000 N 
ATOM     18  N   UNL     1       7.511   5.662  15.122  0.00  0.00    +0.000 NA
ATOM     19  C   UNL     1       7.992   5.210  13.964  0.00  0.00    +0.000 A 
ATOM     20  C   UNL     1       7.080   4.400  13.280  0.00  0.00    +0.000 A 
ATOM     21  C   UNL     1       5.962   4.358  14.086  0.00  0.00    +0.000 A 
ATOM     22  C   UNL     1       4.648   3.707  13.837  0.00  0.00    +0.000 C 
ENDBRANCH   8  17
BRANCH   5  23
ATOM     23  C   UNL     1       1.708   9.895  18.098  0.00  0.00    +0.000 C 
BRANCH  23  24
ATOM     24  N   UNL     1       0.594  10.220  19.015  0.00  0.00    +0.000 NA
ATOM     25  C   UNL     1      -0.555  10.758  18.245  0.00  0.00    +0.000 C 
ATOM     26  C   UNL     1      -1.756  11.165  19.142  0.00  0.00    +0.000 C 
ATOM     27  N   UNL     1      -1.437  12.032  20.293  0.00  0.00    +0.000 NA
ATOM     28  C   UNL     1      -1.291  13.432  19.905  0.00  0.00    +0.000 C 
ATOM     29  C   UNL     1      -0.224  11.528  20.969  0.00  0.00    +0.000 C 
ATOM     30  C   UNL     1       0.967  11.238  20.026  0.00  0.00    +0.000 C 
ENDBRANCH  23  24
ENDBRANCH   5  23
TORSDOF 4
ENDMDL
MODEL 8
REMARK VINA RESULT:      -7.0      7.973     10.797
REMARK  Name = 
REMARK  7 active torsions:
REMARK  status: ('A' for Active; 'I' for Inactive)
REMARK    1  A    between atoms: C_1  and  C_2
REMARK    2  A    between atoms: C_5  and  C_6
REMARK    3  A    between atoms: C_10  and  C_12
REMARK    4  A    between atoms: C_12  and  N_13
REMARK    5  A    between atoms: N_16  and  C_17
REMARK    6  A    between atoms: C_21  and  N_22
REMARK    7  A    between atoms: C_26  and  C_27
REMARK                            x       y       z     vdW  Elec       q    Type
REMARK                         _______ _______ _______ _____ _____    ______ ____
ROOT
ATOM      1  C   UNL     1      -1.492  11.149  18.511  0.00  0.00    +0.000 A 
ATOM      2  N   UNL     1      -0.432  10.369  18.261  0.00  0.00    +0.000 NA
ATOM      3  C   UNL     1       0.644  10.534  19.040  0.00  0.00    +0.000 A 
ATOM      4  N   UNL     1       1.768   9.697  18.900  0.00  0.00    +0.000 N 
ATOM      5  C   UNL     1       1.843   8.603  18.060  0.00  0.00    +0.000 C 
ATOM      6  O   UNL     1       0.964   8.212  17.288  0.00  0.00    +0.000 OA
ATOM      7  C   UNL     1       0.691  11.498  20.028  0.00  0.00    +0.000 A 
ATOM      8  C   UNL     1      -0.478  12.198  20.263  0.00  0.00    +0.000 A 
ATOM      9  N   UNL     1      -1.580  12.038  19.506  0.00  0.00    +0.000 NA
ATOM     10  H   UNL     1       2.538   9.845  19.538  0.00  0.00    +0.000 HD
ENDROOT
BRANCH   1  15
ATOM     11  C   UNL     1      -5.915  12.325  17.038  0.00  0.00    +0.000 C 
ATOM     12  C   UNL     1      -4.614  11.649  16.872  0.00  0.00    +0.000 A 
ATOM     13  C   UNL     1      -4.025  10.957  15.837  0.00  0.00    +0.000 A 
ATOM     14  C   UNL     1      -2.730  10.591  16.284  0.00  0.00    +0.000 A 
ATOM     15  C   UNL     1      -2.594  11.097  17.563  0.00  0.00    +0.000 A 
ATOM     16  O   UNL     1      -3.759  11.720  17.931  0.00  0.00    +0.000 OA
ENDBRANCH   1  15
BRANCH   8  17
ATOM     17  N   UNL     1      -0.541  13.090  21.380  0.00  0.00    +0.000 N 
ATOM     18  N   UNL     1       0.021  14.333  21.310  0.00  0.00    +0.000 NA
ATOM     19  C   UNL     1      -0.183  14.864  22.516  0.00  0.00    +0.000 A 
ATOM     20  C   UNL     1      -0.855  13.994  23.382  0.00  0.00    +0.000 A 
ATOM     21  C   UNL     1      -1.075  12.850  22.643  0.00  0.00    +0.000 A 
ATOM     22  C   UNL     1      -1.684  11.561  23.066  0.00  0.00    +0.000 C 
ENDBRANCH   8  17
BRANCH   5  23
ATOM     23  C   UNL     1       3.172   7.834  18.159  0.00  0.00    +0.000 C 
BRANCH  23  24
ATOM     24  N   UNL     1       3.013   6.383  17.915  0.00  0.00    +0.000 NA
ATOM     25  C   UNL     1       2.537   5.711  19.149  0.00  0.00    +0.000 C 
ATOM     26  C   UNL     1       2.384   4.174  18.988  0.00  0.00    +0.000 C 
ATOM     27  N   UNL     1       3.545   3.467  18.415  0.00  0.00    +0.000 NA
ATOM     28  C   UNL     1       4.591   3.228  19.405  0.00  0.00    +0.000 C 
ATOM     29  C   UNL     1       4.059   4.223  17.255  0.00  0.00    +0.000 C 
ATOM     30  C   UNL     1       4.283   5.731  17.515  0.00  0.00    +0.000 C 
ENDBRANCH  23  24
ENDBRANCH   5  23
TORSDOF 4
ENDMDL
MODEL 9
REMARK VINA RESULT:      -7.0      7.797     10.569
REMARK  Name = 
REMARK  7 active torsions:
REMARK  status: ('A' for Active; 'I' for Inactive)
REMARK    1  A    between atoms: C_1  and  C_2
REMARK    2  A    between atoms: C_5  and  C_6
REMARK    3  A    between atoms: C_10  and  C_12
REMARK    4  A    between atoms: C_12  and  N_13
REMARK    5  A    between atoms: N_16  and  C_17
REMARK    6  A    between atoms: C_21  and  N_22
REMARK    7  A    between atoms: C_26  and  C_27
REMARK                            x       y       z     vdW  Elec       q    Type
REMARK                         _______ _______ _______ _____ _____    ______ ____
ROOT
ATOM      1  C   UNL     1      -1.623  10.979  18.599  0.00  0.00    +0.000 A 
ATOM      2  N   UNL     1      -0.530  10.233  18.387  0.00  0.00    +0.000 NA
ATOM      3  C   UNL     1       0.432  10.282  19.316  0.00  0.00    +0.000 A 
ATOM      4  N   UNL     1       1.573   9.464  19.212  0.00  0.00    +0.000 N 
ATOM      5  C   UNL     1       1.771   8.494  18.248  0.00  0.00    +0.000 C 
ATOM      6  O   UNL     1       1.005   8.219  17.321  0.00  0.00    +0.000 OA
ATOM      7  C   UNL     1       0.338  11.102  20.423  0.00  0.00    +0.000 A 
ATOM      8  C   UNL     1      -0.859  11.772  20.595  0.00  0.00    +0.000 A 
ATOM      9  N   UNL     1      -1.850  11.724  19.686  0.00  0.00    +0.000 NA
ATOM     10  H   UNL     1       2.251   9.518  19.960  0.00  0.00    +0.000 HD
ENDROOT
BRANCH   1  15
ATOM     11  C   UNL     1      -3.113  10.042  14.125  0.00  0.00    +0.000 C 
ATOM     12  C   UNL     1      -3.287  10.620  15.472  0.00  0.00    +0.000 A 
ATOM     13  C   UNL     1      -4.343  11.222  16.120  0.00  0.00    +0.000 A 
ATOM     14  C   UNL     1      -3.892  11.519  17.431  0.00  0.00    +0.000 A 
ATOM     15  C   UNL     1      -2.590  11.063  17.516  0.00  0.00    +0.000 A 
ATOM     16  O   UNL     1      -2.213  10.538  16.306  0.00  0.00    +0.000 OA
ENDBRANCH   1  15
BRANCH   8  17
ATOM     17  N   UNL     1      -1.078  12.503  21.806  0.00  0.00    +0.000 N 
ATOM     18  N   UNL     1      -1.987  12.068  22.726  0.00  0.00    +0.000 NA
ATOM     19  C   UNL     1      -1.962  12.990  23.688  0.00  0.00    +0.000 A 
ATOM     20  C   UNL     1      -1.065  14.029  23.415  0.00  0.00    +0.000 A 
ATOM     21  C   UNL     1      -0.506  13.711  22.196  0.00  0.00    +0.000 A 
ATOM     22  C   UNL     1       0.461  14.487  21.374  0.00  0.00    +0.000 C 
ENDBRANCH   8  17
BRANCH   5  23
ATOM     23  C   UNL     1       3.084   7.710  18.415  0.00  0.00    +0.000 C 
BRANCH  23  24
ATOM     24  N   UNL     1       2.944   6.280  18.062  0.00  0.00    +0.000 NA
ATOM     25  C   UNL     1       2.395   5.524  19.215  0.00  0.00    +0.000 C 
ATOM     26  C   UNL     1       2.256   4.002  18.939  0.00  0.00    +0.000 C 
ATOM     27  N   UNL     1       3.453   3.335  18.391  0.00  0.00    +0.000 NA
ATOM     28  C   UNL     1       4.436   3.027  19.425  0.00  0.00    +0.000 C 
ATOM     29  C   UNL     1       4.035   4.169  17.320  0.00  0.00    +0.000 C 
ATOM     30  C   UNL     1       4.238   5.655  17.698  0.00  0.00    +0.000 C 
ENDBRANCH  23  24
ENDBRANCH   5  23
TORSDOF 4
ENDMDL
