MODEL 1
REMARK VINA RESULT:      -6.7      0.000      0.000
REMARK  Name = 
REMARK  10 active torsions:
REMARK  status: ('A' for Active; 'I' for Inactive)
REMARK    1  A    between atoms: C_1  and  C_2
REMARK    2  A    between atoms: C_2  and  C_3
REMARK    3  A    between atoms: C_3  and  C_4
REMARK    4  A    between atoms: C_4  and  C_5
REMARK    5  A    between atoms: C_4  and  N_19
REMARK    6  A    between atoms: N_9  and  C_10
REMARK    7  A    between atoms: C_10  and  C_11
REMARK    8  A    between atoms: C_14  and  O_15
REMARK    9  A    between atoms: O_15  and  C_16
REMARK   10  A    between atoms: C_23  and  C_25
REMARK                            x       y       z     vdW  Elec       q    Type
REMARK                         _______ _______ _______ _____ _____    ______ ____
ROOT
ATOM      1  C   UNL     1       1.941   5.456  19.330  0.00  0.00    +0.000 C 
ENDROOT
BRANCH   1   2
ATOM      2  N   UNL     1       2.541   6.784  19.671  0.00  0.00    +0.000 NA
ATOM      3  C   UNL     1       2.511   7.865  18.658  0.00  0.00    +0.000 C 
ATOM      4  C   UNL     1       1.377   8.952  18.699  0.00  0.00    +0.000 C 
ATOM      5  N   UNL     1       0.929   9.289  20.055  0.00  0.00    +0.000 N 
ATOM      6  C   UNL     1       0.807  10.562  20.635  0.00  0.00    +0.000 C 
ATOM      7  O   UNL     1       0.636  10.671  21.853  0.00  0.00    +0.000 OA
ATOM      8  C   UNL     1       0.747   8.122  20.905  0.00  0.00    +0.000 C 
ATOM      9  C   UNL     1       2.067   7.347  20.974  0.00  0.00    +0.000 C 
BRANCH   6  10
ATOM     10  C   UNL     1       0.902  11.762  19.814  0.00  0.00    +0.000 A 
ATOM     11  C   UNL     1      -0.071  12.705  19.511  0.00  0.00    +0.000 A 
ATOM     12  C   UNL     1       0.516  13.641  18.630  0.00  0.00    +0.000 A 
ATOM     13  C   UNL     1       1.797  13.197  18.413  0.00  0.00    +0.000 A 
ATOM     14  O   UNL     1       2.038  12.060  19.111  0.00  0.00    +0.000 OA
ENDBRANCH   6  10
ENDBRANCH   1   2
BRANCH   1  15
ATOM     15  C   UNL     1       2.877   4.379  19.827  0.00  0.00    +0.000 A 
ATOM     16  N   UNL     1       2.548   3.351  20.582  0.00  0.00    +0.000 NA
ATOM     17  N   UNL     1       3.720   2.722  20.905  0.00  0.00    +0.000 NA
ATOM     18  N   UNL     1       4.761   3.342  20.368  0.00  0.00    +0.000 NA
ATOM     19  N   UNL     1       4.247   4.364  19.643  0.00  0.00    +0.000 N 
BRANCH  19  20
ATOM     20  C   UNL     1       5.122   5.394  19.102  0.00  0.00    +0.000 C 
BRANCH  20  21
ATOM     21  C   UNL     1       5.494   5.320  17.631  0.00  0.00    +0.000 A 
ATOM     22  C   UNL     1       5.013   6.174  16.631  0.00  0.00    +0.000 A 
ATOM     23  C   UNL     1       5.410   6.012  15.289  0.00  0.00    +0.000 A 
ATOM     24  C   UNL     1       6.294   5.000  14.923  0.00  0.00    +0.000 A 
ATOM     25  C   UNL     1       6.769   4.135  15.906  0.00  0.00    +0.000 A 
ATOM     26  C   UNL     1       6.380   4.294  17.242  0.00  0.00    +0.000 A 
BRANCH  24  27
ATOM     27  O   UNL     1       6.758   4.747  13.661  0.00  0.00    +0.000 OA
ATOM     28  C   UNL     1       6.241   3.594  13.001  0.00  0.00    +0.000 C 
ENDBRANCH  24  27
ENDBRANCH  20  21
ENDBRANCH  19  20
ENDBRANCH   1  15
BRANCH   1  29
ATOM     29  C   UNL     1       1.674   5.114  17.816  0.00  0.00    +0.000 C 
BRANCH  29  31
ATOM     30  C   UNL     1       2.804   2.988  16.825  0.00  0.00    +0.000 C 
ATOM     31  C   UNL     1       1.571   3.592  17.494  0.00  0.00    +0.000 C 
ENDBRANCH  29  31
ENDBRANCH   1  29
TORSDOF 8
ENDMDL
MODEL 2
REMARK VINA RESULT:      -6.6      3.974      6.379
REMARK  Name = 
REMARK  10 active torsions:
REMARK  status: ('A' for Active; 'I' for Inactive)
REMARK    1  A    between atoms: C_1  and  C_2
REMARK    2  A    between atoms: C_2  and  C_3
REMARK    3  A    between atoms: C_3  and  C_4
REMARK    4  A    between atoms: C_4  and  C_5
REMARK    5  A    between atoms: C_4  and  N_19
REMARK    6  A    between atoms: N_9  and  C_10
REMARK    7  A    between atoms: C_10  and  C_11
REMARK    8  A    between atoms: C_14  and  O_15
REMARK    9  A    between atoms: O_15  and  C_16
REMARK   10  A    between atoms: C_23  and  C_25
REMARK                            x       y       z     vdW  Elec       q    Type
REMARK                         _______ _______ _______ _____ _____    ______ ____
ROOT
ATOM      1  C   UNL     1      -0.572  11.368  20.533  0.00  0.00    +0.000 C 
ENDROOT
BRANCH   1   2
ATOM      2  N   UNL     1       0.423  12.450  20.249  0.00  0.00    +0.000 NA
ATOM      3  C   UNL     1       0.474  13.038  18.890  0.00  0.00    +0.000 C 
ATOM      4  C   UNL     1      -0.289  14.377  18.581  0.00  0.00    +0.000 C 
ATOM      5  N   UNL     1      -0.333  15.307  19.715  0.00  0.00    +0.000 N 
ATOM      6  C   UNL     1       0.019  16.667  19.733  0.00  0.00    +0.000 C 
ATOM      7  O   UNL     1       0.144  17.257  20.811  0.00  0.00    +0.000 OA
ATOM      8  C   UNL     1      -0.640  14.657  20.980  0.00  0.00    +0.000 C 
ATOM      9  C   UNL     1       0.405  13.568  21.245  0.00  0.00    +0.000 C 
BRANCH   6  10
ATOM     10  C   UNL     1       0.260  17.386  18.490  0.00  0.00    +0.000 A 
ATOM     11  C   UNL     1      -0.648  17.960  17.610  0.00  0.00    +0.000 A 
ATOM     12  C   UNL     1       0.094  18.486  16.528  0.00  0.00    +0.000 A 
ATOM     13  C   UNL     1       1.406  18.168  16.787  0.00  0.00    +0.000 A 
ATOM     14  O   UNL     1       1.517  17.496  17.958  0.00  0.00    +0.000 OA
ENDBRANCH   6  10
ENDBRANCH   1   2
BRANCH   1  15
ATOM     15  C   UNL     1      -0.010  10.493  21.628  0.00  0.00    +0.000 A 
ATOM     16  N   UNL     1      -0.239  10.620  22.920  0.00  0.00    +0.000 NA
ATOM     17  N   UNL     1       0.575   9.715  23.544  0.00  0.00    +0.000 NA
ATOM     18  N   UNL     1       1.301   9.037  22.667  0.00  0.00    +0.000 NA
ATOM     19  N   UNL     1       0.913   9.479  21.448  0.00  0.00    +0.000 N 
BRANCH  19  20
ATOM     20  C   UNL     1       1.668   9.114  20.257  0.00  0.00    +0.000 C 
BRANCH  20  21
ATOM     21  C   UNL     1       1.870   7.639  19.960  0.00  0.00    +0.000 A 
ATOM     22  C   UNL     1       1.491   6.585  20.801  0.00  0.00    +0.000 A 
ATOM     23  C   UNL     1       1.737   5.246  20.438  0.00  0.00    +0.000 A 
ATOM     24  C   UNL     1       2.360   4.936  19.232  0.00  0.00    +0.000 A 
ATOM     25  C   UNL     1       2.755   5.975  18.394  0.00  0.00    +0.000 A 
ATOM     26  C   UNL     1       2.510   7.308  18.748  0.00  0.00    +0.000 A 
BRANCH  24  27
ATOM     27  O   UNL     1       2.646   3.681  18.767  0.00  0.00    +0.000 OA
ATOM     28  C   UNL     1       1.538   2.856  18.413  0.00  0.00    +0.000 C 
ENDBRANCH  24  27
ENDBRANCH  20  21
ENDBRANCH  19  20
ENDBRANCH   1  15
BRANCH   1  29
ATOM     29  C   UNL     1      -0.969  10.383  19.370  0.00  0.00    +0.000 C 
BRANCH  29  31
ATOM     30  C   UNL     1      -2.858   9.808  17.674  0.00  0.00    +0.000 C 
ATOM     31  C   UNL     1      -2.103  10.897  18.431  0.00  0.00    +0.000 C 
ENDBRANCH  29  31
ENDBRANCH   1  29
TORSDOF 8
ENDMDL
MODEL 3
REMARK VINA RESULT:      -6.6      0.962      1.211
REMARK  Name = 
REMARK  10 active torsions:
REMARK  status: ('A' for Active; 'I' for Inactive)
REMARK    1  A    between atoms: C_1  and  C_2
REMARK    2  A    between atoms: C_2  and  C_3
REMARK    3  A    between atoms: C_3  and  C_4
REMARK    4  A    between atoms: C_4  and  C_5
REMARK    5  A    between atoms: C_4  and  N_19
REMARK    6  A    between atoms: N_9  and  C_10
REMARK    7  A    between atoms: C_10  and  C_11
REMARK    8  A    between atoms: C_14  and  O_15
REMARK    9  A    between atoms: O_15  and  C_16
REMARK   10  A    between atoms: C_23  and  C_25
REMARK                            x       y       z     vdW  Elec       q    Type
REMARK                         _______ _______ _______ _____ _____    ______ ____
ROOT
ATOM      1  C   UNL     1       2.263   5.399  19.271  0.00  0.00    +0.000 C 
ENDROOT
BRANCH   1   2
ATOM      2  N   UNL     1       2.791   6.780  19.504  0.00  0.00    +0.000 NA
ATOM      3  C   UNL     1       2.584   7.812  18.460  0.00  0.00    +0.000 C 
ATOM      4  C   UNL     1       1.381   8.817  18.574  0.00  0.00    +0.000 C 
ATOM      5  N   UNL     1       1.040   9.178  19.954  0.00  0.00    +0.000 N 
ATOM      6  C   UNL     1       0.880  10.463  20.498  0.00  0.00    +0.000 C 
ATOM      7  O   UNL     1       0.818  10.611  21.722  0.00  0.00    +0.000 OA
ATOM      8  C   UNL     1       1.028   8.039  20.860  0.00  0.00    +0.000 C 
ATOM      9  C   UNL     1       2.403   7.363  20.826  0.00  0.00    +0.000 C 
BRANCH   6  10
ATOM     10  C   UNL     1       0.806  11.631  19.630  0.00  0.00    +0.000 A 
ATOM     11  C   UNL     1       1.771  12.589  19.353  0.00  0.00    +0.000 A 
ATOM     12  C   UNL     1       1.178  13.543  18.494  0.00  0.00    +0.000 A 
ATOM     13  C   UNL     1      -0.124  13.136  18.329  0.00  0.00    +0.000 A 
ATOM     14  O   UNL     1      -0.364  11.993  19.016  0.00  0.00    +0.000 OA
ENDBRANCH   6  10
ENDBRANCH   1   2
BRANCH   1  15
ATOM     15  C   UNL     1       3.379   4.419  19.542  0.00  0.00    +0.000 A 
ATOM     16  N   UNL     1       3.361   3.446  20.429  0.00  0.00    +0.000 NA
ATOM     17  N   UNL     1       4.619   2.908  20.435  0.00  0.00    +0.000 NA
ATOM     18  N   UNL     1       5.411   3.530  19.573  0.00  0.00    +0.000 NA
ATOM     19  N   UNL     1       4.635   4.458  18.964  0.00  0.00    +0.000 N 
BRANCH  19  20
ATOM     20  C   UNL     1       5.235   5.480  18.119  0.00  0.00    +0.000 C 
BRANCH  20  21
ATOM     21  C   UNL     1       5.708   5.080  16.732  0.00  0.00    +0.000 A 
ATOM     22  C   UNL     1       6.711   5.729  16.001  0.00  0.00    +0.000 A 
ATOM     23  C   UNL     1       7.067   5.286  14.712  0.00  0.00    +0.000 A 
ATOM     24  C   UNL     1       6.433   4.190  14.133  0.00  0.00    +0.000 A 
ATOM     25  C   UNL     1       5.424   3.545  14.844  0.00  0.00    +0.000 A 
ATOM     26  C   UNL     1       5.069   3.979  16.127  0.00  0.00    +0.000 A 
BRANCH  24  27
ATOM     27  O   UNL     1       6.695   3.662  12.898  0.00  0.00    +0.000 OA
ATOM     28  C   UNL     1       5.575   3.413  12.051  0.00  0.00    +0.000 C 
ENDBRANCH  24  27
ENDBRANCH  20  21
ENDBRANCH  19  20
ENDBRANCH   1  15
BRANCH   1  29
ATOM     29  C   UNL     1       1.718   5.030  17.839  0.00  0.00    +0.000 C 
BRANCH  29  31
ATOM     30  C   UNL     1       0.566   2.787  18.486  0.00  0.00    +0.000 C 
ATOM     31  C   UNL     1       1.557   3.502  17.571  0.00  0.00    +0.000 C 
ENDBRANCH  29  31
ENDBRANCH   1  29
TORSDOF 8
ENDMDL
MODEL 4
REMARK VINA RESULT:      -6.5      4.121      6.470
REMARK  Name = 
REMARK  10 active torsions:
REMARK  status: ('A' for Active; 'I' for Inactive)
REMARK    1  A    between atoms: C_1  and  C_2
REMARK    2  A    between atoms: C_2  and  C_3
REMARK    3  A    between atoms: C_3  and  C_4
REMARK    4  A    between atoms: C_4  and  C_5
REMARK    5  A    between atoms: C_4  and  N_19
REMARK    6  A    between atoms: N_9  and  C_10
REMARK    7  A    between atoms: C_10  and  C_11
REMARK    8  A    between atoms: C_14  and  O_15
REMARK    9  A    between atoms: O_15  and  C_16
REMARK   10  A    between atoms: C_23  and  C_25
REMARK                            x       y       z     vdW  Elec       q    Type
REMARK                         _______ _______ _______ _____ _____    ______ ____
ROOT
ATOM      1  C   UNL     1       0.871  11.262  20.452  0.00  0.00    +0.000 C 
ENDROOT
BRANCH   1   2
ATOM      2  N   UNL     1       1.598  12.483  19.978  0.00  0.00    +0.000 NA
ATOM      3  C   UNL     1       1.208  13.092  18.685  0.00  0.00    +0.000 C 
ATOM      4  C   UNL     1       0.214  14.308  18.654  0.00  0.00    +0.000 C 
ATOM      5  N   UNL     1       0.342  15.205  19.809  0.00  0.00    +0.000 N 
ATOM      6  C   UNL     1       0.496  16.601  19.807  0.00  0.00    +0.000 C 
ATOM      7  O   UNL     1       0.817  17.187  20.845  0.00  0.00    +0.000 OA
ATOM      8  C   UNL     1       0.470  14.498  21.074  0.00  0.00    +0.000 C 
ATOM      9  C   UNL     1       1.688  13.570  21.002  0.00  0.00    +0.000 C 
BRANCH   6  10
ATOM     10  C   UNL     1       0.300  17.367  18.583  0.00  0.00    +0.000 A 
ATOM     11  C   UNL     1       1.238  17.834  17.673  0.00  0.00    +0.000 A 
ATOM     12  C   UNL     1       0.536  18.570  16.690  0.00  0.00    +0.000 A 
ATOM     13  C   UNL     1      -0.783  18.544  17.077  0.00  0.00    +0.000 A 
ATOM     14  O   UNL     1      -0.936  17.833  18.221  0.00  0.00    +0.000 OA
ENDBRANCH   6  10
ENDBRANCH   1   2
BRANCH   1  15
ATOM     15  C   UNL     1       0.028  10.748  19.309  0.00  0.00    +0.000 A 
ATOM     16  N   UNL     1      -1.288  10.758  19.247  0.00  0.00    +0.000 NA
ATOM     17  N   UNL     1      -1.624  10.072  18.112  0.00  0.00    +0.000 NA
ATOM     18  N   UNL     1      -0.545   9.638  17.476  0.00  0.00    +0.000 NA
ATOM     19  N   UNL     1       0.511  10.094  18.190  0.00  0.00    +0.000 N 
BRANCH  19  20
ATOM     20  C   UNL     1       1.855   9.611  17.907  0.00  0.00    +0.000 C 
BRANCH  20  21
ATOM     21  C   UNL     1       2.256   8.248  18.442  0.00  0.00    +0.000 A 
ATOM     22  C   UNL     1       1.826   7.698  19.657  0.00  0.00    +0.000 A 
ATOM     23  C   UNL     1       2.269   6.427  20.072  0.00  0.00    +0.000 A 
ATOM     24  C   UNL     1       3.144   5.683  19.284  0.00  0.00    +0.000 A 
ATOM     25  C   UNL     1       3.591   6.225  18.081  0.00  0.00    +0.000 A 
ATOM     26  C   UNL     1       3.150   7.486  17.662  0.00  0.00    +0.000 A 
BRANCH  24  27
ATOM     27  O   UNL     1       3.637   4.440  19.573  0.00  0.00    +0.000 OA
ATOM     28  C   UNL     1       3.324   3.391  18.659  0.00  0.00    +0.000 C 
ENDBRANCH  24  27
ENDBRANCH  20  21
ENDBRANCH  19  20
ENDBRANCH   1  15
BRANCH   1  29
ATOM     29  C   UNL     1      -0.114  11.395  21.673  0.00  0.00    +0.000 C 
BRANCH  29  31
ATOM     30  C   UNL     1       0.940   9.260  22.725  0.00  0.00    +0.000 C 
ATOM     31  C   UNL     1      -0.323  10.087  22.495  0.00  0.00    +0.000 C 
ENDBRANCH  29  31
ENDBRANCH   1  29
TORSDOF 8
ENDMDL
MODEL 5
REMARK VINA RESULT:      -6.4      3.198      4.163
REMARK  Name = 
REMARK  10 active torsions:
REMARK  status: ('A' for Active; 'I' for Inactive)
REMARK    1  A    between atoms: C_1  and  C_2
REMARK    2  A    between atoms: C_2  and  C_3
REMARK    3  A    between atoms: C_3  and  C_4
REMARK    4  A    between atoms: C_4  and  C_5
REMARK    5  A    between atoms: C_4  and  N_19
REMARK    6  A    between atoms: N_9  and  C_10
REMARK    7  A    between atoms: C_10  and  C_11
REMARK    8  A    between atoms: C_14  and  O_15
REMARK    9  A    between atoms: O_15  and  C_16
REMARK   10  A    between atoms: C_23  and  C_25
REMARK                            x       y       z     vdW  Elec       q    Type
REMARK                         _______ _______ _______ _____ _____    ______ ____
ROOT
ATOM      1  C   UNL     1       4.338   4.376  17.733  0.00  0.00    +0.000 C 
ENDROOT
BRANCH   1   2
ATOM      2  N   UNL     1       4.409   5.701  18.427  0.00  0.00    +0.000 NA
ATOM      3  C   UNL     1       3.898   6.904  17.729  0.00  0.00    +0.000 C 
ATOM      4  C   UNL     1       2.441   7.420  18.013  0.00  0.00    +0.000 C 
ATOM      5  N   UNL     1       1.996   7.203  19.394  0.00  0.00    +0.000 N 
ATOM      6  C   UNL     1       1.439   8.140  20.281  0.00  0.00    +0.000 C 
ATOM      7  O   UNL     1       1.327   7.863  21.479  0.00  0.00    +0.000 OA
ATOM      8  C   UNL     1       2.333   5.884  19.906  0.00  0.00    +0.000 C 
ATOM      9  C   UNL     1       3.850   5.689  19.815  0.00  0.00    +0.000 C 
BRANCH   6  10
ATOM     10  C   UNL     1       1.011   9.448  19.804  0.00  0.00    +0.000 A 
ATOM     11  C   UNL     1       0.614   9.839  18.532  0.00  0.00    +0.000 A 
ATOM     12  C   UNL     1       0.355  11.228  18.584  0.00  0.00    +0.000 A 
ATOM     13  C   UNL     1       0.646  11.613  19.871  0.00  0.00    +0.000 A 
ATOM     14  O   UNL     1       1.053  10.553  20.611  0.00  0.00    +0.000 OA
ENDBRANCH   6  10
ENDBRANCH   1   2
BRANCH   1  15
ATOM     15  C   UNL     1       5.325   4.395  16.590  0.00  0.00    +0.000 A 
ATOM     16  N   UNL     1       5.125   3.907  15.382  0.00  0.00    +0.000 NA
ATOM     17  N   UNL     1       6.320   4.010  14.724  0.00  0.00    +0.000 NA
ATOM     18  N   UNL     1       7.251   4.548  15.500  0.00  0.00    +0.000 NA
ATOM     19  N   UNL     1       6.631   4.842  16.667  0.00  0.00    +0.000 N 
BRANCH  19  20
ATOM     20  C   UNL     1       7.408   5.236  17.834  0.00  0.00    +0.000 C 
BRANCH  20  21
ATOM     21  C   UNL     1       7.753   6.705  18.004  0.00  0.00    +0.000 A 
ATOM     22  C   UNL     1       7.408   7.726  17.110  0.00  0.00    +0.000 A 
ATOM     23  C   UNL     1       7.789   9.060  17.352  0.00  0.00    +0.000 A 
ATOM     24  C   UNL     1       8.518   9.398  18.489  0.00  0.00    +0.000 A 
ATOM     25  C   UNL     1       8.881   8.390  19.379  0.00  0.00    +0.000 A 
ATOM     26  C   UNL     1       8.501   7.063  19.145  0.00  0.00    +0.000 A 
BRANCH  24  27
ATOM     27  O   UNL     1       8.939  10.653  18.838  0.00  0.00    +0.000 OA
ATOM     28  C   UNL     1       8.803  11.676  17.855  0.00  0.00    +0.000 C 
ENDBRANCH  24  27
ENDBRANCH  20  21
ENDBRANCH  19  20
ENDBRANCH   1  15
BRANCH   1  29
ATOM     29  C   UNL     1       2.968   3.928  17.098  0.00  0.00    +0.000 C 
BRANCH  29  31
ATOM     30  C   UNL     1       1.256   2.638  18.575  0.00  0.00    +0.000 C 
ATOM     31  C   UNL     1       2.429   2.554  17.601  0.00  0.00    +0.000 C 
ENDBRANCH  29  31
ENDBRANCH   1  29
TORSDOF 8
ENDMDL
MODEL 6
REMARK VINA RESULT:      -6.4      3.805      9.000
REMARK  Name = 
REMARK  10 active torsions:
REMARK  status: ('A' for Active; 'I' for Inactive)
REMARK    1  A    between atoms: C_1  and  C_2
REMARK    2  A    between atoms: C_2  and  C_3
REMARK    3  A    between atoms: C_3  and  C_4
REMARK    4  A    between atoms: C_4  and  C_5
REMARK    5  A    between atoms: C_4  and  N_19
REMARK    6  A    between atoms: N_9  and  C_10
REMARK    7  A    between atoms: C_10  and  C_11
REMARK    8  A    between atoms: C_14  and  O_15
REMARK    9  A    between atoms: O_15  and  C_16
REMARK   10  A    between atoms: C_23  and  C_25
REMARK                            x       y       z     vdW  Elec       q    Type
REMARK                         _______ _______ _______ _____ _____    ______ ____
ROOT
ATOM      1  C   UNL     1      -0.304  10.687  21.223  0.00  0.00    +0.000 C 
ENDROOT
BRANCH   1   2
ATOM      2  N   UNL     1       1.090  10.167  21.059  0.00  0.00    +0.000 NA
ATOM      3  C   UNL     1       1.412   8.810  21.559  0.00  0.00    +0.000 C 
ATOM      4  C   UNL     1       1.397   7.584  20.576  0.00  0.00    +0.000 C 
ATOM      5  N   UNL     1       1.820   7.915  19.210  0.00  0.00    +0.000 N 
ATOM      6  C   UNL     1       2.790   7.272  18.425  0.00  0.00    +0.000 C 
ATOM      7  O   UNL     1       3.195   7.805  17.387  0.00  0.00    +0.000 OA
ATOM      8  C   UNL     1       1.243   9.156  18.716  0.00  0.00    +0.000 C 
ATOM      9  C   UNL     1       1.626  10.296  19.667  0.00  0.00    +0.000 C 
BRANCH   6  10
ATOM     10  C   UNL     1       3.343   5.988  18.835  0.00  0.00    +0.000 A 
ATOM     11  C   UNL     1       4.655   5.646  19.135  0.00  0.00    +0.000 A 
ATOM     12  C   UNL     1       4.669   4.261  19.420  0.00  0.00    +0.000 A 
ATOM     13  C   UNL     1       3.378   3.829  19.237  0.00  0.00    +0.000 A 
ATOM     14  O   UNL     1       2.572   4.857  18.874  0.00  0.00    +0.000 OA
ENDBRANCH   6  10
ENDBRANCH   1   2
BRANCH   1  15
ATOM     15  C   UNL     1      -0.328  12.119  20.745  0.00  0.00    +0.000 A 
ATOM     16  N   UNL     1       0.581  13.039  20.997  0.00  0.00    +0.000 NA
ATOM     17  N   UNL     1       0.089  14.212  20.495  0.00  0.00    +0.000 NA
ATOM     18  N   UNL     1      -1.102  14.036  19.942  0.00  0.00    +0.000 NA
ATOM     19  N   UNL     1      -1.364  12.712  20.046  0.00  0.00    +0.000 N 
BRANCH  19  20
ATOM     20  C   UNL     1      -2.693  12.198  19.747  0.00  0.00    +0.000 C 
BRANCH  20  21
ATOM     21  C   UNL     1      -2.924  11.548  18.394  0.00  0.00    +0.000 A 
ATOM     22  C   UNL     1      -1.999  10.744  17.715  0.00  0.00    +0.000 A 
ATOM     23  C   UNL     1      -2.305  10.197  16.453  0.00  0.00    +0.000 A 
ATOM     24  C   UNL     1      -3.536  10.440  15.850  0.00  0.00    +0.000 A 
ATOM     25  C   UNL     1      -4.458  11.251  16.507  0.00  0.00    +0.000 A 
ATOM     26  C   UNL     1      -4.160  11.793  17.763  0.00  0.00    +0.000 A 
BRANCH  24  27
ATOM     27  O   UNL     1      -3.951   9.962  14.637  0.00  0.00    +0.000 OA
ATOM     28  C   UNL     1      -2.956   9.806  13.628  0.00  0.00    +0.000 C 
ENDBRANCH  24  27
ENDBRANCH  20  21
ENDBRANCH  19  20
ENDBRANCH   1  15
BRANCH   1  29
ATOM     29  C   UNL     1      -0.936  10.715  22.666  0.00  0.00    +0.000 C 
BRANCH  29  31
ATOM     30  C   UNL     1      -2.890  12.211  23.514  0.00  0.00    +0.000 C 
ATOM     31  C   UNL     1      -1.410  12.120  23.148  0.00  0.00    +0.000 C 
ENDBRANCH  29  31
ENDBRANCH   1  29
TORSDOF 8
ENDMDL
MODEL 7
REMARK VINA RESULT:      -6.4      3.035      5.484
REMARK  Name = 
REMARK  10 active torsions:
REMARK  status: ('A' for Active; 'I' for Inactive)
REMARK    1  A    between atoms: C_1  and  C_2
REMARK    2  A    between atoms: C_2  and  C_3
REMARK    3  A    between atoms: C_3  and  C_4
REMARK    4  A    between atoms: C_4  and  C_5
REMARK    5  A    between atoms: C_4  and  N_19
REMARK    6  A    between atoms: N_9  and  C_10
REMARK    7  A    between atoms: C_10  and  C_11
REMARK    8  A    between atoms: C_14  and  O_15
REMARK    9  A    between atoms: O_15  and  C_16
REMARK   10  A    between atoms: C_23  and  C_25
REMARK                            x       y       z     vdW  Elec       q    Type
REMARK                         _______ _______ _______ _____ _____    ______ ____
ROOT
ATOM      1  C   UNL     1      -0.310  10.698  19.563  0.00  0.00    +0.000 C 
ENDROOT
BRANCH   1   2
ATOM      2  N   UNL     1       0.606  11.881  19.524  0.00  0.00    +0.000 NA
ATOM      3  C   UNL     1       0.685  12.685  18.282  0.00  0.00    +0.000 C 
ATOM      4  C   UNL     1      -0.167  13.997  18.137  0.00  0.00    +0.000 C 
ATOM      5  N   UNL     1      -0.353  14.724  19.398  0.00  0.00    +0.000 N 
ATOM      6  C   UNL     1      -0.116  16.084  19.655  0.00  0.00    +0.000 C 
ATOM      7  O   UNL     1      -0.102  16.498  20.819  0.00  0.00    +0.000 OA
ATOM      8  C   UNL     1      -0.677  13.856  20.519  0.00  0.00    +0.000 C 
ATOM      9  C   UNL     1       0.438  12.816  20.680  0.00  0.00    +0.000 C 
BRANCH   6  10
ATOM     10  C   UNL     1       0.135  17.013  18.561  0.00  0.00    +0.000 A 
ATOM     11  C   UNL     1      -0.765  17.639  17.709  0.00  0.00    +0.000 A 
ATOM     12  C   UNL     1      -0.007  18.395  16.785  0.00  0.00    +0.000 A 
ATOM     13  C   UNL     1       1.309  18.156  17.099  0.00  0.00    +0.000 A 
ATOM     14  O   UNL     1       1.408  17.317  18.159  0.00  0.00    +0.000 OA
ENDBRANCH   6  10
ENDBRANCH   1   2
BRANCH   1  15
ATOM     15  C   UNL     1       0.373   9.604  20.348  0.00  0.00    +0.000 A 
ATOM     16  N   UNL     1       0.270   9.396  21.645  0.00  0.00    +0.000 NA
ATOM     17  N   UNL     1       1.159   8.401  21.946  0.00  0.00    +0.000 NA
ATOM     18  N   UNL     1       1.808   7.994  20.864  0.00  0.00    +0.000 NA
ATOM     19  N   UNL     1       1.293   8.707  19.836  0.00  0.00    +0.000 N 
BRANCH  19  20
ATOM     20  C   UNL     1       1.934   8.682  18.528  0.00  0.00    +0.000 C 
BRANCH  20  21
ATOM     21  C   UNL     1       2.651   7.412  18.105  0.00  0.00    +0.000 A 
ATOM     22  C   UNL     1       3.927   7.357  17.528  0.00  0.00    +0.000 A 
ATOM     23  C   UNL     1       4.500   6.126  17.156  0.00  0.00    +0.000 A 
ATOM     24  C   UNL     1       3.814   4.930  17.354  0.00  0.00    +0.000 A 
ATOM     25  C   UNL     1       2.539   4.972  17.913  0.00  0.00    +0.000 A 
ATOM     26  C   UNL     1       1.966   6.193  18.288  0.00  0.00    +0.000 A 
BRANCH  24  27
ATOM     27  O   UNL     1       4.265   3.676  17.043  0.00  0.00    +0.000 OA
ATOM     28  C   UNL     1       3.720   2.590  17.788  0.00  0.00    +0.000 C 
ENDBRANCH  24  27
ENDBRANCH  20  21
ENDBRANCH  19  20
ENDBRANCH   1  15
BRANCH   1  29
ATOM     29  C   UNL     1      -0.743  10.032  18.202  0.00  0.00    +0.000 C 
BRANCH  29  31
ATOM     30  C   UNL     1      -2.492  11.176  16.650  0.00  0.00    +0.000 C 
ATOM     31  C   UNL     1      -2.242  10.228  17.821  0.00  0.00    +0.000 C 
ENDBRANCH  29  31
ENDBRANCH   1  29
TORSDOF 8
ENDMDL
MODEL 8
REMARK VINA RESULT:      -6.4      4.244      6.737
REMARK  Name = 
REMARK  10 active torsions:
REMARK  status: ('A' for Active; 'I' for Inactive)
REMARK    1  A    between atoms: C_1  and  C_2
REMARK    2  A    between atoms: C_2  and  C_3
REMARK    3  A    between atoms: C_3  and  C_4
REMARK    4  A    between atoms: C_4  and  C_5
REMARK    5  A    between atoms: C_4  and  N_19
REMARK    6  A    between atoms: N_9  and  C_10
REMARK    7  A    between atoms: C_10  and  C_11
REMARK    8  A    between atoms: C_14  and  O_15
REMARK    9  A    between atoms: O_15  and  C_16
REMARK   10  A    between atoms: C_23  and  C_25
REMARK                            x       y       z     vdW  Elec       q    Type
REMARK                         _______ _______ _______ _____ _____    ______ ____
ROOT
ATOM      1  C   UNL     1       0.645  11.572  20.550  0.00  0.00    +0.000 C 
ENDROOT
BRANCH   1   2
ATOM      2  N   UNL     1       0.827  13.032  20.273  0.00  0.00    +0.000 NA
ATOM      3  C   UNL     1       1.667  13.836  21.191  0.00  0.00    +0.000 C 
ATOM      4  C   UNL     1       3.173  14.115  20.840  0.00  0.00    +0.000 C 
ATOM      5  N   UNL     1       3.431  14.249  19.402  0.00  0.00    +0.000 N 
ATOM      6  C   UNL     1       4.111  15.282  18.738  0.00  0.00    +0.000 C 
ATOM      7  O   UNL     1       4.049  15.370  17.508  0.00  0.00    +0.000 OA
ATOM      8  C   UNL     1       2.748  13.245  18.600  0.00  0.00    +0.000 C 
ATOM      9  C   UNL     1       1.241  13.336  18.867  0.00  0.00    +0.000 C 
BRANCH   6  10
ATOM     10  C   UNL     1       4.876  16.268  19.489  0.00  0.00    +0.000 A 
ATOM     11  C   UNL     1       4.489  17.516  19.960  0.00  0.00    +0.000 A 
ATOM     12  C   UNL     1       5.621  18.099  20.575  0.00  0.00    +0.000 A 
ATOM     13  C   UNL     1       6.642  17.195  20.410  0.00  0.00    +0.000 A 
ATOM     14  O   UNL     1       6.209  16.094  19.747  0.00  0.00    +0.000 OA
ENDBRANCH   6  10
ENDBRANCH   1   2
BRANCH   1  15
ATOM     15  C   UNL     1      -0.139  10.974  19.406  0.00  0.00    +0.000 A 
ATOM     16  N   UNL     1      -1.451  10.950  19.291  0.00  0.00    +0.000 NA
ATOM     17  N   UNL     1      -1.726  10.193  18.185  0.00  0.00    +0.000 NA
ATOM     18  N   UNL     1      -0.613   9.749  17.619  0.00  0.00    +0.000 NA
ATOM     19  N   UNL     1       0.403  10.270  18.347  0.00  0.00    +0.000 N 
BRANCH  19  20
ATOM     20  C   UNL     1       1.768   9.802  18.146  0.00  0.00    +0.000 C 
BRANCH  20  21
ATOM     21  C   UNL     1       2.094   8.363  18.505  0.00  0.00    +0.000 A 
ATOM     22  C   UNL     1       2.612   7.407  17.621  0.00  0.00    +0.000 A 
ATOM     23  C   UNL     1       2.868   6.090  18.050  0.00  0.00    +0.000 A 
ATOM     24  C   UNL     1       2.615   5.705  19.364  0.00  0.00    +0.000 A 
ATOM     25  C   UNL     1       2.085   6.642  20.248  0.00  0.00    +0.000 A 
ATOM     26  C   UNL     1       1.833   7.953  19.828  0.00  0.00    +0.000 A 
BRANCH  24  27
ATOM     27  O   UNL     1       2.827   4.464  19.899  0.00  0.00    +0.000 OA
ATOM     28  C   UNL     1       4.010   3.779  19.495  0.00  0.00    +0.000 C 
ENDBRANCH  24  27
ENDBRANCH  20  21
ENDBRANCH  19  20
ENDBRANCH   1  15
BRANCH   1  29
ATOM     29  C   UNL     1      -0.123  11.141  21.856  0.00  0.00    +0.000 C 
BRANCH  29  31
ATOM     30  C   UNL     1      -0.601   8.615  22.267  0.00  0.00    +0.000 C 
ATOM     31  C   UNL     1       0.349   9.792  22.480  0.00  0.00    +0.000 C 
ENDBRANCH  29  31
ENDBRANCH   1  29
TORSDOF 8
ENDMDL
MODEL 9
REMARK VINA RESULT:      -6.3      3.646      5.608
REMARK  Name = 
REMARK  10 active torsions:
REMARK  status: ('A' for Active; 'I' for Inactive)
REMARK    1  A    between atoms: C_1  and  C_2
REMARK    2  A    between atoms: C_2  and  C_3
REMARK    3  A    between atoms: C_3  and  C_4
REMARK    4  A    between atoms: C_4  and  C_5
REMARK    5  A    between atoms: C_4  and  N_19
REMARK    6  A    between atoms: N_9  and  C_10
REMARK    7  A    between atoms: C_10  and  C_11
REMARK    8  A    between atoms: C_14  and  O_15
REMARK    9  A    between atoms: O_15  and  C_16
REMARK   10  A    between atoms: C_23  and  C_25
REMARK                            x       y       z     vdW  Elec       q    Type
REMARK                         _______ _______ _______ _____ _____    ______ ____
ROOT
ATOM      1  C   UNL     1       0.253   9.944  19.396  0.00  0.00    +0.000 C 
ENDROOT
BRANCH   1   2
ATOM      2  N   UNL     1       0.815  10.851  20.447  0.00  0.00    +0.000 NA
ATOM      3  C   UNL     1       1.152  12.247  20.083  0.00  0.00    +0.000 C 
ATOM      4  C   UNL     1       0.130  13.405  20.369  0.00  0.00    +0.000 C 
ATOM      5  N   UNL     1      -0.670  13.201  21.583  0.00  0.00    +0.000 N 
ATOM      6  C   UNL     1      -0.871  14.095  22.647  0.00  0.00    +0.000 C 
ATOM      7  O   UNL     1      -1.381  13.697  23.699  0.00  0.00    +0.000 OA
ATOM      8  C   UNL     1      -1.168  11.841  21.720  0.00  0.00    +0.000 C 
ATOM      9  C   UNL     1       0.021  10.874  21.715  0.00  0.00    +0.000 C 
BRANCH   6  10
ATOM     10  C   UNL     1      -0.462  15.488  22.531  0.00  0.00    +0.000 A 
ATOM     11  C   UNL     1       0.607  16.148  23.121  0.00  0.00    +0.000 A 
ATOM     12  C   UNL     1       0.526  17.505  22.732  0.00  0.00    +0.000 A 
ATOM     13  C   UNL     1      -0.607  17.605  21.962  0.00  0.00    +0.000 A 
ATOM     14  O   UNL     1      -1.218  16.400  21.844  0.00  0.00    +0.000 OA
ENDBRANCH   6  10
ENDBRANCH   1   2
BRANCH   1  15
ATOM     15  C   UNL     1       1.409   9.270  18.694  0.00  0.00    +0.000 A 
ATOM     16  N   UNL     1       1.867   9.563  17.494  0.00  0.00    +0.000 NA
ATOM     17  N   UNL     1       2.814   8.619  17.205  0.00  0.00    +0.000 NA
ATOM     18  N   UNL     1       2.947   7.752  18.198  0.00  0.00    +0.000 NA
ATOM     19  N   UNL     1       2.102   8.172  19.169  0.00  0.00    +0.000 N 
BRANCH  19  20
ATOM     20  C   UNL     1       1.819   7.323  20.317  0.00  0.00    +0.000 C 
BRANCH  20  21
ATOM     21  C   UNL     1       2.036   5.826  20.174  0.00  0.00    +0.000 A 
ATOM     22  C   UNL     1       1.078   4.841  20.447  0.00  0.00    +0.000 A 
ATOM     23  C   UNL     1       1.384   3.474  20.296  0.00  0.00    +0.000 A 
ATOM     24  C   UNL     1       2.646   3.068  19.869  0.00  0.00    +0.000 A 
ATOM     25  C   UNL     1       3.611   4.037  19.610  0.00  0.00    +0.000 A 
ATOM     26  C   UNL     1       3.311   5.397  19.754  0.00  0.00    +0.000 A 
BRANCH  24  27
ATOM     27  O   UNL     1       3.059   1.777  19.678  0.00  0.00    +0.000 OA
ATOM     28  C   UNL     1       3.622   1.460  18.407  0.00  0.00    +0.000 C 
ENDBRANCH  24  27
ENDBRANCH  20  21
ENDBRANCH  19  20
ENDBRANCH   1  15
BRANCH   1  29
ATOM     29  C   UNL     1      -0.627  10.570  18.250  0.00  0.00    +0.000 C 
BRANCH  29  31
ATOM     30  C   UNL     1      -2.734   9.839  16.907  0.00  0.00    +0.000 C 
ATOM     31  C   UNL     1      -2.130  10.154  18.274  0.00  0.00    +0.000 C 
ENDBRANCH  29  31
ENDBRANCH   1  29
TORSDOF 8
ENDMDL
