MODEL 1
REMARK VINA RESULT:      -8.0      0.000      0.000
REMARK  Name = 
REMARK  7 active torsions:
REMARK  status: ('A' for Active; 'I' for Inactive)
REMARK    1  A    between atoms: C_2  and  C_3
REMARK    2  A    between atoms: C_3  and  N_4
REMARK    3  A    between atoms: N_4  and  C_5
REMARK    4  A    between atoms: C_5  and  C_6
REMARK    5  A    between atoms: N_12  and  C_13
REMARK    6  A    between atoms: C_15  and  C_16
REMARK    7  A    between atoms: C_22  and  N_23
REMARK                            x       y       z     vdW  Elec       q    Type
REMARK                         _______ _______ _______ _____ _____    ______ ____
ROOT
ATOM      1  C   UNL     1       2.818   6.154  18.921  0.00  0.00    +0.000 A 
ATOM      2  C   UNL     1       2.371   7.416  19.348  0.00  0.00    +0.000 A 
ATOM      3  C   UNL     1       1.514   7.548  20.438  0.00  0.00    +0.000 A 
ATOM      4  C   UNL     1       1.071   6.375  21.054  0.00  0.00    +0.000 A 
ATOM      5  C   UNL     1       1.558   5.115  20.655  0.00  0.00    +0.000 A 
ATOM      6  C   UNL     1       2.477   4.965  19.586  0.00  0.00    +0.000 A 
ENDROOT
BRANCH   6   7
ATOM      7  N   UNL     1       3.037   3.717  19.252  0.00  0.00    +0.000 N 
ATOM      8  C   UNL     1       3.548   2.836  20.321  0.00  0.00    +0.000 C 
ATOM      9  C   UNL     1       4.449   1.741  19.718  0.00  0.00    +0.000 C 
ATOM     10  O   UNL     1       3.752   0.978  18.719  0.00  0.00    +0.000 OA
ATOM     11  C   UNL     1       3.317   1.844  17.659  0.00  0.00    +0.000 C 
ATOM     12  C   UNL     1       2.374   2.954  18.170  0.00  0.00    +0.000 C 
ENDBRANCH   6   7
BRANCH   1  15
ATOM     13  O   UNL     1       5.608   5.721  18.923  0.00  0.00    +0.000 OA
ATOM     14  C   UNL     1       5.007   6.184  17.961  0.00  0.00    +0.000 C 
ATOM     15  N   UNL     1       3.634   6.186  17.775  0.00  0.00    +0.000 N 
ATOM     16  H   UNL     1       3.372   6.933  17.125  0.00  0.00    +0.000 HD
BRANCH  14  17
ATOM     17  C   UNL     1       5.721   6.964  16.863  0.00  0.00    +0.000 C 
BRANCH  17  18
ATOM     18  N   UNL     1       7.086   6.493  16.589  0.00  0.00    +0.000 NA
ATOM     19  H   UNL     1       7.440   7.015  15.786  0.00  0.00    +0.000 HD
BRANCH  18  20
ATOM     20  C   UNL     1       7.133   5.065  16.218  0.00  0.00    +0.000 C 
BRANCH  20  21
ATOM     21  C   UNL     1       7.052   4.774  14.727  0.00  0.00    +0.000 A 
ATOM     22  C   UNL     1       6.180   3.804  14.234  0.00  0.00    +0.000 A 
ATOM     23  C   UNL     1       6.136   3.575  12.860  0.00  0.00    +0.000 A 
ATOM     24  C   UNL     1       6.979   4.293  12.021  0.00  0.00    +0.000 A 
ATOM     25  C   UNL     1       7.836   5.218  12.593  0.00  0.00    +0.000 A 
ATOM     26  N   UNL     1       7.884   5.486  13.918  0.00  0.00    +0.000 NA
ENDBRANCH  20  21
ENDBRANCH  18  20
ENDBRANCH  17  18
ENDBRANCH  14  17
ENDBRANCH   1  15
BRANCH   3  27
ATOM     27  C   UNL     1       1.100   8.921  20.899  0.00  0.00    +0.000 C 
ATOM     28  F   UNL     1       1.766   9.344  22.009  0.00  0.00    +0.000 F 
ATOM     29  F   UNL     1       1.321   9.877  19.956  0.00  0.00    +0.000 F 
ATOM     30  F   UNL     1      -0.223   9.002  21.213  0.00  0.00    +0.000 F 
ENDBRANCH   3  27
TORSDOF 7
ENDMDL
MODEL 2
REMARK VINA RESULT:      -8.0      3.272      7.532
REMARK  Name = 
REMARK  7 active torsions:
REMARK  status: ('A' for Active; 'I' for Inactive)
REMARK    1  A    between atoms: C_2  and  C_3
REMARK    2  A    between atoms: C_3  and  N_4
REMARK    3  A    between atoms: N_4  and  C_5
REMARK    4  A    between atoms: C_5  and  C_6
REMARK    5  A    between atoms: N_12  and  C_13
REMARK    6  A    between atoms: C_15  and  C_16
REMARK    7  A    between atoms: C_22  and  N_23
REMARK                            x       y       z     vdW  Elec       q    Type
REMARK                         _______ _______ _______ _____ _____    ______ ____
ROOT
ATOM      1  C   UNL     1       3.149   5.229  17.802  0.00  0.00    +0.000 A 
ATOM      2  C   UNL     1       2.117   4.774  18.641  0.00  0.00    +0.000 A 
ATOM      3  C   UNL     1       1.985   3.424  18.958  0.00  0.00    +0.000 A 
ATOM      4  C   UNL     1       2.882   2.533  18.363  0.00  0.00    +0.000 A 
ATOM      5  C   UNL     1       3.942   2.996  17.560  0.00  0.00    +0.000 A 
ATOM      6  C   UNL     1       4.130   4.372  17.275  0.00  0.00    +0.000 A 
ENDROOT
BRANCH   6   7
ATOM      7  N   UNL     1       5.245   4.841  16.555  0.00  0.00    +0.000 N 
ATOM      8  C   UNL     1       6.430   5.334  17.284  0.00  0.00    +0.000 C 
ATOM      9  C   UNL     1       7.335   6.143  16.335  0.00  0.00    +0.000 C 
ATOM     10  O   UNL     1       7.728   5.364  15.192  0.00  0.00    +0.000 OA
ATOM     11  C   UNL     1       6.562   4.946  14.463  0.00  0.00    +0.000 C 
ATOM     12  C   UNL     1       5.614   4.093  15.331  0.00  0.00    +0.000 C 
ENDBRANCH   6   7
BRANCH   1  15
ATOM     13  O   UNL     1       2.474   7.211  19.695  0.00  0.00    +0.000 OA
ATOM     14  C   UNL     1       2.545   7.435  18.493  0.00  0.00    +0.000 C 
ATOM     15  N   UNL     1       3.113   6.610  17.536  0.00  0.00    +0.000 N 
ATOM     16  H   UNL     1       2.721   6.824  16.615  0.00  0.00    +0.000 HD
BRANCH  14  17
ATOM     17  C   UNL     1       1.872   8.647  17.858  0.00  0.00    +0.000 C 
BRANCH  17  18
ATOM     18  N   UNL     1       1.669   9.770  18.785  0.00  0.00    +0.000 NA
ATOM     19  H   UNL     1       2.072   9.506  19.685  0.00  0.00    +0.000 HD
BRANCH  18  20
ATOM     20  C   UNL     1       0.242  10.056  19.029  0.00  0.00    +0.000 C 
BRANCH  20  21
ATOM     21  C   UNL     1      -0.163  10.168  20.490  0.00  0.00    +0.000 A 
ATOM     22  C   UNL     1      -0.004   9.091  21.361  0.00  0.00    +0.000 A 
ATOM     23  C   UNL     1      -0.383   9.242  22.694  0.00  0.00    +0.000 A 
ATOM     24  C   UNL     1      -0.937  10.446  23.114  0.00  0.00    +0.000 A 
ATOM     25  C   UNL     1      -1.087  11.456  22.180  0.00  0.00    +0.000 A 
ATOM     26  N   UNL     1      -0.703  11.353  20.887  0.00  0.00    +0.000 NA
ENDBRANCH  20  21
ENDBRANCH  18  20
ENDBRANCH  17  18
ENDBRANCH  14  17
ENDBRANCH   1  15
BRANCH   3  27
ATOM     27  C   UNL     1       0.900   2.983  19.905  0.00  0.00    +0.000 C 
ATOM     28  F   UNL     1       1.347   2.164  20.897  0.00  0.00    +0.000 F 
ATOM     29  F   UNL     1       0.304   4.029  20.538  0.00  0.00    +0.000 F 
ATOM     30  F   UNL     1      -0.101   2.296  19.288  0.00  0.00    +0.000 F 
ENDBRANCH   3  27
TORSDOF 7
ENDMDL
MODEL 3
REMARK VINA RESULT:      -7.8      3.820      7.353
REMARK  Name = 
REMARK  7 active torsions:
REMARK  status: ('A' for Active; 'I' for Inactive)
REMARK    1  A    between atoms: C_2  and  C_3
REMARK    2  A    between atoms: C_3  and  N_4
REMARK    3  A    between atoms: N_4  and  C_5
REMARK    4  A    between atoms: C_5  and  C_6
REMARK    5  A    between atoms: N_12  and  C_13
REMARK    6  A    between atoms: C_15  and  C_16
REMARK    7  A    between atoms: C_22  and  N_23
REMARK                            x       y       z     vdW  Elec       q    Type
REMARK                         _______ _______ _______ _____ _____    ______ ____
ROOT
ATOM      1  C   UNL     1       3.132   5.256  17.876  0.00  0.00    +0.000 A 
ATOM      2  C   UNL     1       2.110   4.769  18.709  0.00  0.00    +0.000 A 
ATOM      3  C   UNL     1       1.998   3.410  18.995  0.00  0.00    +0.000 A 
ATOM      4  C   UNL     1       2.904   2.545  18.377  0.00  0.00    +0.000 A 
ATOM      5  C   UNL     1       3.954   3.040  17.581  0.00  0.00    +0.000 A 
ATOM      6  C   UNL     1       4.122   4.425  17.326  0.00  0.00    +0.000 A 
ENDROOT
BRANCH   6   7
ATOM      7  N   UNL     1       5.228   4.925  16.612  0.00  0.00    +0.000 N 
ATOM      8  C   UNL     1       6.377   5.490  17.347  0.00  0.00    +0.000 C 
ATOM      9  C   UNL     1       7.261   6.315  16.393  0.00  0.00    +0.000 C 
ATOM     10  O   UNL     1       7.709   5.525  15.278  0.00  0.00    +0.000 OA
ATOM     11  C   UNL     1       6.576   5.036  14.541  0.00  0.00    +0.000 C 
ATOM     12  C   UNL     1       5.652   4.163  15.415  0.00  0.00    +0.000 C 
ENDBRANCH   6   7
BRANCH   1  15
ATOM     13  O   UNL     1       2.547   7.194  19.843  0.00  0.00    +0.000 OA
ATOM     14  C   UNL     1       2.555   7.445  18.644  0.00  0.00    +0.000 C 
ATOM     15  N   UNL     1       3.076   6.643  17.641  0.00  0.00    +0.000 N 
ATOM     16  H   UNL     1       2.636   6.874  16.747  0.00  0.00    +0.000 HD
BRANCH  14  17
ATOM     17  C   UNL     1       1.844   8.665  18.070  0.00  0.00    +0.000 C 
BRANCH  17  18
ATOM     18  N   UNL     1       0.999   9.374  19.042  0.00  0.00    +0.000 NA
ATOM     19  H   UNL     1       0.181   8.791  19.226  0.00  0.00    +0.000 HD
BRANCH  18  20
ATOM     20  C   UNL     1       0.493  10.660  18.525  0.00  0.00    +0.000 C 
BRANCH  20  21
ATOM     21  C   UNL     1      -1.004  10.718  18.266  0.00  0.00    +0.000 A 
ATOM     22  C   UNL     1      -1.599   9.888  17.317  0.00  0.00    +0.000 A 
ATOM     23  C   UNL     1      -2.976   9.971  17.118  0.00  0.00    +0.000 A 
ATOM     24  C   UNL     1      -3.716  10.897  17.845  0.00  0.00    +0.000 A 
ATOM     25  C   UNL     1      -3.045  11.705  18.748  0.00  0.00    +0.000 A 
ATOM     26  N   UNL     1      -1.716  11.629  18.986  0.00  0.00    +0.000 NA
ENDBRANCH  20  21
ENDBRANCH  18  20
ENDBRANCH  17  18
ENDBRANCH  14  17
ENDBRANCH   1  15
BRANCH   3  27
ATOM     27  C   UNL     1       0.923   2.933  19.937  0.00  0.00    +0.000 C 
ATOM     28  F   UNL     1       1.369   2.034  20.857  0.00  0.00    +0.000 F 
ATOM     29  F   UNL     1       0.372   3.948  20.657  0.00  0.00    +0.000 F 
ATOM     30  F   UNL     1      -0.112   2.320  19.299  0.00  0.00    +0.000 F 
ENDBRANCH   3  27
TORSDOF 7
ENDMDL
MODEL 4
REMARK VINA RESULT:      -7.6      3.219      7.482
REMARK  Name = 
REMARK  7 active torsions:
REMARK  status: ('A' for Active; 'I' for Inactive)
REMARK    1  A    between atoms: C_2  and  C_3
REMARK    2  A    between atoms: C_3  and  N_4
REMARK    3  A    between atoms: N_4  and  C_5
REMARK    4  A    between atoms: C_5  and  C_6
REMARK    5  A    between atoms: N_12  and  C_13
REMARK    6  A    between atoms: C_15  and  C_16
REMARK    7  A    between atoms: C_22  and  N_23
REMARK                            x       y       z     vdW  Elec       q    Type
REMARK                         _______ _______ _______ _____ _____    ______ ____
ROOT
ATOM      1  C   UNL     1       3.225   5.260  18.027  0.00  0.00    +0.000 A 
ATOM      2  C   UNL     1       2.091   4.810  18.724  0.00  0.00    +0.000 A 
ATOM      3  C   UNL     1       1.992   3.495  19.172  0.00  0.00    +0.000 A 
ATOM      4  C   UNL     1       3.039   2.626  18.851  0.00  0.00    +0.000 A 
ATOM      5  C   UNL     1       4.195   3.091  18.194  0.00  0.00    +0.000 A 
ATOM      6  C   UNL     1       4.339   4.440  17.784  0.00  0.00    +0.000 A 
ENDROOT
BRANCH   6   7
ATOM      7  N   UNL     1       5.533   4.925  17.217  0.00  0.00    +0.000 N 
ATOM      8  C   UNL     1       5.710   4.896  15.751  0.00  0.00    +0.000 C 
ATOM      9  C   UNL     1       7.196   5.093  15.394  0.00  0.00    +0.000 C 
ATOM     10  O   UNL     1       7.710   6.317  15.945  0.00  0.00    +0.000 OA
ATOM     11  C   UNL     1       7.585   6.299  17.376  0.00  0.00    +0.000 C 
ATOM     12  C   UNL     1       6.117   6.143  17.825  0.00  0.00    +0.000 C 
ENDBRANCH   6   7
BRANCH   1  15
ATOM     13  O   UNL     1       2.609   7.451  19.697  0.00  0.00    +0.000 OA
ATOM     14  C   UNL     1       2.613   7.527  18.474  0.00  0.00    +0.000 C 
ATOM     15  N   UNL     1       3.147   6.598  17.596  0.00  0.00    +0.000 N 
ATOM     16  H   UNL     1       2.703   6.691  16.679  0.00  0.00    +0.000 HD
BRANCH  14  17
ATOM     17  C   UNL     1       1.882   8.641  17.733  0.00  0.00    +0.000 C 
BRANCH  17  18
ATOM     18  N   UNL     1       1.716   9.871  18.520  0.00  0.00    +0.000 NA
ATOM     19  H   UNL     1       2.178   9.729  19.419  0.00  0.00    +0.000 HD
BRANCH  18  20
ATOM     20  C   UNL     1       0.302  10.172  18.815  0.00  0.00    +0.000 C 
BRANCH  20  21
ATOM     21  C   UNL     1      -0.055  10.259  20.290  0.00  0.00    +0.000 A 
ATOM     22  C   UNL     1       0.291   9.236  21.171  0.00  0.00    +0.000 A 
ATOM     23  C   UNL     1      -0.051   9.361  22.517  0.00  0.00    +0.000 A 
ATOM     24  C   UNL     1      -0.754  10.483  22.940  0.00  0.00    +0.000 A 
ATOM     25  C   UNL     1      -1.085  11.440  21.997  0.00  0.00    +0.000 A 
ATOM     26  N   UNL     1      -0.743  11.364  20.690  0.00  0.00    +0.000 NA
ENDBRANCH  20  21
ENDBRANCH  18  20
ENDBRANCH  17  18
ENDBRANCH  14  17
ENDBRANCH   1  15
BRANCH   3  27
ATOM     27  C   UNL     1       0.785   3.064  19.963  0.00  0.00    +0.000 C 
ATOM     28  F   UNL     1       1.096   2.363  21.088  0.00  0.00    +0.000 F 
ATOM     29  F   UNL     1       0.037   4.118  20.387  0.00  0.00    +0.000 F 
ATOM     30  F   UNL     1      -0.060   2.264  19.255  0.00  0.00    +0.000 F 
ENDBRANCH   3  27
TORSDOF 7
ENDMDL
MODEL 5
REMARK VINA RESULT:      -7.4      3.325      4.928
REMARK  Name = 
REMARK  7 active torsions:
REMARK  status: ('A' for Active; 'I' for Inactive)
REMARK    1  A    between atoms: C_2  and  C_3
REMARK    2  A    between atoms: C_3  and  N_4
REMARK    3  A    between atoms: N_4  and  C_5
REMARK    4  A    between atoms: C_5  and  C_6
REMARK    5  A    between atoms: N_12  and  C_13
REMARK    6  A    between atoms: C_15  and  C_16
REMARK    7  A    between atoms: C_22  and  N_23
REMARK                            x       y       z     vdW  Elec       q    Type
REMARK                         _______ _______ _______ _____ _____    ______ ____
ROOT
ATOM      1  C   UNL     1       3.776   5.840  18.993  0.00  0.00    +0.000 A 
ATOM      2  C   UNL     1       4.111   4.495  18.763  0.00  0.00    +0.000 A 
ATOM      3  C   UNL     1       3.229   3.465  19.083  0.00  0.00    +0.000 A 
ATOM      4  C   UNL     1       2.022   3.818  19.693  0.00  0.00    +0.000 A 
ATOM      5  C   UNL     1       1.669   5.169  19.880  0.00  0.00    +0.000 A 
ATOM      6  C   UNL     1       2.528   6.233  19.505  0.00  0.00    +0.000 A 
ENDROOT
BRANCH   6   7
ATOM      7  N   UNL     1       2.133   7.581  19.601  0.00  0.00    +0.000 N 
ATOM      8  C   UNL     1       1.788   8.330  18.377  0.00  0.00    +0.000 C 
ATOM      9  C   UNL     1       1.776   9.843  18.669  0.00  0.00    +0.000 C 
ATOM     10  O   UNL     1       0.868  10.165  19.736  0.00  0.00    +0.000 OA
ATOM     11  C   UNL     1       1.258   9.474  20.933  0.00  0.00    +0.000 C 
ATOM     12  C   UNL     1       1.260   7.943  20.742  0.00  0.00    +0.000 C 
ENDBRANCH   6   7
BRANCH   1  15
ATOM     13  O   UNL     1       4.476   6.593  16.364  0.00  0.00    +0.000 OA
ATOM     14  C   UNL     1       5.174   6.849  17.337  0.00  0.00    +0.000 C 
ATOM     15  N   UNL     1       4.794   6.755  18.667  0.00  0.00    +0.000 N 
ATOM     16  H   UNL     1       5.623   6.650  19.259  0.00  0.00    +0.000 HD
BRANCH  14  17
ATOM     17  C   UNL     1       6.652   7.194  17.202  0.00  0.00    +0.000 C 
BRANCH  17  18
ATOM     18  N   UNL     1       7.485   6.076  16.735  0.00  0.00    +0.000 NA
ATOM     19  H   UNL     1       8.056   6.416  15.959  0.00  0.00    +0.000 HD
BRANCH  18  20
ATOM     20  C   UNL     1       6.686   4.951  16.210  0.00  0.00    +0.000 C 
BRANCH  20  21
ATOM     21  C   UNL     1       6.807   4.704  14.715  0.00  0.00    +0.000 A 
ATOM     22  C   UNL     1       6.002   3.761  14.078  0.00  0.00    +0.000 A 
ATOM     23  C   UNL     1       6.144   3.572  12.704  0.00  0.00    +0.000 A 
ATOM     24  C   UNL     1       7.101   4.304  12.010  0.00  0.00    +0.000 A 
ATOM     25  C   UNL     1       7.880   5.200  12.722  0.00  0.00    +0.000 A 
ATOM     26  N   UNL     1       7.748   5.428  14.048  0.00  0.00    +0.000 NA
ENDBRANCH  20  21
ENDBRANCH  18  20
ENDBRANCH  17  18
ENDBRANCH  14  17
ENDBRANCH   1  15
BRANCH   3  27
ATOM     27  C   UNL     1       3.601   2.040  18.771  0.00  0.00    +0.000 C 
ATOM     28  F   UNL     1       2.540   1.185  18.790  0.00  0.00    +0.000 F 
ATOM     29  F   UNL     1       4.154   1.904  17.535  0.00  0.00    +0.000 F 
ATOM     30  F   UNL     1       4.505   1.520  19.646  0.00  0.00    +0.000 F 
ENDBRANCH   3  27
TORSDOF 7
ENDMDL
MODEL 6
REMARK VINA RESULT:      -7.4      5.393      7.627
REMARK  Name = 
REMARK  7 active torsions:
REMARK  status: ('A' for Active; 'I' for Inactive)
REMARK    1  A    between atoms: C_2  and  C_3
REMARK    2  A    between atoms: C_3  and  N_4
REMARK    3  A    between atoms: N_4  and  C_5
REMARK    4  A    between atoms: C_5  and  C_6
REMARK    5  A    between atoms: N_12  and  C_13
REMARK    6  A    between atoms: C_15  and  C_16
REMARK    7  A    between atoms: C_22  and  N_23
REMARK                            x       y       z     vdW  Elec       q    Type
REMARK                         _______ _______ _______ _____ _____    ______ ____
ROOT
ATOM      1  C   UNL     1       6.720   5.274  16.290  0.00  0.00    +0.000 A 
ATOM      2  C   UNL     1       7.462   5.470  15.113  0.00  0.00    +0.000 A 
ATOM      3  C   UNL     1       7.082   4.878  13.911  0.00  0.00    +0.000 A 
ATOM      4  C   UNL     1       5.968   4.035  13.933  0.00  0.00    +0.000 A 
ATOM      5  C   UNL     1       5.199   3.877  15.103  0.00  0.00    +0.000 A 
ATOM      6  C   UNL     1       5.535   4.519  16.321  0.00  0.00    +0.000 A 
ENDROOT
BRANCH   6   7
ATOM      7  N   UNL     1       4.712   4.439  17.460  0.00  0.00    +0.000 N 
ATOM      8  C   UNL     1       3.752   5.525  17.746  0.00  0.00    +0.000 C 
ATOM      9  C   UNL     1       3.262   5.426  19.204  0.00  0.00    +0.000 C 
ATOM     10  O   UNL     1       2.673   4.142  19.474  0.00  0.00    +0.000 OA
ATOM     11  C   UNL     1       3.641   3.105  19.248  0.00  0.00    +0.000 C 
ATOM     12  C   UNL     1       4.160   3.106  17.795  0.00  0.00    +0.000 C 
ENDBRANCH   6   7
BRANCH   1  15
ATOM     13  O   UNL     1       6.195   7.935  17.072  0.00  0.00    +0.000 OA
ATOM     14  C   UNL     1       7.099   7.265  17.556  0.00  0.00    +0.000 C 
ATOM     15  N   UNL     1       7.264   5.895  17.429  0.00  0.00    +0.000 N 
ATOM     16  H   UNL     1       8.245   5.647  17.582  0.00  0.00    +0.000 HD
BRANCH  14  17
ATOM     17  C   UNL     1       8.277   7.905  18.282  0.00  0.00    +0.000 C 
BRANCH  17  18
ATOM     18  N   UNL     1       8.399   9.353  18.059  0.00  0.00    +0.000 NA
ATOM     19  H   UNL     1       8.927   9.491  17.195  0.00  0.00    +0.000 HD
BRANCH  18  20
ATOM     20  C   UNL     1       9.155  10.033  19.129  0.00  0.00    +0.000 C 
BRANCH  20  21
ATOM     21  C   UNL     1       9.985  11.227  18.686  0.00  0.00    +0.000 A 
ATOM     22  C   UNL     1       9.460  12.180  17.814  0.00  0.00    +0.000 A 
ATOM     23  C   UNL     1      10.255  13.262  17.441  0.00  0.00    +0.000 A 
ATOM     24  C   UNL     1      11.557  13.349  17.919  0.00  0.00    +0.000 A 
ATOM     25  C   UNL     1      12.013  12.346  18.758  0.00  0.00    +0.000 A 
ATOM     26  N   UNL     1      11.258  11.299  19.164  0.00  0.00    +0.000 NA
ENDBRANCH  20  21
ENDBRANCH  18  20
ENDBRANCH  17  18
ENDBRANCH  14  17
ENDBRANCH   1  15
BRANCH   3  27
ATOM     27  C   UNL     1       7.871   5.156  12.659  0.00  0.00    +0.000 C 
ATOM     28  F   UNL     1       7.723   4.201  11.700  0.00  0.00    +0.000 F 
ATOM     29  F   UNL     1       7.511   6.327  12.065  0.00  0.00    +0.000 F 
ATOM     30  F   UNL     1       9.212   5.246  12.882  0.00  0.00    +0.000 F 
ENDBRANCH   3  27
TORSDOF 7
ENDMDL
MODEL 7
REMARK VINA RESULT:      -7.4      4.442      7.604
REMARK  Name = 
REMARK  7 active torsions:
REMARK  status: ('A' for Active; 'I' for Inactive)
REMARK    1  A    between atoms: C_2  and  C_3
REMARK    2  A    between atoms: C_3  and  N_4
REMARK    3  A    between atoms: N_4  and  C_5
REMARK    4  A    between atoms: C_5  and  C_6
REMARK    5  A    between atoms: N_12  and  C_13
REMARK    6  A    between atoms: C_15  and  C_16
REMARK    7  A    between atoms: C_22  and  N_23
REMARK                            x       y       z     vdW  Elec       q    Type
REMARK                         _______ _______ _______ _____ _____    ______ ____
ROOT
ATOM      1  C   UNL     1       0.054  10.552  18.796  0.00  0.00    +0.000 A 
ATOM      2  C   UNL     1      -1.088   9.891  18.311  0.00  0.00    +0.000 A 
ATOM      3  C   UNL     1      -2.202  10.601  17.871  0.00  0.00    +0.000 A 
ATOM      4  C   UNL     1      -2.164  11.993  17.983  0.00  0.00    +0.000 A 
ATOM      5  C   UNL     1      -1.002  12.655  18.424  0.00  0.00    +0.000 A 
ATOM      6  C   UNL     1       0.164  11.952  18.820  0.00  0.00    +0.000 A 
ENDROOT
BRANCH   6   7
ATOM      7  N   UNL     1       1.356  12.617  19.167  0.00  0.00    +0.000 N 
ATOM      8  C   UNL     1       2.080  13.400  18.145  0.00  0.00    +0.000 C 
ATOM      9  C   UNL     1       3.514  13.696  18.624  0.00  0.00    +0.000 C 
ATOM     10  O   UNL     1       3.515  14.383  19.887  0.00  0.00    +0.000 OA
ATOM     11  C   UNL     1       2.861  13.576  20.881  0.00  0.00    +0.000 C 
ATOM     12  C   UNL     1       1.399  13.263  20.499  0.00  0.00    +0.000 C 
ENDBRANCH   6   7
BRANCH   1  15
ATOM     13  O   UNL     1       2.237   9.679  17.234  0.00  0.00    +0.000 OA
ATOM     14  C   UNL     1       1.944   9.172  18.310  0.00  0.00    +0.000 C 
ATOM     15  N   UNL     1       1.071   9.693  19.252  0.00  0.00    +0.000 N 
ATOM     16  H   UNL     1       0.714   8.942  19.849  0.00  0.00    +0.000 HD
BRANCH  14  17
ATOM     17  C   UNL     1       2.427   7.781  18.705  0.00  0.00    +0.000 C 
BRANCH  17  18
ATOM     18  N   UNL     1       2.202   7.452  20.120  0.00  0.00    +0.000 NA
ATOM     19  H   UNL     1       3.078   7.613  20.620  0.00  0.00    +0.000 HD
BRANCH  18  20
ATOM     20  C   UNL     1       1.853   6.033  20.326  0.00  0.00    +0.000 C 
BRANCH  20  21
ATOM     21  C   UNL     1       2.518   5.051  19.375  0.00  0.00    +0.000 A 
ATOM     22  C   UNL     1       1.788   4.428  18.364  0.00  0.00    +0.000 A 
ATOM     23  C   UNL     1       2.441   3.539  17.512  0.00  0.00    +0.000 A 
ATOM     24  C   UNL     1       3.790   3.272  17.709  0.00  0.00    +0.000 A 
ATOM     25  C   UNL     1       4.437   3.910  18.754  0.00  0.00    +0.000 A 
ATOM     26  N   UNL     1       3.840   4.799  19.580  0.00  0.00    +0.000 NA
ENDBRANCH  20  21
ENDBRANCH  18  20
ENDBRANCH  17  18
ENDBRANCH  14  17
ENDBRANCH   1  15
BRANCH   3  27
ATOM     27  C   UNL     1      -3.385   9.859  17.307  0.00  0.00    +0.000 C 
ATOM     28  F   UNL     1      -4.502  10.628  17.188  0.00  0.00    +0.000 F 
ATOM     29  F   UNL     1      -3.147   9.369  16.060  0.00  0.00    +0.000 F 
ATOM     30  F   UNL     1      -3.757   8.790  18.066  0.00  0.00    +0.000 F 
ENDBRANCH   3  27
TORSDOF 7
ENDMDL
MODEL 8
REMARK VINA RESULT:      -7.3      5.367      7.616
REMARK  Name = 
REMARK  7 active torsions:
REMARK  status: ('A' for Active; 'I' for Inactive)
REMARK    1  A    between atoms: C_2  and  C_3
REMARK    2  A    between atoms: C_3  and  N_4
REMARK    3  A    between atoms: N_4  and  C_5
REMARK    4  A    between atoms: C_5  and  C_6
REMARK    5  A    between atoms: N_12  and  C_13
REMARK    6  A    between atoms: C_15  and  C_16
REMARK    7  A    between atoms: C_22  and  N_23
REMARK                            x       y       z     vdW  Elec       q    Type
REMARK                         _______ _______ _______ _____ _____    ______ ____
ROOT
ATOM      1  C   UNL     1       6.701   5.192  16.293  0.00  0.00    +0.000 A 
ATOM      2  C   UNL     1       7.451   5.364  15.117  0.00  0.00    +0.000 A 
ATOM      3  C   UNL     1       7.030   4.825  13.904  0.00  0.00    +0.000 A 
ATOM      4  C   UNL     1       5.862   4.057  13.913  0.00  0.00    +0.000 A 
ATOM      5  C   UNL     1       5.087   3.926  15.082  0.00  0.00    +0.000 A 
ATOM      6  C   UNL     1       5.468   4.518  16.312  0.00  0.00    +0.000 A 
ENDROOT
BRANCH   6   7
ATOM      7  N   UNL     1       4.645   4.468  17.452  0.00  0.00    +0.000 N 
ATOM      8  C   UNL     1       3.557   5.454  17.612  0.00  0.00    +0.000 C 
ATOM      9  C   UNL     1       3.061   5.462  19.071  0.00  0.00    +0.000 C 
ATOM     10  O   UNL     1       2.628   4.156  19.486  0.00  0.00    +0.000 OA
ATOM     11  C   UNL     1       3.718   3.225  19.381  0.00  0.00    +0.000 C 
ATOM     12  C   UNL     1       4.254   3.124  17.938  0.00  0.00    +0.000 C 
ENDBRANCH   6   7
BRANCH   1  15
ATOM     13  O   UNL     1       6.119   7.763  17.304  0.00  0.00    +0.000 OA
ATOM     14  C   UNL     1       7.077   7.099  17.683  0.00  0.00    +0.000 C 
ATOM     15  N   UNL     1       7.288   5.751  17.442  0.00  0.00    +0.000 N 
ATOM     16  H   UNL     1       8.286   5.536  17.519  0.00  0.00    +0.000 HD
BRANCH  14  17
ATOM     17  C   UNL     1       8.271   7.735  18.387  0.00  0.00    +0.000 C 
BRANCH  17  18
ATOM     18  N   UNL     1       8.423   9.173  18.120  0.00  0.00    +0.000 NA
ATOM     19  H   UNL     1       8.988   9.274  17.275  0.00  0.00    +0.000 HD
BRANCH  18  20
ATOM     20  C   UNL     1       9.144   9.879  19.197  0.00  0.00    +0.000 C 
BRANCH  20  21
ATOM     21  C   UNL     1       9.851  11.159  18.781  0.00  0.00    +0.000 A 
ATOM     22  C   UNL     1      11.112  11.476  19.285  0.00  0.00    +0.000 A 
ATOM     23  C   UNL     1      11.725  12.657  18.871  0.00  0.00    +0.000 A 
ATOM     24  C   UNL     1      11.055  13.502  17.994  0.00  0.00    +0.000 A 
ATOM     25  C   UNL     1       9.794  13.129  17.563  0.00  0.00    +0.000 A 
ATOM     26  N   UNL     1       9.183  11.976  17.921  0.00  0.00    +0.000 NA
ENDBRANCH  20  21
ENDBRANCH  18  20
ENDBRANCH  17  18
ENDBRANCH  14  17
ENDBRANCH   1  15
BRANCH   3  27
ATOM     27  C   UNL     1       7.833   5.077  12.655  0.00  0.00    +0.000 C 
ATOM     28  F   UNL     1       9.171   5.185  12.883  0.00  0.00    +0.000 F 
ATOM     29  F   UNL     1       7.699   4.080  11.739  0.00  0.00    +0.000 F 
ATOM     30  F   UNL     1       7.478   6.225  12.015  0.00  0.00    +0.000 F 
ENDBRANCH   3  27
TORSDOF 7
ENDMDL
MODEL 9
REMARK VINA RESULT:      -7.3      4.553      7.932
REMARK  Name = 
REMARK  7 active torsions:
REMARK  status: ('A' for Active; 'I' for Inactive)
REMARK    1  A    between atoms: C_2  and  C_3
REMARK    2  A    between atoms: C_3  and  N_4
REMARK    3  A    between atoms: N_4  and  C_5
REMARK    4  A    between atoms: C_5  and  C_6
REMARK    5  A    between atoms: N_12  and  C_13
REMARK    6  A    between atoms: C_15  and  C_16
REMARK    7  A    between atoms: C_22  and  N_23
REMARK                            x       y       z     vdW  Elec       q    Type
REMARK                         _______ _______ _______ _____ _____    ______ ____
ROOT
ATOM      1  C   UNL     1       0.029  10.702  18.823  0.00  0.00    +0.000 A 
ATOM      2  C   UNL     1      -1.057   9.984  18.295  0.00  0.00    +0.000 A 
ATOM      3  C   UNL     1      -2.182  10.637  17.796  0.00  0.00    +0.000 A 
ATOM      4  C   UNL     1      -2.212  12.030  17.894  0.00  0.00    +0.000 A 
ATOM      5  C   UNL     1      -1.104  12.750  18.380  0.00  0.00    +0.000 A 
ATOM      6  C   UNL     1       0.074  12.106  18.837  0.00  0.00    +0.000 A 
ENDROOT
BRANCH   6   7
ATOM      7  N   UNL     1       1.217  12.828  19.230  0.00  0.00    +0.000 N 
ATOM      8  C   UNL     1       1.678  12.760  20.631  0.00  0.00    +0.000 C 
ATOM      9  C   UNL     1       2.669  13.905  20.917  0.00  0.00    +0.000 C 
ATOM     10  O   UNL     1       3.786  13.871  20.011  0.00  0.00    +0.000 OA
ATOM     11  C   UNL     1       3.320  14.000  18.658  0.00  0.00    +0.000 C 
ATOM     12  C   UNL     1       2.346  12.867  18.272  0.00  0.00    +0.000 C 
ENDBRANCH   6   7
BRANCH   1  15
ATOM     13  O   UNL     1       2.029   9.470  17.257  0.00  0.00    +0.000 OA
ATOM     14  C   UNL     1       1.828   9.178  18.430  0.00  0.00    +0.000 C 
ATOM     15  N   UNL     1       1.063   9.896  19.335  0.00  0.00    +0.000 N 
ATOM     16  H   UNL     1       0.746   9.279  20.089  0.00  0.00    +0.000 HD
BRANCH  14  17
ATOM     17  C   UNL     1       2.310   7.860  19.027  0.00  0.00    +0.000 C 
BRANCH  17  18
ATOM     18  N   UNL     1       2.585   6.819  18.027  0.00  0.00    +0.000 NA
ATOM     19  H   UNL     1       1.689   6.439  17.719  0.00  0.00    +0.000 HD
BRANCH  18  20
ATOM     20  C   UNL     1       3.355   5.687  18.580  0.00  0.00    +0.000 C 
BRANCH  20  21
ATOM     21  C   UNL     1       2.551   4.682  19.389  0.00  0.00    +0.000 A 
ATOM     22  C   UNL     1       1.580   3.887  18.781  0.00  0.00    +0.000 A 
ATOM     23  C   UNL     1       0.872   2.975  19.561  0.00  0.00    +0.000 A 
ATOM     24  C   UNL     1       1.128   2.900  20.925  0.00  0.00    +0.000 A 
ATOM     25  C   UNL     1       2.088   3.745  21.457  0.00  0.00    +0.000 A 
ATOM     26  N   UNL     1       2.813   4.620  20.724  0.00  0.00    +0.000 NA
ENDBRANCH  20  21
ENDBRANCH  18  20
ENDBRANCH  17  18
ENDBRANCH  14  17
ENDBRANCH   1  15
BRANCH   3  27
ATOM     27  C   UNL     1      -3.302   9.835  17.188  0.00  0.00    +0.000 C 
ATOM     28  F   UNL     1      -4.417  10.572  16.928  0.00  0.00    +0.000 F 
ATOM     29  F   UNL     1      -2.953   9.271  15.999  0.00  0.00    +0.000 F 
ATOM     30  F   UNL     1      -3.718   8.810  17.982  0.00  0.00    +0.000 F 
ENDBRANCH   3  27
TORSDOF 7
ENDMDL
