MODEL 1
REMARK VINA RESULT:      -8.6      0.000      0.000
REMARK  Name = 
REMARK  6 active torsions:
REMARK  status: ('A' for Active; 'I' for Inactive)
REMARK    1  A    between atoms: C_1  and  S_2
REMARK    2  A    between atoms: S_2  and  C_3
REMARK    3  A    between atoms: C_6  and  C_7
REMARK    4  A    between atoms: C_7  and  C_8
REMARK    5  A    between atoms: C_13  and  C_14
REMARK    6  A    between atoms: C_17  and  C_18
REMARK                            x       y       z     vdW  Elec       q    Type
REMARK                         _______ _______ _______ _____ _____    ______ ____
ROOT
ATOM      1  C   UNL     1       5.148   4.201  18.993  0.00  0.00    +0.000 A 
ATOM      2  N   UNL     1       4.917   3.038  19.593  0.00  0.00    +0.000 NA
ATOM      3  N   UNL     1       3.680   3.108  20.239  0.00  0.00    +0.000 NA
ATOM      4  C   UNL     1       3.223   4.302  19.990  0.00  0.00    +0.000 A 
ATOM      5  S   UNL     1       1.878   5.265  20.424  0.00  0.00    +0.000 S 
ATOM      6  C   UNL     1       2.636   6.543  19.452  0.00  0.00    +0.000 A 
ATOM      7  N   UNL     1       3.781   6.288  18.874  0.00  0.00    +0.000 NA
ATOM      8  N   UNL     1       4.069   5.010  19.210  0.00  0.00    +0.000 N 
ENDROOT
BRANCH   6   9
ATOM      9  C   UNL     1       1.987   7.814  19.314  0.00  0.00    +0.000 A 
ATOM     10  C   UNL     1       1.946   8.659  18.221  0.00  0.00    +0.000 A 
ATOM     11  C   UNL     1       1.177   9.780  18.595  0.00  0.00    +0.000 A 
ATOM     12  C   UNL     1       0.780   9.574  19.902  0.00  0.00    +0.000 A 
ATOM     13  O   UNL     1       1.278   8.375  20.344  0.00  0.00    +0.000 OA
BRANCH  12  14
ATOM     14  C   UNL     1      -0.037  10.344  20.837  0.00  0.00    +0.000 A 
ATOM     15  C   UNL     1      -0.673  11.523  20.413  0.00  0.00    +0.000 A 
ATOM     16  C   UNL     1      -1.487  12.259  21.281  0.00  0.00    +0.000 A 
ATOM     17  C   UNL     1      -1.671  11.820  22.589  0.00  0.00    +0.000 A 
ATOM     18 CL   UNL     1      -2.688  12.715  23.651  0.00  0.00    +0.000 Cl
ATOM     19  C   UNL     1      -1.044  10.662  23.036  0.00  0.00    +0.000 A 
ATOM     20  C   UNL     1      -0.228   9.928  22.164  0.00  0.00    +0.000 A 
ENDBRANCH  12  14
ENDBRANCH   6   9
BRANCH   1  21
ATOM     21  C   UNL     1       6.393   4.673  18.336  0.00  0.00    +0.000 C 
BRANCH  21  25
ATOM     22  C   UNL     1       6.517   4.180  14.037  0.00  0.00    +0.000 A 
ATOM     23  C   UNL     1       7.428   5.024  14.676  0.00  0.00    +0.000 A 
ATOM     24  C   UNL     1       7.376   5.206  16.062  0.00  0.00    +0.000 A 
ATOM     25  C   UNL     1       6.407   4.545  16.831  0.00  0.00    +0.000 A 
ATOM     26  C   UNL     1       5.473   3.727  16.180  0.00  0.00    +0.000 A 
ATOM     27  C   UNL     1       5.529   3.546  14.795  0.00  0.00    +0.000 A 
BRANCH  22  29
ATOM     28  C   UNL     1       4.906   3.234  12.012  0.00  0.00    +0.000 C 
ATOM     29  S   UNL     1       6.558   3.935  12.271  0.00  0.00    +0.000 S 
ENDBRANCH  22  29
ENDBRANCH  21  25
ENDBRANCH   1  21
TORSDOF 5
ENDMDL
MODEL 2
REMARK VINA RESULT:      -8.3      4.925     10.137
REMARK  Name = 
REMARK  6 active torsions:
REMARK  status: ('A' for Active; 'I' for Inactive)
REMARK    1  A    between atoms: C_1  and  S_2
REMARK    2  A    between atoms: S_2  and  C_3
REMARK    3  A    between atoms: C_6  and  C_7
REMARK    4  A    between atoms: C_7  and  C_8
REMARK    5  A    between atoms: C_13  and  C_14
REMARK    6  A    between atoms: C_17  and  C_18
REMARK                            x       y       z     vdW  Elec       q    Type
REMARK                         _______ _______ _______ _____ _____    ______ ____
ROOT
ATOM      1  C   UNL     1      -0.277  11.694  20.009  0.00  0.00    +0.000 A 
ATOM      2  N   UNL     1      -0.465  12.371  21.138  0.00  0.00    +0.000 NA
ATOM      3  N   UNL     1       0.061  11.625  22.196  0.00  0.00    +0.000 NA
ATOM      4  C   UNL     1       0.547  10.545  21.655  0.00  0.00    +0.000 A 
ATOM      5  S   UNL     1       1.274   9.083  22.166  0.00  0.00    +0.000 S 
ATOM      6  C   UNL     1       1.299   8.639  20.447  0.00  0.00    +0.000 A 
ATOM      7  N   UNL     1       0.803   9.484  19.580  0.00  0.00    +0.000 NA
ATOM      8  N   UNL     1       0.391  10.542  20.314  0.00  0.00    +0.000 N 
ENDROOT
BRANCH   6   9
ATOM      9  C   UNL     1       1.858   7.382  20.043  0.00  0.00    +0.000 A 
ATOM     10  C   UNL     1       1.719   6.138  20.628  0.00  0.00    +0.000 A 
ATOM     11  C   UNL     1       2.463   5.230  19.847  0.00  0.00    +0.000 A 
ATOM     12  C   UNL     1       3.024   5.957  18.816  0.00  0.00    +0.000 A 
ATOM     13  O   UNL     1       2.658   7.273  18.937  0.00  0.00    +0.000 OA
BRANCH  12  14
ATOM     14  C   UNL     1       3.871   5.601  17.679  0.00  0.00    +0.000 A 
ATOM     15  C   UNL     1       4.478   6.607  16.909  0.00  0.00    +0.000 A 
ATOM     16  C   UNL     1       5.319   6.290  15.836  0.00  0.00    +0.000 A 
ATOM     17  C   UNL     1       5.559   4.955  15.523  0.00  0.00    +0.000 A 
ATOM     18 CL   UNL     1       6.609   4.565  14.216  0.00  0.00    +0.000 Cl
ATOM     19  C   UNL     1       4.961   3.941  16.263  0.00  0.00    +0.000 A 
ATOM     20  C   UNL     1       4.118   4.263  17.335  0.00  0.00    +0.000 A 
ENDBRANCH  12  14
ENDBRANCH   6   9
BRANCH   1  21
ATOM     21  C   UNL     1      -0.812  11.985  18.656  0.00  0.00    +0.000 C 
BRANCH  21  25
ATOM     22  C   UNL     1      -5.106  11.525  18.364  0.00  0.00    +0.000 A 
ATOM     23  C   UNL     1      -4.274  11.031  17.356  0.00  0.00    +0.000 A 
ATOM     24  C   UNL     1      -2.888  11.199  17.434  0.00  0.00    +0.000 A 
ATOM     25  C   UNL     1      -2.312  11.868  18.524  0.00  0.00    +0.000 A 
ATOM     26  C   UNL     1      -3.154  12.392  19.514  0.00  0.00    +0.000 A 
ATOM     27  C   UNL     1      -4.539  12.222  19.435  0.00  0.00    +0.000 A 
BRANCH  22  29
ATOM     28  C   UNL     1      -7.228  10.953  20.026  0.00  0.00    +0.000 C 
ATOM     29  S   UNL     1      -6.877  11.329  18.287  0.00  0.00    +0.000 S 
ENDBRANCH  22  29
ENDBRANCH  21  25
ENDBRANCH   1  21
TORSDOF 5
ENDMDL
MODEL 3
REMARK VINA RESULT:      -8.2      5.170     10.304
REMARK  Name = 
REMARK  6 active torsions:
REMARK  status: ('A' for Active; 'I' for Inactive)
REMARK    1  A    between atoms: C_1  and  S_2
REMARK    2  A    between atoms: S_2  and  C_3
REMARK    3  A    between atoms: C_6  and  C_7
REMARK    4  A    between atoms: C_7  and  C_8
REMARK    5  A    between atoms: C_13  and  C_14
REMARK    6  A    between atoms: C_17  and  C_18
REMARK                            x       y       z     vdW  Elec       q    Type
REMARK                         _______ _______ _______ _____ _____    ______ ____
ROOT
ATOM      1  C   UNL     1      -0.845  12.103  21.624  0.00  0.00    +0.000 A 
ATOM      2  N   UNL     1      -1.074  12.031  22.931  0.00  0.00    +0.000 NA
ATOM      3  N   UNL     1      -0.477  10.868  23.424  0.00  0.00    +0.000 NA
ATOM      4  C   UNL     1       0.090  10.303  22.397  0.00  0.00    +0.000 A 
ATOM      5  S   UNL     1       0.939   8.861  22.046  0.00  0.00    +0.000 S 
ATOM      6  C   UNL     1       0.980   9.439  20.368  0.00  0.00    +0.000 A 
ATOM      7  N   UNL     1       0.407  10.581  20.090  0.00  0.00    +0.000 NA
ATOM      8  N   UNL     1      -0.082  11.027  21.269  0.00  0.00    +0.000 N 
ENDROOT
BRANCH   6   9
ATOM      9  C   UNL     1       1.635   8.657  19.360  0.00  0.00    +0.000 A 
ATOM     10  C   UNL     1       2.139   9.056  18.137  0.00  0.00    +0.000 A 
ATOM     11  C   UNL     1       2.686   7.911  17.523  0.00  0.00    +0.000 A 
ATOM     12  C   UNL     1       2.494   6.860  18.397  0.00  0.00    +0.000 A 
ATOM     13  O   UNL     1       1.849   7.313  19.518  0.00  0.00    +0.000 OA
BRANCH  12  14
ATOM     14  C   UNL     1       2.847   5.441  18.356  0.00  0.00    +0.000 A 
ATOM     15  C   UNL     1       4.000   4.982  19.016  0.00  0.00    +0.000 A 
ATOM     16  C   UNL     1       4.340   3.625  19.019  0.00  0.00    +0.000 A 
ATOM     17  C   UNL     1       3.526   2.711  18.355  0.00  0.00    +0.000 A 
ATOM     18 CL   UNL     1       3.934   1.039  18.375  0.00  0.00    +0.000 Cl
ATOM     19  C   UNL     1       2.386   3.143  17.685  0.00  0.00    +0.000 A 
ATOM     20  C   UNL     1       2.050   4.503  17.684  0.00  0.00    +0.000 A 
ENDBRANCH  12  14
ENDBRANCH   6   9
BRANCH   1  21
ATOM     21  C   UNL     1      -1.417  13.049  20.634  0.00  0.00    +0.000 C 
BRANCH  21  25
ATOM     22  C   UNL     1      -5.246  12.006  18.904  0.00  0.00    +0.000 A 
ATOM     23  C   UNL     1      -5.185  12.723  20.102  0.00  0.00    +0.000 A 
ATOM     24  C   UNL     1      -3.951  13.041  20.677  0.00  0.00    +0.000 A 
ATOM     25  C   UNL     1      -2.755  12.643  20.062  0.00  0.00    +0.000 A 
ATOM     26  C   UNL     1      -2.823  11.894  18.879  0.00  0.00    +0.000 A 
ATOM     27  C   UNL     1      -4.057  11.579  18.305  0.00  0.00    +0.000 A 
BRANCH  22  29
ATOM     28  C   UNL     1      -7.713  13.132  18.417  0.00  0.00    +0.000 C 
ATOM     29  S   UNL     1      -6.806  11.584  18.151  0.00  0.00    +0.000 S 
ENDBRANCH  22  29
ENDBRANCH  21  25
ENDBRANCH   1  21
TORSDOF 5
ENDMDL
MODEL 4
REMARK VINA RESULT:      -8.1      0.589      1.105
REMARK  Name = 
REMARK  6 active torsions:
REMARK  status: ('A' for Active; 'I' for Inactive)
REMARK    1  A    between atoms: C_1  and  S_2
REMARK    2  A    between atoms: S_2  and  C_3
REMARK    3  A    between atoms: C_6  and  C_7
REMARK    4  A    between atoms: C_7  and  C_8
REMARK    5  A    between atoms: C_13  and  C_14
REMARK    6  A    between atoms: C_17  and  C_18
REMARK                            x       y       z     vdW  Elec       q    Type
REMARK                         _______ _______ _______ _____ _____    ______ ____
ROOT
ATOM      1  C   UNL     1       4.935   4.350  19.122  0.00  0.00    +0.000 A 
ATOM      2  N   UNL     1       4.705   3.210  19.765  0.00  0.00    +0.000 NA
ATOM      3  N   UNL     1       3.481   3.313  20.431  0.00  0.00    +0.000 NA
ATOM      4  C   UNL     1       3.029   4.502  20.150  0.00  0.00    +0.000 A 
ATOM      5  S   UNL     1       1.701   5.491  20.576  0.00  0.00    +0.000 S 
ATOM      6  C   UNL     1       2.451   6.729  19.547  0.00  0.00    +0.000 A 
ATOM      7  N   UNL     1       3.582   6.444  18.957  0.00  0.00    +0.000 NA
ATOM      8  N   UNL     1       3.867   5.175  19.331  0.00  0.00    +0.000 N 
ENDROOT
BRANCH   6   9
ATOM      9  C   UNL     1       1.810   8.000  19.379  0.00  0.00    +0.000 A 
ATOM     10  C   UNL     1       1.819   8.843  18.284  0.00  0.00    +0.000 A 
ATOM     11  C   UNL     1       1.036   9.966  18.621  0.00  0.00    +0.000 A 
ATOM     12  C   UNL     1       0.580   9.761  19.908  0.00  0.00    +0.000 A 
ATOM     13  O   UNL     1       1.055   8.563  20.374  0.00  0.00    +0.000 OA
BRANCH  12  14
ATOM     14  C   UNL     1      -0.279  10.533  20.805  0.00  0.00    +0.000 A 
ATOM     15  C   UNL     1      -0.353  10.203  22.169  0.00  0.00    +0.000 A 
ATOM     16  C   UNL     1      -1.142  10.948  23.052  0.00  0.00    +0.000 A 
ATOM     17  C   UNL     1      -1.870  12.034  22.575  0.00  0.00    +0.000 A 
ATOM     18 CL   UNL     1      -2.826  12.961  23.665  0.00  0.00    +0.000 Cl
ATOM     19  C   UNL     1      -1.823  12.374  21.227  0.00  0.00    +0.000 A 
ATOM     20  C   UNL     1      -1.032  11.624  20.345  0.00  0.00    +0.000 A 
ENDBRANCH  12  14
ENDBRANCH   6   9
BRANCH   1  21
ATOM     21  C   UNL     1       6.170   4.788  18.426  0.00  0.00    +0.000 C 
BRANCH  21  25
ATOM     22  C   UNL     1       6.227   4.008  14.168  0.00  0.00    +0.000 A 
ATOM     23  C   UNL     1       7.320   4.620  14.787  0.00  0.00    +0.000 A 
ATOM     24  C   UNL     1       7.296   4.897  16.158  0.00  0.00    +0.000 A 
ATOM     25  C   UNL     1       6.174   4.566  16.932  0.00  0.00    +0.000 A 
ATOM     26  C   UNL     1       5.067   3.984  16.298  0.00  0.00    +0.000 A 
ATOM     27  C   UNL     1       5.094   3.707  14.929  0.00  0.00    +0.000 A 
BRANCH  22  29
ATOM     28  C   UNL     1       7.493   4.824  11.860  0.00  0.00    +0.000 C 
ATOM     29  S   UNL     1       6.230   3.649  12.421  0.00  0.00    +0.000 S 
ENDBRANCH  22  29
ENDBRANCH  21  25
ENDBRANCH   1  21
TORSDOF 5
ENDMDL
MODEL 5
REMARK VINA RESULT:      -8.1      0.648      1.339
REMARK  Name = 
REMARK  6 active torsions:
REMARK  status: ('A' for Active; 'I' for Inactive)
REMARK    1  A    between atoms: C_1  and  S_2
REMARK    2  A    between atoms: S_2  and  C_3
REMARK    3  A    between atoms: C_6  and  C_7
REMARK    4  A    between atoms: C_7  and  C_8
REMARK    5  A    between atoms: C_13  and  C_14
REMARK    6  A    between atoms: C_17  and  C_18
REMARK                            x       y       z     vdW  Elec       q    Type
REMARK                         _______ _______ _______ _____ _____    ______ ____
ROOT
ATOM      1  C   UNL     1       5.075   4.191  18.903  0.00  0.00    +0.000 A 
ATOM      2  N   UNL     1       4.789   3.055  19.530  0.00  0.00    +0.000 NA
ATOM      3  N   UNL     1       3.543   3.190  20.149  0.00  0.00    +0.000 NA
ATOM      4  C   UNL     1       3.136   4.392  19.857  0.00  0.00    +0.000 A 
ATOM      5  S   UNL     1       1.821   5.416  20.237  0.00  0.00    +0.000 S 
ATOM      6  C   UNL     1       2.644   6.637  19.245  0.00  0.00    +0.000 A 
ATOM      7  N   UNL     1       3.790   6.323  18.697  0.00  0.00    +0.000 NA
ATOM      8  N   UNL     1       4.023   5.045  19.075  0.00  0.00    +0.000 N 
ENDROOT
BRANCH   6   9
ATOM      9  C   UNL     1       2.047   7.927  19.059  0.00  0.00    +0.000 A 
ATOM     10  C   UNL     1       1.869   8.646  17.893  0.00  0.00    +0.000 A 
ATOM     11  C   UNL     1       1.230   9.852  18.245  0.00  0.00    +0.000 A 
ATOM     12  C   UNL     1       1.043   9.819  19.613  0.00  0.00    +0.000 A 
ATOM     13  O   UNL     1       1.544   8.645  20.112  0.00  0.00    +0.000 OA
BRANCH  12  14
ATOM     14  C   UNL     1       0.429  10.743  20.565  0.00  0.00    +0.000 A 
ATOM     15  C   UNL     1      -0.449  10.259  21.551  0.00  0.00    +0.000 A 
ATOM     16  C   UNL     1      -1.022  11.119  22.494  0.00  0.00    +0.000 A 
ATOM     17  C   UNL     1      -0.723  12.478  22.457  0.00  0.00    +0.000 A 
ATOM     18 CL   UNL     1      -1.414  13.532  23.629  0.00  0.00    +0.000 Cl
ATOM     19  C   UNL     1       0.134  12.982  21.484  0.00  0.00    +0.000 A 
ATOM     20  C   UNL     1       0.705  12.118  20.541  0.00  0.00    +0.000 A 
ENDBRANCH  12  14
ENDBRANCH   6   9
BRANCH   1  21
ATOM     21  C   UNL     1       6.349   4.597  18.258  0.00  0.00    +0.000 C 
BRANCH  21  25
ATOM     22  C   UNL     1       6.413   4.203  13.947  0.00  0.00    +0.000 A 
ATOM     23  C   UNL     1       5.354   3.671  14.688  0.00  0.00    +0.000 A 
ATOM     24  C   UNL     1       5.342   3.774  16.082  0.00  0.00    +0.000 A 
ATOM     25  C   UNL     1       6.392   4.411  16.759  0.00  0.00    +0.000 A 
ATOM     26  C   UNL     1       7.468   4.912  16.013  0.00  0.00    +0.000 A 
ATOM     27  C   UNL     1       7.478   4.809  14.620  0.00  0.00    +0.000 A 
BRANCH  22  29
ATOM     28  C   UNL     1       5.185   2.814  11.909  0.00  0.00    +0.000 C 
ATOM     29  S   UNL     1       6.456   4.081  12.168  0.00  0.00    +0.000 S 
ENDBRANCH  22  29
ENDBRANCH  21  25
ENDBRANCH   1  21
TORSDOF 5
ENDMDL
MODEL 6
REMARK VINA RESULT:      -7.7      2.345      3.374
REMARK  Name = 
REMARK  6 active torsions:
REMARK  status: ('A' for Active; 'I' for Inactive)
REMARK    1  A    between atoms: C_1  and  S_2
REMARK    2  A    between atoms: S_2  and  C_3
REMARK    3  A    between atoms: C_6  and  C_7
REMARK    4  A    between atoms: C_7  and  C_8
REMARK    5  A    between atoms: C_13  and  C_14
REMARK    6  A    between atoms: C_17  and  C_18
REMARK                            x       y       z     vdW  Elec       q    Type
REMARK                         _______ _______ _______ _____ _____    ______ ____
ROOT
ATOM      1  C   UNL     1       4.989   4.172  18.483  0.00  0.00    +0.000 A 
ATOM      2  N   UNL     1       4.861   3.069  19.214  0.00  0.00    +0.000 NA
ATOM      3  N   UNL     1       3.777   3.232  20.080  0.00  0.00    +0.000 NA
ATOM      4  C   UNL     1       3.299   4.416  19.823  0.00  0.00    +0.000 A 
ATOM      5  S   UNL     1       2.082   5.455  20.427  0.00  0.00    +0.000 S 
ATOM      6  C   UNL     1       2.655   6.624  19.219  0.00  0.00    +0.000 A 
ATOM      7  N   UNL     1       3.659   6.285  18.453  0.00  0.00    +0.000 NA
ATOM      8  N   UNL     1       3.987   5.030  18.836  0.00  0.00    +0.000 N 
ENDROOT
BRANCH   6   9
ATOM      9  C   UNL     1       2.012   7.901  19.102  0.00  0.00    +0.000 A 
ATOM     10  C   UNL     1       2.018   8.786  18.041  0.00  0.00    +0.000 A 
ATOM     11  C   UNL     1       1.234   9.893  18.423  0.00  0.00    +0.000 A 
ATOM     12  C   UNL     1       0.781   9.639  19.703  0.00  0.00    +0.000 A 
ATOM     13  O   UNL     1       1.259   8.423  20.120  0.00  0.00    +0.000 OA
BRANCH  12  14
ATOM     14  C   UNL     1      -0.076  10.374  20.631  0.00  0.00    +0.000 A 
ATOM     15  C   UNL     1      -0.066  10.059  22.000  0.00  0.00    +0.000 A 
ATOM     16  C   UNL     1      -0.853  10.771  22.912  0.00  0.00    +0.000 A 
ATOM     17  C   UNL     1      -1.663  11.808  22.458  0.00  0.00    +0.000 A 
ATOM     18 CL   UNL     1      -2.617  12.697  23.583  0.00  0.00    +0.000 Cl
ATOM     19  C   UNL     1      -1.698  12.132  21.106  0.00  0.00    +0.000 A 
ATOM     20  C   UNL     1      -0.910  11.415  20.196  0.00  0.00    +0.000 A 
ENDBRANCH  12  14
ENDBRANCH   6   9
BRANCH   1  21
ATOM     21  C   UNL     1       6.087   4.547  17.558  0.00  0.00    +0.000 C 
BRANCH  21  25
ATOM     22  C   UNL     1       8.267   8.174  18.471  0.00  0.00    +0.000 A 
ATOM     23  C   UNL     1       8.444   7.030  19.253  0.00  0.00    +0.000 A 
ATOM     24  C   UNL     1       7.724   5.864  18.977  0.00  0.00    +0.000 A 
ATOM     25  C   UNL     1       6.811   5.825  17.913  0.00  0.00    +0.000 A 
ATOM     26  C   UNL     1       6.611   6.987  17.154  0.00  0.00    +0.000 A 
ATOM     27  C   UNL     1       7.334   8.151  17.431  0.00  0.00    +0.000 A 
BRANCH  22  29
ATOM     28  C   UNL     1       8.287  10.823  17.710  0.00  0.00    +0.000 C 
ATOM     29  S   UNL     1       9.169   9.676  18.804  0.00  0.00    +0.000 S 
ENDBRANCH  22  29
ENDBRANCH  21  25
ENDBRANCH   1  21
TORSDOF 5
ENDMDL
MODEL 7
REMARK VINA RESULT:      -7.7      2.629      3.602
REMARK  Name = 
REMARK  6 active torsions:
REMARK  status: ('A' for Active; 'I' for Inactive)
REMARK    1  A    between atoms: C_1  and  S_2
REMARK    2  A    between atoms: S_2  and  C_3
REMARK    3  A    between atoms: C_6  and  C_7
REMARK    4  A    between atoms: C_7  and  C_8
REMARK    5  A    between atoms: C_13  and  C_14
REMARK    6  A    between atoms: C_17  and  C_18
REMARK                            x       y       z     vdW  Elec       q    Type
REMARK                         _______ _______ _______ _____ _____    ______ ____
ROOT
ATOM      1  C   UNL     1       5.535   4.692  18.017  0.00  0.00    +0.000 A 
ATOM      2  N   UNL     1       5.560   3.550  18.697  0.00  0.00    +0.000 NA
ATOM      3  N   UNL     1       4.474   3.533  19.577  0.00  0.00    +0.000 NA
ATOM      4  C   UNL     1       3.845   4.655  19.379  0.00  0.00    +0.000 A 
ATOM      5  S   UNL     1       2.512   5.500  20.038  0.00  0.00    +0.000 S 
ATOM      6  C   UNL     1       2.913   6.786  18.882  0.00  0.00    +0.000 A 
ATOM      7  N   UNL     1       3.943   6.615  18.094  0.00  0.00    +0.000 NA
ATOM      8  N   UNL     1       4.435   5.397  18.416  0.00  0.00    +0.000 N 
ENDROOT
BRANCH   6   9
ATOM      9  C   UNL     1       2.110   7.973  18.828  0.00  0.00    +0.000 A 
ATOM     10  C   UNL     1       1.844   8.798  17.753  0.00  0.00    +0.000 A 
ATOM     11  C   UNL     1       1.000   9.826  18.220  0.00  0.00    +0.000 A 
ATOM     12  C   UNL     1       0.785   9.586  19.563  0.00  0.00    +0.000 A 
ATOM     13  O   UNL     1       1.466   8.456  19.937  0.00  0.00    +0.000 OA
BRANCH  12  14
ATOM     14  C   UNL     1      -0.001  10.264  20.592  0.00  0.00    +0.000 A 
ATOM     15  C   UNL     1      -0.732  11.421  20.273  0.00  0.00    +0.000 A 
ATOM     16  C   UNL     1      -1.518  12.068  21.233  0.00  0.00    +0.000 A 
ATOM     17  C   UNL     1      -1.576  11.562  22.528  0.00  0.00    +0.000 A 
ATOM     18 CL   UNL     1      -2.558  12.348  23.704  0.00  0.00    +0.000 Cl
ATOM     19  C   UNL     1      -0.852  10.425  22.872  0.00  0.00    +0.000 A 
ATOM     20  C   UNL     1      -0.066   9.781  21.908  0.00  0.00    +0.000 A 
ENDBRANCH  12  14
ENDBRANCH   6   9
BRANCH   1  21
ATOM     21  C   UNL     1       6.563   5.248  17.103  0.00  0.00    +0.000 C 
BRANCH  21  25
ATOM     22  C   UNL     1       8.532   8.761  18.691  0.00  0.00    +0.000 A 
ATOM     23  C   UNL     1       7.846   8.826  17.475  0.00  0.00    +0.000 A 
ATOM     24  C   UNL     1       7.230   7.688  16.946  0.00  0.00    +0.000 A 
ATOM     25  C   UNL     1       7.292   6.463  17.627  0.00  0.00    +0.000 A 
ATOM     26  C   UNL     1       8.011   6.396  18.828  0.00  0.00    +0.000 A 
ATOM     27  C   UNL     1       8.625   7.536  19.356  0.00  0.00    +0.000 A 
BRANCH  22  29
ATOM     28  C   UNL     1       9.683  11.125  17.867  0.00  0.00    +0.000 C 
ATOM     29  S   UNL     1       9.331  10.197  19.385  0.00  0.00    +0.000 S 
ENDBRANCH  22  29
ENDBRANCH  21  25
ENDBRANCH   1  21
TORSDOF 5
ENDMDL
MODEL 8
REMARK VINA RESULT:      -7.6      5.081     11.440
REMARK  Name = 
REMARK  6 active torsions:
REMARK  status: ('A' for Active; 'I' for Inactive)
REMARK    1  A    between atoms: C_1  and  S_2
REMARK    2  A    between atoms: S_2  and  C_3
REMARK    3  A    between atoms: C_6  and  C_7
REMARK    4  A    between atoms: C_7  and  C_8
REMARK    5  A    between atoms: C_13  and  C_14
REMARK    6  A    between atoms: C_17  and  C_18
REMARK                            x       y       z     vdW  Elec       q    Type
REMARK                         _______ _______ _______ _____ _____    ______ ____
ROOT
ATOM      1  C   UNL     1      -0.836  11.489  21.080  0.00  0.00    +0.000 A 
ATOM      2  N   UNL     1      -1.158  12.489  20.265  0.00  0.00    +0.000 NA
ATOM      3  N   UNL     1      -0.605  12.234  19.008  0.00  0.00    +0.000 NA
ATOM      4  C   UNL     1       0.012  11.093  19.122  0.00  0.00    +0.000 A 
ATOM      5  S   UNL     1       1.003  10.082  18.162  0.00  0.00    +0.000 S 
ATOM      6  C   UNL     1       1.113   9.039  19.595  0.00  0.00    +0.000 A 
ATOM      7  N   UNL     1       0.490   9.410  20.683  0.00  0.00    +0.000 NA
ATOM      8  N   UNL     1      -0.115  10.577  20.364  0.00  0.00    +0.000 N 
ENDROOT
BRANCH   6   9
ATOM      9  C   UNL     1       1.870   7.822  19.535  0.00  0.00    +0.000 A 
ATOM     10  C   UNL     1       2.014   6.837  20.493  0.00  0.00    +0.000 A 
ATOM     11  C   UNL     1       2.856   5.849  19.944  0.00  0.00    +0.000 A 
ATOM     12  C   UNL     1       3.192   6.271  18.673  0.00  0.00    +0.000 A 
ATOM     13  O   UNL     1       2.593   7.479  18.423  0.00  0.00    +0.000 OA
BRANCH  12  14
ATOM     14  C   UNL     1       4.005   5.694  17.604  0.00  0.00    +0.000 A 
ATOM     15  C   UNL     1       4.090   4.299  17.457  0.00  0.00    +0.000 A 
ATOM     16  C   UNL     1       4.835   3.724  16.422  0.00  0.00    +0.000 A 
ATOM     17  C   UNL     1       5.507   4.546  15.521  0.00  0.00    +0.000 A 
ATOM     18 CL   UNL     1       6.408   3.839  14.236  0.00  0.00    +0.000 Cl
ATOM     19  C   UNL     1       5.447   5.929  15.652  0.00  0.00    +0.000 A 
ATOM     20  C   UNL     1       4.701   6.501  16.691  0.00  0.00    +0.000 A 
ENDBRANCH  12  14
ENDBRANCH   6   9
BRANCH   1  21
ATOM     21  C   UNL     1      -1.036  11.388  22.547  0.00  0.00    +0.000 C 
BRANCH  21  25
ATOM     22  C   UNL     1      -3.137  14.789  24.209  0.00  0.00    +0.000 A 
ATOM     23  C   UNL     1      -1.782  14.888  23.885  0.00  0.00    +0.000 A 
ATOM     24  C   UNL     1      -1.093  13.784  23.371  0.00  0.00    +0.000 A 
ATOM     25  C   UNL     1      -1.751  12.561  23.175  0.00  0.00    +0.000 A 
ATOM     26  C   UNL     1      -3.103  12.459  23.534  0.00  0.00    +0.000 A 
ATOM     27  C   UNL     1      -3.789  13.564  24.046  0.00  0.00    +0.000 A 
BRANCH  22  29
ATOM     28  C   UNL     1      -2.657  17.276  25.294  0.00  0.00    +0.000 C 
ATOM     29  S   UNL     1      -4.038  16.179  24.870  0.00  0.00    +0.000 S 
ENDBRANCH  22  29
ENDBRANCH  21  25
ENDBRANCH   1  21
TORSDOF 5
ENDMDL
MODEL 9
REMARK VINA RESULT:      -7.5      5.214     11.519
REMARK  Name = 
REMARK  6 active torsions:
REMARK  status: ('A' for Active; 'I' for Inactive)
REMARK    1  A    between atoms: C_1  and  S_2
REMARK    2  A    between atoms: S_2  and  C_3
REMARK    3  A    between atoms: C_6  and  C_7
REMARK    4  A    between atoms: C_7  and  C_8
REMARK    5  A    between atoms: C_13  and  C_14
REMARK    6  A    between atoms: C_17  and  C_18
REMARK                            x       y       z     vdW  Elec       q    Type
REMARK                         _______ _______ _______ _____ _____    ______ ____
ROOT
ATOM      1  C   UNL     1      -0.869  12.236  21.152  0.00  0.00    +0.000 A 
ATOM      2  N   UNL     1      -0.938  13.301  20.360  0.00  0.00    +0.000 NA
ATOM      3  N   UNL     1      -0.238  13.026  19.182  0.00  0.00    +0.000 NA
ATOM      4  C   UNL     1       0.207  11.809  19.317  0.00  0.00    +0.000 A 
ATOM      5  S   UNL     1       1.196  10.714  18.452  0.00  0.00    +0.000 S 
ATOM      6  C   UNL     1       0.958   9.610  19.822  0.00  0.00    +0.000 A 
ATOM      7  N   UNL     1       0.230  10.017  20.829  0.00  0.00    +0.000 NA
ATOM      8  N   UNL     1      -0.169  11.265  20.495  0.00  0.00    +0.000 N 
ENDROOT
BRANCH   6   9
ATOM      9  C   UNL     1       1.556   8.307  19.799  0.00  0.00    +0.000 A 
ATOM     10  C   UNL     1       1.519   7.314  20.759  0.00  0.00    +0.000 A 
ATOM     11  C   UNL     1       2.259   6.225  20.255  0.00  0.00    +0.000 A 
ATOM     12  C   UNL     1       2.718   6.598  19.008  0.00  0.00    +0.000 A 
ATOM     13  O   UNL     1       2.292   7.871  18.729  0.00  0.00    +0.000 OA
BRANCH  12  14
ATOM     14  C   UNL     1       3.511   5.920  17.984  0.00  0.00    +0.000 A 
ATOM     15  C   UNL     1       4.448   6.641  17.225  0.00  0.00    +0.000 A 
ATOM     16  C   UNL     1       5.242   6.007  16.263  0.00  0.00    +0.000 A 
ATOM     17  C   UNL     1       5.102   4.639  16.049  0.00  0.00    +0.000 A 
ATOM     18 CL   UNL     1       6.092   3.856  14.879  0.00  0.00    +0.000 Cl
ATOM     19  C   UNL     1       4.173   3.905  16.780  0.00  0.00    +0.000 A 
ATOM     20  C   UNL     1       3.379   4.544  17.742  0.00  0.00    +0.000 A 
ENDBRANCH  12  14
ENDBRANCH   6   9
BRANCH   1  21
ATOM     21  C   UNL     1      -1.299  12.105  22.567  0.00  0.00    +0.000 C 
BRANCH  21  25
ATOM     22  C   UNL     1      -4.890  14.349  23.467  0.00  0.00    +0.000 A 
ATOM     23  C   UNL     1      -3.688  14.653  24.112  0.00  0.00    +0.000 A 
ATOM     24  C   UNL     1      -2.532  13.915  23.842  0.00  0.00    +0.000 A 
ATOM     25  C   UNL     1      -2.560  12.856  22.923  0.00  0.00    +0.000 A 
ATOM     26  C   UNL     1      -3.776  12.533  22.306  0.00  0.00    +0.000 A 
ATOM     27  C   UNL     1      -4.931  13.273  22.575  0.00  0.00    +0.000 A 
BRANCH  22  29
ATOM     28  C   UNL     1      -7.570  13.908  23.930  0.00  0.00    +0.000 C 
ATOM     29  S   UNL     1      -6.381  15.271  23.796  0.00  0.00    +0.000 S 
ENDBRANCH  22  29
ENDBRANCH  21  25
ENDBRANCH   1  21
TORSDOF 5
ENDMDL
