MODEL 1
REMARK VINA RESULT:      -5.6      0.000      0.000
REMARK  Name = 
REMARK  7 active torsions:
REMARK  status: ('A' for Active; 'I' for Inactive)
REMARK    1  A    between atoms: C_1  and  O_2
REMARK    2  A    between atoms: O_2  and  C_3
REMARK    3  A    between atoms: C_4  and  C_5
REMARK    4  A    between atoms: C_5  and  O_7
REMARK    5  A    between atoms: C_9  and  O_10
REMARK    6  A    between atoms: C_11  and  O_12
REMARK    7  A    between atoms: C_13  and  O_14
REMARK                            x       y       z     vdW  Elec       q    Type
REMARK                         _______ _______ _______ _____ _____    ______ ____
ROOT
ATOM      1  C   UNL     1       3.592   4.724  18.300  0.00  0.00    +0.000 C 
ATOM      2  C   UNL     1       4.931   4.018  18.544  0.00  0.00    +0.000 C 
ATOM      3  O   UNL     1       4.764   3.193  19.704  0.00  0.00    +0.000 OA
ATOM      4  C   UNL     1       3.831   2.130  19.505  0.00  0.00    +0.000 C 
ATOM      5  C   UNL     1       2.456   2.583  18.945  0.00  0.00    +0.000 C 
ATOM      6  C   UNL     1       2.613   3.631  17.822  0.00  0.00    +0.000 C 
ENDROOT
BRANCH   1   8
ATOM      7  C   UNL     1       3.111   7.089  18.087  0.00  0.00    +0.000 C 
ATOM      8  O   UNL     1       3.617   5.901  17.506  0.00  0.00    +0.000 OA
ENDBRANCH   1   8
BRANCH   2   9
ATOM      9  C   UNL     1       6.099   4.991  18.695  0.00  0.00    +0.000 C 
ATOM     10  O   UNL     1       6.702   5.158  19.746  0.00  0.00    +0.000 OA
BRANCH   9  11
ATOM     11  O   UNL     1       6.417   5.668  17.567  0.00  0.00    +0.000 OA
ATOM     12  H   UNL     1       7.087   5.207  17.033  0.00  0.00    +0.000 HD
ENDBRANCH   9  11
ENDBRANCH   2   9
BRANCH   4  13
ATOM     13  O   UNL     1       4.403   1.096  18.715  0.00  0.00    +0.000 OA
ATOM     14  H   UNL     1       3.974   0.251  18.930  0.00  0.00    +0.000 HD
ENDBRANCH   4  13
BRANCH   5  15
ATOM     15  O   UNL     1       1.693   1.468  18.466  0.00  0.00    +0.000 OA
ATOM     16  H   UNL     1       1.054   1.786  17.801  0.00  0.00    +0.000 HD
ENDBRANCH   5  15
BRANCH   6  17
ATOM     17  O   UNL     1       1.351   4.183  17.439  0.00  0.00    +0.000 OA
ATOM     18  H   UNL     1       1.500   4.976  16.898  0.00  0.00    +0.000 HD
ENDBRANCH   6  17
TORSDOF 6
ENDMDL
MODEL 2
REMARK VINA RESULT:      -5.5      1.645      4.436
REMARK  Name = 
REMARK  7 active torsions:
REMARK  status: ('A' for Active; 'I' for Inactive)
REMARK    1  A    between atoms: C_1  and  O_2
REMARK    2  A    between atoms: O_2  and  C_3
REMARK    3  A    between atoms: C_4  and  C_5
REMARK    4  A    between atoms: C_5  and  O_7
REMARK    5  A    between atoms: C_9  and  O_10
REMARK    6  A    between atoms: C_11  and  O_12
REMARK    7  A    between atoms: C_13  and  O_14
REMARK                            x       y       z     vdW  Elec       q    Type
REMARK                         _______ _______ _______ _____ _____    ______ ____
ROOT
ATOM      1  C   UNL     1       4.298   4.313  18.636  0.00  0.00    +0.000 C 
ATOM      2  C   UNL     1       3.881   3.390  17.485  0.00  0.00    +0.000 C 
ATOM      3  O   UNL     1       4.169   4.087  16.265  0.00  0.00    +0.000 OA
ATOM      4  C   UNL     1       5.566   4.304  16.062  0.00  0.00    +0.000 C 
ATOM      5  C   UNL     1       6.292   4.967  17.262  0.00  0.00    +0.000 C 
ATOM      6  C   UNL     1       5.840   4.362  18.609  0.00  0.00    +0.000 C 
ENDROOT
BRANCH   1   8
ATOM      7  C   UNL     1       2.754   4.971  20.383  0.00  0.00    +0.000 C 
ATOM      8  O   UNL     1       3.725   4.056  19.910  0.00  0.00    +0.000 OA
ENDBRANCH   1   8
BRANCH   2   9
ATOM      9  C   UNL     1       2.419   2.957  17.567  0.00  0.00    +0.000 C 
ATOM     10  O   UNL     1       1.490   3.653  17.182  0.00  0.00    +0.000 OA
BRANCH   9  11
ATOM     11  O   UNL     1       2.224   1.733  18.113  0.00  0.00    +0.000 OA
ATOM     12  H   UNL     1       2.791   1.053  17.710  0.00  0.00    +0.000 HD
ENDBRANCH   9  11
ENDBRANCH   2   9
BRANCH   4  13
ATOM     13  O   UNL     1       6.211   3.103  15.658  0.00  0.00    +0.000 OA
ATOM     14  H   UNL     1       6.586   2.661  16.437  0.00  0.00    +0.000 HD
ENDBRANCH   4  13
BRANCH   5  15
ATOM     15  O   UNL     1       7.715   4.863  17.135  0.00  0.00    +0.000 OA
ATOM     16  H   UNL     1       8.109   4.819  18.027  0.00  0.00    +0.000 HD
ENDBRANCH   5  15
BRANCH   6  17
ATOM     17  O   UNL     1       6.366   5.095  19.717  0.00  0.00    +0.000 OA
ATOM     18  H   UNL     1       7.251   5.426  19.491  0.00  0.00    +0.000 HD
ENDBRANCH   6  17
TORSDOF 6
ENDMDL
MODEL 3
REMARK VINA RESULT:      -5.4      2.109      3.702
REMARK  Name = 
REMARK  7 active torsions:
REMARK  status: ('A' for Active; 'I' for Inactive)
REMARK    1  A    between atoms: C_1  and  O_2
REMARK    2  A    between atoms: O_2  and  C_3
REMARK    3  A    between atoms: C_4  and  C_5
REMARK    4  A    between atoms: C_5  and  O_7
REMARK    5  A    between atoms: C_9  and  O_10
REMARK    6  A    between atoms: C_11  and  O_12
REMARK    7  A    between atoms: C_13  and  O_14
REMARK                            x       y       z     vdW  Elec       q    Type
REMARK                         _______ _______ _______ _____ _____    ______ ____
ROOT
ATOM      1  C   UNL     1       2.992   4.415  19.349  0.00  0.00    +0.000 C 
ATOM      2  C   UNL     1       2.667   3.010  19.867  0.00  0.00    +0.000 C 
ATOM      3  O   UNL     1       2.291   2.221  18.731  0.00  0.00    +0.000 OA
ATOM      4  C   UNL     1       3.362   2.023  17.808  0.00  0.00    +0.000 C 
ATOM      5  C   UNL     1       4.074   3.329  17.365  0.00  0.00    +0.000 C 
ATOM      6  C   UNL     1       4.308   4.285  18.554  0.00  0.00    +0.000 C 
ENDROOT
BRANCH   1   8
ATOM      7  C   UNL     1       2.166   6.604  19.979  0.00  0.00    +0.000 C 
ATOM      8  O   UNL     1       2.960   5.475  20.294  0.00  0.00    +0.000 OA
ENDBRANCH   1   8
BRANCH   2   9
ATOM      9  C   UNL     1       1.590   3.006  20.950  0.00  0.00    +0.000 C 
ATOM     10  O   UNL     1       1.761   2.540  22.067  0.00  0.00    +0.000 OA
BRANCH   9  11
ATOM     11  O   UNL     1       0.412   3.558  20.572  0.00  0.00    +0.000 OA
ATOM     12  H   UNL     1       0.533   4.322  19.981  0.00  0.00    +0.000 HD
ENDBRANCH   9  11
ENDBRANCH   2   9
BRANCH   4  13
ATOM     13  O   UNL     1       4.288   1.065  18.304  0.00  0.00    +0.000 OA
ATOM     14  H   UNL     1       5.183   1.296  18.006  0.00  0.00    +0.000 HD
ENDBRANCH   4  13
BRANCH   5  15
ATOM     15  O   UNL     1       5.319   3.051  16.712  0.00  0.00    +0.000 OA
ATOM     16  H   UNL     1       5.378   2.091  16.542  0.00  0.00    +0.000 HD
ENDBRANCH   5  15
BRANCH   6  17
ATOM     17  O   UNL     1       4.791   5.558  18.118  0.00  0.00    +0.000 OA
ATOM     18  H   UNL     1       4.488   5.721  17.209  0.00  0.00    +0.000 HD
ENDBRANCH   6  17
TORSDOF 6
ENDMDL
MODEL 4
REMARK VINA RESULT:      -5.3      1.937      2.922
REMARK  Name = 
REMARK  7 active torsions:
REMARK  status: ('A' for Active; 'I' for Inactive)
REMARK    1  A    between atoms: C_1  and  O_2
REMARK    2  A    between atoms: O_2  and  C_3
REMARK    3  A    between atoms: C_4  and  C_5
REMARK    4  A    between atoms: C_5  and  O_7
REMARK    5  A    between atoms: C_9  and  O_10
REMARK    6  A    between atoms: C_11  and  O_12
REMARK    7  A    between atoms: C_13  and  O_14
REMARK                            x       y       z     vdW  Elec       q    Type
REMARK                         _______ _______ _______ _____ _____    ______ ____
ROOT
ATOM      1  C   UNL     1       5.732   6.160  17.697  0.00  0.00    +0.000 C 
ATOM      2  C   UNL     1       6.086   4.679  17.524  0.00  0.00    +0.000 C 
ATOM      3  O   UNL     1       5.766   4.025  18.760  0.00  0.00    +0.000 OA
ATOM      4  C   UNL     1       4.367   4.027  19.046  0.00  0.00    +0.000 C 
ATOM      5  C   UNL     1       3.701   5.427  18.971  0.00  0.00    +0.000 C 
ATOM      6  C   UNL     1       4.192   6.230  17.748  0.00  0.00    +0.000 C 
ENDROOT
BRANCH   1   8
ATOM      7  C   UNL     1       7.344   7.934  17.342  0.00  0.00    +0.000 C 
ATOM      8  O   UNL     1       6.349   7.080  16.808  0.00  0.00    +0.000 OA
ENDBRANCH   1   8
BRANCH   2   9
ATOM      9  C   UNL     1       7.542   4.457  17.119  0.00  0.00    +0.000 C 
ATOM     10  O   UNL     1       8.414   4.119  17.907  0.00  0.00    +0.000 OA
BRANCH   9  11
ATOM     11  O   UNL     1       7.800   4.673  15.807  0.00  0.00    +0.000 OA
ATOM     12  H   UNL     1       8.605   4.216  15.508  0.00  0.00    +0.000 HD
ENDBRANCH   9  11
ENDBRANCH   2   9
BRANCH   4  13
ATOM     13  O   UNL     1       3.683   3.078  18.239  0.00  0.00    +0.000 OA
ATOM     14  H   UNL     1       2.999   3.531  17.719  0.00  0.00    +0.000 HD
ENDBRANCH   4  13
BRANCH   5  15
ATOM     15  O   UNL     1       2.271   5.325  18.946  0.00  0.00    +0.000 OA
ATOM     16  H   UNL     1       1.906   6.133  18.536  0.00  0.00    +0.000 HD
ENDBRANCH   5  15
BRANCH   6  17
ATOM     17  O   UNL     1       3.723   7.580  17.782  0.00  0.00    +0.000 OA
ATOM     18  H   UNL     1       2.825   7.616  17.413  0.00  0.00    +0.000 HD
ENDBRANCH   6  17
TORSDOF 6
ENDMDL
MODEL 5
REMARK VINA RESULT:      -5.3      1.543      4.974
REMARK  Name = 
REMARK  7 active torsions:
REMARK  status: ('A' for Active; 'I' for Inactive)
REMARK    1  A    between atoms: C_1  and  O_2
REMARK    2  A    between atoms: O_2  and  C_3
REMARK    3  A    between atoms: C_4  and  C_5
REMARK    4  A    between atoms: C_5  and  O_7
REMARK    5  A    between atoms: C_9  and  O_10
REMARK    6  A    between atoms: C_11  and  O_12
REMARK    7  A    between atoms: C_13  and  O_14
REMARK                            x       y       z     vdW  Elec       q    Type
REMARK                         _______ _______ _______ _____ _____    ______ ____
ROOT
ATOM      1  C   UNL     1       4.937   4.331  18.175  0.00  0.00    +0.000 C 
ATOM      2  C   UNL     1       3.857   4.849  17.218  0.00  0.00    +0.000 C 
ATOM      3  O   UNL     1       3.898   6.281  17.276  0.00  0.00    +0.000 OA
ATOM      4  C   UNL     1       5.118   6.826  16.769  0.00  0.00    +0.000 C 
ATOM      5  C   UNL     1       6.400   6.209  17.388  0.00  0.00    +0.000 C 
ATOM      6  C   UNL     1       6.291   4.675  17.520  0.00  0.00    +0.000 C 
ENDROOT
BRANCH   1   8
ATOM      7  C   UNL     1       4.416   2.794  19.975  0.00  0.00    +0.000 C 
ATOM      8  O   UNL     1       4.809   2.991  18.629  0.00  0.00    +0.000 OA
ENDBRANCH   1   8
BRANCH   2   9
ATOM      9  C   UNL     1       2.467   4.303  17.535  0.00  0.00    +0.000 C 
ATOM     10  O   UNL     1       1.633   4.921  18.182  0.00  0.00    +0.000 OA
BRANCH   9  11
ATOM     11  O   UNL     1       2.225   3.063  17.047  0.00  0.00    +0.000 OA
ATOM     12  H   UNL     1       2.312   2.373  17.727  0.00  0.00    +0.000 HD
ENDBRANCH   9  11
ENDBRANCH   2   9
BRANCH   4  13
ATOM     13  O   UNL     1       5.143   6.773  15.349  0.00  0.00    +0.000 OA
ATOM     14  H   UNL     1       5.171   5.845  15.062  0.00  0.00    +0.000 HD
ENDBRANCH   4  13
BRANCH   5  15
ATOM     15  O   UNL     1       7.565   6.550  16.626  0.00  0.00    +0.000 OA
ATOM     16  H   UNL     1       8.348   6.495  17.206  0.00  0.00    +0.000 HD
ENDBRANCH   5  15
BRANCH   6  17
ATOM     17  O   UNL     1       7.389   4.132  18.257  0.00  0.00    +0.000 OA
ATOM     18  H   UNL     1       7.496   3.194  18.025  0.00  0.00    +0.000 HD
ENDBRANCH   6  17
TORSDOF 6
ENDMDL
MODEL 6
REMARK VINA RESULT:      -5.3      1.565      1.909
REMARK  Name = 
REMARK  7 active torsions:
REMARK  status: ('A' for Active; 'I' for Inactive)
REMARK    1  A    between atoms: C_1  and  O_2
REMARK    2  A    between atoms: O_2  and  C_3
REMARK    3  A    between atoms: C_4  and  C_5
REMARK    4  A    between atoms: C_5  and  O_7
REMARK    5  A    between atoms: C_9  and  O_10
REMARK    6  A    between atoms: C_11  and  O_12
REMARK    7  A    between atoms: C_13  and  O_14
REMARK                            x       y       z     vdW  Elec       q    Type
REMARK                         _______ _______ _______ _____ _____    ______ ____
ROOT
ATOM      1  C   UNL     1       4.912   5.706  18.220  0.00  0.00    +0.000 C 
ATOM      2  C   UNL     1       5.861   4.504  18.155  0.00  0.00    +0.000 C 
ATOM      3  O   UNL     1       5.695   3.773  19.378  0.00  0.00    +0.000 OA
ATOM      4  C   UNL     1       4.395   3.196  19.512  0.00  0.00    +0.000 C 
ATOM      5  C   UNL     1       3.227   4.195  19.300  0.00  0.00    +0.000 C 
ATOM      6  C   UNL     1       3.484   5.132  18.100  0.00  0.00    +0.000 C 
ENDROOT
BRANCH   1   8
ATOM      7  C   UNL     1       5.092   6.577  15.966  0.00  0.00    +0.000 C 
ATOM      8  O   UNL     1       5.196   6.800  17.360  0.00  0.00    +0.000 OA
ENDBRANCH   1   8
BRANCH   2   9
ATOM      9  C   UNL     1       7.316   4.905  17.920  0.00  0.00    +0.000 C 
ATOM     10  O   UNL     1       8.041   4.353  17.105  0.00  0.00    +0.000 OA
BRANCH   9  11
ATOM     11  O   UNL     1       7.751   5.924  18.698  0.00  0.00    +0.000 OA
ATOM     12  H   UNL     1       8.116   5.614  19.546  0.00  0.00    +0.000 HD
ENDBRANCH   9  11
ENDBRANCH   2   9
BRANCH   4  13
ATOM     13  O   UNL     1       4.262   2.051  18.680  0.00  0.00    +0.000 OA
ATOM     14  H   UNL     1       4.505   2.284  17.769  0.00  0.00    +0.000 HD
ENDBRANCH   4  13
BRANCH   5  15
ATOM     15  O   UNL     1       1.979   3.512  19.125  0.00  0.00    +0.000 OA
ATOM     16  H   UNL     1       1.794   3.434  18.169  0.00  0.00    +0.000 HD
ENDBRANCH   5  15
BRANCH   6  17
ATOM     17  O   UNL     1       2.502   6.167  18.021  0.00  0.00    +0.000 OA
ATOM     18  H   UNL     1       2.225   6.275  17.096  0.00  0.00    +0.000 HD
ENDBRANCH   6  17
TORSDOF 6
ENDMDL
MODEL 7
REMARK VINA RESULT:      -5.2      1.412      1.639
REMARK  Name = 
REMARK  7 active torsions:
REMARK  status: ('A' for Active; 'I' for Inactive)
REMARK    1  A    between atoms: C_1  and  O_2
REMARK    2  A    between atoms: O_2  and  C_3
REMARK    3  A    between atoms: C_4  and  C_5
REMARK    4  A    between atoms: C_5  and  O_7
REMARK    5  A    between atoms: C_9  and  O_10
REMARK    6  A    between atoms: C_11  and  O_12
REMARK    7  A    between atoms: C_13  and  O_14
REMARK                            x       y       z     vdW  Elec       q    Type
REMARK                         _______ _______ _______ _____ _____    ______ ____
ROOT
ATOM      1  C   UNL     1       4.399   4.383  17.560  0.00  0.00    +0.000 C 
ATOM      2  C   UNL     1       5.653   3.923  18.311  0.00  0.00    +0.000 C 
ATOM      3  O   UNL     1       5.271   3.711  19.677  0.00  0.00    +0.000 OA
ATOM      4  C   UNL     1       4.344   2.636  19.837  0.00  0.00    +0.000 C 
ATOM      5  C   UNL     1       3.096   2.725  18.919  0.00  0.00    +0.000 C 
ATOM      6  C   UNL     1       3.471   3.152  17.483  0.00  0.00    +0.000 C 
ENDROOT
BRANCH   1   8
ATOM      7  C   UNL     1       5.280   4.377  15.303  0.00  0.00    +0.000 C 
ATOM      8  O   UNL     1       4.596   5.068  16.332  0.00  0.00    +0.000 OA
ENDBRANCH   1   8
BRANCH   2   9
ATOM      9  C   UNL     1       6.816   4.906  18.188  0.00  0.00    +0.000 C 
ATOM     10  O   UNL     1       7.987   4.557  18.128  0.00  0.00    +0.000 OA
BRANCH   9  11
ATOM     11  O   UNL     1       6.450   6.209  18.157  0.00  0.00    +0.000 OA
ATOM     12  H   UNL     1       5.595   6.344  17.713  0.00  0.00    +0.000 HD
ENDBRANCH   9  11
ENDBRANCH   2   9
BRANCH   4  13
ATOM     13  O   UNL     1       4.999   1.381  19.710  0.00  0.00    +0.000 OA
ATOM     14  H   UNL     1       4.641   0.763  20.369  0.00  0.00    +0.000 HD
ENDBRANCH   4  13
BRANCH   5  15
ATOM     15  O   UNL     1       2.381   1.484  18.886  0.00  0.00    +0.000 OA
ATOM     16  H   UNL     1       2.377   1.147  17.970  0.00  0.00    +0.000 HD
ENDBRANCH   5  15
BRANCH   6  17
ATOM     17  O   UNL     1       2.309   3.414  16.693  0.00  0.00    +0.000 OA
ATOM     18  H   UNL     1       2.287   4.357  16.460  0.00  0.00    +0.000 HD
ENDBRANCH   6  17
TORSDOF 6
ENDMDL
MODEL 8
REMARK VINA RESULT:      -5.2      1.107      1.107
REMARK  Name = 
REMARK  7 active torsions:
REMARK  status: ('A' for Active; 'I' for Inactive)
REMARK    1  A    between atoms: C_1  and  O_2
REMARK    2  A    between atoms: O_2  and  C_3
REMARK    3  A    between atoms: C_4  and  C_5
REMARK    4  A    between atoms: C_5  and  O_7
REMARK    5  A    between atoms: C_9  and  O_10
REMARK    6  A    between atoms: C_11  and  O_12
REMARK    7  A    between atoms: C_13  and  O_14
REMARK                            x       y       z     vdW  Elec       q    Type
REMARK                         _______ _______ _______ _____ _____    ______ ____
ROOT
ATOM      1  C   UNL     1       3.498   4.827  19.659  0.00  0.00    +0.000 C 
ATOM      2  C   UNL     1       4.755   4.291  18.966  0.00  0.00    +0.000 C 
ATOM      3  O   UNL     1       5.067   3.032  19.579  0.00  0.00    +0.000 OA
ATOM      4  C   UNL     1       4.075   2.034  19.340  0.00  0.00    +0.000 C 
ATOM      5  C   UNL     1       2.628   2.475  19.686  0.00  0.00    +0.000 C 
ATOM      6  C   UNL     1       2.338   3.914  19.208  0.00  0.00    +0.000 C 
ENDROOT
BRANCH   1   8
ATOM      7  C   UNL     1       2.682   6.689  18.341  0.00  0.00    +0.000 C 
ATOM      8  O   UNL     1       3.245   6.221  19.552  0.00  0.00    +0.000 OA
ENDBRANCH   1   8
BRANCH   2   9
ATOM      9  C   UNL     1       5.931   5.265  19.026  0.00  0.00    +0.000 C 
ATOM     10  O   UNL     1       6.765   5.256  19.920  0.00  0.00    +0.000 OA
BRANCH   9  11
ATOM     11  O   UNL     1       5.976   6.155  18.007  0.00  0.00    +0.000 OA
ATOM     12  H   UNL     1       6.817   6.643  17.978  0.00  0.00    +0.000 HD
ENDBRANCH   9  11
ENDBRANCH   2   9
BRANCH   4  13
ATOM     13  O   UNL     1       4.167   1.535  18.012  0.00  0.00    +0.000 OA
ATOM     14  H   UNL     1       4.360   2.269  17.406  0.00  0.00    +0.000 HD
ENDBRANCH   4  13
BRANCH   5  15
ATOM     15  O   UNL     1       1.660   1.574  19.133  0.00  0.00    +0.000 OA
ATOM     16  H   UNL     1       1.362   1.923  18.271  0.00  0.00    +0.000 HD
ENDBRANCH   5  15
BRANCH   6  17
ATOM     17  O   UNL     1       1.077   4.384  19.689  0.00  0.00    +0.000 OA
ATOM     18  H   UNL     1       0.742   5.071  19.090  0.00  0.00    +0.000 HD
ENDBRANCH   6  17
TORSDOF 6
ENDMDL
MODEL 9
REMARK VINA RESULT:      -5.2      1.315      3.204
REMARK  Name = 
REMARK  7 active torsions:
REMARK  status: ('A' for Active; 'I' for Inactive)
REMARK    1  A    between atoms: C_1  and  O_2
REMARK    2  A    between atoms: O_2  and  C_3
REMARK    3  A    between atoms: C_4  and  C_5
REMARK    4  A    between atoms: C_5  and  O_7
REMARK    5  A    between atoms: C_9  and  O_10
REMARK    6  A    between atoms: C_11  and  O_12
REMARK    7  A    between atoms: C_13  and  O_14
REMARK                            x       y       z     vdW  Elec       q    Type
REMARK                         _______ _______ _______ _____ _____    ______ ____
ROOT
ATOM      1  C   UNL     1       4.310   4.612  18.896  0.00  0.00    +0.000 C 
ATOM      2  C   UNL     1       2.919   5.239  18.752  0.00  0.00    +0.000 C 
ATOM      3  O   UNL     1       2.321   4.668  17.580  0.00  0.00    +0.000 OA
ATOM      4  C   UNL     1       2.070   3.267  17.708  0.00  0.00    +0.000 C 
ATOM      5  C   UNL     1       3.299   2.436  18.164  0.00  0.00    +0.000 C 
ATOM      6  C   UNL     1       4.077   3.140  19.297  0.00  0.00    +0.000 C 
ENDROOT
BRANCH   1   8
ATOM      7  C   UNL     1       6.538   5.533  19.135  0.00  0.00    +0.000 C 
ATOM      8  O   UNL     1       5.255   5.312  19.692  0.00  0.00    +0.000 OA
ENDBRANCH   1   8
BRANCH   2   9
ATOM      9  C   UNL     1       2.956   6.765  18.690  0.00  0.00    +0.000 C 
ATOM     10  O   UNL     1       2.315   7.484  19.443  0.00  0.00    +0.000 OA
BRANCH   9  11
ATOM     11  O   UNL     1       3.757   7.269  17.721  0.00  0.00    +0.000 OA
ATOM     12  H   UNL     1       4.680   7.363  18.014  0.00  0.00    +0.000 HD
ENDBRANCH   9  11
ENDBRANCH   2   9
BRANCH   4  13
ATOM     13  O   UNL     1       0.940   3.029  18.536  0.00  0.00    +0.000 OA
ATOM     14  H   UNL     1       0.201   3.587  18.240  0.00  0.00    +0.000 HD
ENDBRANCH   4  13
BRANCH   5  15
ATOM     15  O   UNL     1       2.914   1.121  18.582  0.00  0.00    +0.000 OA
ATOM     16  H   UNL     1       1.941   1.050  18.544  0.00  0.00    +0.000 HD
ENDBRANCH   5  15
BRANCH   6  17
ATOM     17  O   UNL     1       5.305   2.469  19.587  0.00  0.00    +0.000 OA
ATOM     18  H   UNL     1       6.006   2.826  19.018  0.00  0.00    +0.000 HD
ENDBRANCH   6  17
TORSDOF 6
ENDMDL
