MODEL 1
REMARK VINA RESULT:      -8.6      0.000      0.000
REMARK  Name = 
REMARK  8 active torsions:
REMARK  status: ('A' for Active; 'I' for Inactive)
REMARK    1  A    between atoms: C_1  and  O_2
REMARK    2  A    between atoms: O_2  and  C_3
REMARK    3  A    between atoms: C_6  and  N_7
REMARK    4  A    between atoms: N_7  and  C_8
REMARK    5  A    between atoms: C_8  and  C_9
REMARK    6  A    between atoms: N_11  and  C_12
REMARK    7  A    between atoms: C_12  and  C_13
REMARK    8  A    between atoms: C_13  and  C_15
REMARK                            x       y       z     vdW  Elec       q    Type
REMARK                         _______ _______ _______ _____ _____    ______ ____
ROOT
ATOM      1  C   UNL     1       3.701   4.720  17.545  0.00  0.00    +0.000 A 
ATOM      2  N   UNL     1       3.781   6.002  17.716  0.00  0.00    +0.000 NA
ATOM      3  N   UNL     1       2.980   6.254  18.800  0.00  0.00    +0.000 N 
ATOM      4  C   UNL     1       2.428   5.126  19.288  0.00  0.00    +0.000 A 
ATOM      5  N   UNL     1       2.859   4.126  18.488  0.00  0.00    +0.000 N 
ATOM      6  C   UNL     1       2.563   2.695  18.590  0.00  0.00    +0.000 C 
ATOM      7  C   UNL     1       1.249   2.386  19.294  0.00  0.00    +0.000 C 
ATOM      8  C   UNL     1       1.329   2.485  20.819  0.00  0.00    +0.000 C 
ATOM      9  C   UNL     1       1.938   3.773  21.369  0.00  0.00    +0.000 C 
ATOM     10  C   UNL     1       1.605   4.997  20.535  0.00  0.00    +0.000 C 
ENDROOT
BRANCH   1  11
ATOM     11  C   UNL     1       4.497   4.009  16.482  0.00  0.00    +0.000 C 
BRANCH  11  12
ATOM     12  N   UNL     1       5.887   3.848  16.902  0.00  0.00    +0.000 N 
ATOM     13  H   UNL     1       6.455   3.303  16.247  0.00  0.00    +0.000 HD
BRANCH  12  17
ATOM     14  C   UNL     1       8.027   7.241  18.260  0.00  0.00    +0.000 A 
ATOM     15  C   UNL     1       7.867   6.108  19.056  0.00  0.00    +0.000 A 
ATOM     16  C   UNL     1       7.192   4.985  18.565  0.00  0.00    +0.000 A 
ATOM     17  C   UNL     1       6.602   4.991  17.296  0.00  0.00    +0.000 A 
ATOM     18  C   UNL     1       6.806   6.118  16.490  0.00  0.00    +0.000 A 
ATOM     19  C   UNL     1       7.505   7.236  16.970  0.00  0.00    +0.000 A 
BRANCH  14  21
ATOM     20  C   UNL     1       8.515   9.553  18.203  0.00  0.00    +0.000 C 
ATOM     21  O   UNL     1       8.662   8.295  18.853  0.00  0.00    +0.000 OA
ENDBRANCH  14  21
ENDBRANCH  12  17
ENDBRANCH  11  12
ENDBRANCH   1  11
BRANCH   3  22
ATOM     22  C   UNL     1       2.944   7.618  19.344  0.00  0.00    +0.000 C 
BRANCH  22  23
ATOM     23  C   UNL     1       1.753   8.425  18.845  0.00  0.00    +0.000 C 
ATOM     24  O   UNL     1       1.441   8.477  17.657  0.00  0.00    +0.000 OA
BRANCH  23  25
ATOM     25  C   UNL     1       0.953   9.174  19.862  0.00  0.00    +0.000 A 
ATOM     26  C   UNL     1       0.196  10.280  19.448  0.00  0.00    +0.000 A 
ATOM     27  C   UNL     1      -0.549  11.013  20.378  0.00  0.00    +0.000 A 
ATOM     28  C   UNL     1      -0.555  10.631  21.720  0.00  0.00    +0.000 A 
ATOM     29 BR   UNL     1      -1.560  11.619  22.979  0.00  0.00    +0.000 Br
ATOM     30  C   UNL     1       0.173   9.520  22.139  0.00  0.00    +0.000 A 
ATOM     31  C   UNL     1       0.930   8.793  21.212  0.00  0.00    +0.000 A 
ENDBRANCH  23  25
ENDBRANCH  22  23
ENDBRANCH   3  22
TORSDOF 7
ENDMDL
MODEL 2
REMARK VINA RESULT:      -8.6      0.857      1.018
REMARK  Name = 
REMARK  8 active torsions:
REMARK  status: ('A' for Active; 'I' for Inactive)
REMARK    1  A    between atoms: C_1  and  O_2
REMARK    2  A    between atoms: O_2  and  C_3
REMARK    3  A    between atoms: C_6  and  N_7
REMARK    4  A    between atoms: N_7  and  C_8
REMARK    5  A    between atoms: C_8  and  C_9
REMARK    6  A    between atoms: N_11  and  C_12
REMARK    7  A    between atoms: C_12  and  C_13
REMARK    8  A    between atoms: C_13  and  C_15
REMARK                            x       y       z     vdW  Elec       q    Type
REMARK                         _______ _______ _______ _____ _____    ______ ____
ROOT
ATOM      1  C   UNL     1       3.390   4.754  17.563  0.00  0.00    +0.000 A 
ATOM      2  N   UNL     1       3.402   6.042  17.705  0.00  0.00    +0.000 NA
ATOM      3  N   UNL     1       2.658   6.270  18.834  0.00  0.00    +0.000 N 
ATOM      4  C   UNL     1       2.209   5.122  19.377  0.00  0.00    +0.000 A 
ATOM      5  N   UNL     1       2.649   4.132  18.570  0.00  0.00    +0.000 N 
ATOM      6  C   UNL     1       2.448   2.688  18.717  0.00  0.00    +0.000 C 
ATOM      7  C   UNL     1       1.203   2.316  19.511  0.00  0.00    +0.000 C 
ATOM      8  C   UNL     1       1.374   2.454  21.025  0.00  0.00    +0.000 C 
ATOM      9  C   UNL     1       1.937   3.789  21.511  0.00  0.00    +0.000 C 
ATOM     10  C   UNL     1       1.477   4.971  20.678  0.00  0.00    +0.000 C 
ENDROOT
BRANCH   1  11
ATOM     11  C   UNL     1       4.158   4.069  16.464  0.00  0.00    +0.000 C 
BRANCH  11  12
ATOM     12  N   UNL     1       5.530   3.799  16.887  0.00  0.00    +0.000 N 
ATOM     13  H   UNL     1       6.054   3.206  16.236  0.00  0.00    +0.000 HD
BRANCH  12  17
ATOM     14  C   UNL     1       7.922   7.028  18.226  0.00  0.00    +0.000 A 
ATOM     15  C   UNL     1       7.576   5.973  19.068  0.00  0.00    +0.000 A 
ATOM     16  C   UNL     1       6.821   4.898  18.586  0.00  0.00    +0.000 A 
ATOM     17  C   UNL     1       6.335   4.883  17.274  0.00  0.00    +0.000 A 
ATOM     18  C   UNL     1       6.723   5.928  16.426  0.00  0.00    +0.000 A 
ATOM     19  C   UNL     1       7.503   6.995  16.899  0.00  0.00    +0.000 A 
BRANCH  14  21
ATOM     20  C   UNL     1       8.427   9.338  18.243  0.00  0.00    +0.000 C 
ATOM     21  O   UNL     1       8.622   8.046  18.810  0.00  0.00    +0.000 OA
ENDBRANCH  14  21
ENDBRANCH  12  17
ENDBRANCH  11  12
ENDBRANCH   1  11
BRANCH   3  22
ATOM     22  C   UNL     1       2.573   7.640  19.354  0.00  0.00    +0.000 C 
BRANCH  22  23
ATOM     23  C   UNL     1       1.966   8.618  18.357  0.00  0.00    +0.000 C 
ATOM     24  O   UNL     1       2.326   8.672  17.182  0.00  0.00    +0.000 OA
BRANCH  23  25
ATOM     25  C   UNL     1       0.895   9.535  18.854  0.00  0.00    +0.000 A 
ATOM     26  C   UNL     1      -0.120   9.933  17.971  0.00  0.00    +0.000 A 
ATOM     27  C   UNL     1      -1.127  10.805  18.401  0.00  0.00    +0.000 A 
ATOM     28  C   UNL     1      -1.132  11.266  19.717  0.00  0.00    +0.000 A 
ATOM     29 BR   UNL     1      -2.490  12.445  20.299  0.00  0.00    +0.000 Br
ATOM     30  C   UNL     1      -0.143  10.860  20.610  0.00  0.00    +0.000 A 
ATOM     31  C   UNL     1       0.873   9.997  20.179  0.00  0.00    +0.000 A 
ENDBRANCH  23  25
ENDBRANCH  22  23
ENDBRANCH   3  22
TORSDOF 7
ENDMDL
MODEL 3
REMARK VINA RESULT:      -8.5      3.465      7.816
REMARK  Name = 
REMARK  8 active torsions:
REMARK  status: ('A' for Active; 'I' for Inactive)
REMARK    1  A    between atoms: C_1  and  O_2
REMARK    2  A    between atoms: O_2  and  C_3
REMARK    3  A    between atoms: C_6  and  N_7
REMARK    4  A    between atoms: N_7  and  C_8
REMARK    5  A    between atoms: C_8  and  C_9
REMARK    6  A    between atoms: N_11  and  C_12
REMARK    7  A    between atoms: C_12  and  C_13
REMARK    8  A    between atoms: C_13  and  C_15
REMARK                            x       y       z     vdW  Elec       q    Type
REMARK                         _______ _______ _______ _____ _____    ______ ____
ROOT
ATOM      1  C   UNL     1       2.896   6.236  19.567  0.00  0.00    +0.000 A 
ATOM      2  N   UNL     1       4.165   6.423  19.385  0.00  0.00    +0.000 NA
ATOM      3  N   UNL     1       4.684   5.161  19.257  0.00  0.00    +0.000 N 
ATOM      4  C   UNL     1       3.729   4.216  19.350  0.00  0.00    +0.000 A 
ATOM      5  N   UNL     1       2.571   4.877  19.568  0.00  0.00    +0.000 N 
ATOM      6  C   UNL     1       1.227   4.318  19.729  0.00  0.00    +0.000 C 
ATOM      7  C   UNL     1       1.213   2.884  20.240  0.00  0.00    +0.000 C 
ATOM      8  C   UNL     1       1.523   1.843  19.163  0.00  0.00    +0.000 C 
ATOM      9  C   UNL     1       2.781   2.101  18.335  0.00  0.00    +0.000 C 
ATOM     10  C   UNL     1       3.902   2.742  19.132  0.00  0.00    +0.000 C 
ENDROOT
BRANCH   1  11
ATOM     11  C   UNL     1       1.931   7.386  19.688  0.00  0.00    +0.000 C 
BRANCH  11  12
ATOM     12  N   UNL     1       1.833   7.832  21.075  0.00  0.00    +0.000 N 
ATOM     13  H   UNL     1       2.740   7.969  21.530  0.00  0.00    +0.000 HD
BRANCH  12  17
ATOM     14  C   UNL     1      -0.748  11.031  22.097  0.00  0.00    +0.000 A 
ATOM     15  C   UNL     1      -0.437  10.021  23.005  0.00  0.00    +0.000 A 
ATOM     16  C   UNL     1       0.453   9.000  22.654  0.00  0.00    +0.000 A 
ATOM     17  C   UNL     1       0.999   8.924  21.368  0.00  0.00    +0.000 A 
ATOM     18  C   UNL     1       0.712   9.966  20.478  0.00  0.00    +0.000 A 
ATOM     19  C   UNL     1      -0.159  11.007  20.836  0.00  0.00    +0.000 A 
BRANCH  14  21
ATOM     20  C   UNL     1      -1.139  13.236  22.855  0.00  0.00    +0.000 C 
ATOM     21  O   UNL     1      -1.661  11.952  22.527  0.00  0.00    +0.000 OA
ENDBRANCH  14  21
ENDBRANCH  12  17
ENDBRANCH  11  12
ENDBRANCH   1  11
BRANCH   3  22
ATOM     22  C   UNL     1       6.104   5.018  18.913  0.00  0.00    +0.000 C 
BRANCH  22  23
ATOM     23  C   UNL     1       6.502   5.823  17.683  0.00  0.00    +0.000 C 
ATOM     24  O   UNL     1       6.957   6.963  17.759  0.00  0.00    +0.000 OA
BRANCH  23  25
ATOM     25  C   UNL     1       6.319   5.178  16.348  0.00  0.00    +0.000 A 
ATOM     26  C   UNL     1       7.371   5.227  15.421  0.00  0.00    +0.000 A 
ATOM     27  C   UNL     1       7.225   4.648  14.155  0.00  0.00    +0.000 A 
ATOM     28  C   UNL     1       6.035   4.003  13.819  0.00  0.00    +0.000 A 
ATOM     29 BR   UNL     1       5.834   3.222  12.110  0.00  0.00    +0.000 Br
ATOM     30  C   UNL     1       4.991   3.927  14.739  0.00  0.00    +0.000 A 
ATOM     31  C   UNL     1       5.131   4.516  16.002  0.00  0.00    +0.000 A 
ENDBRANCH  23  25
ENDBRANCH  22  23
ENDBRANCH   3  22
TORSDOF 7
ENDMDL
MODEL 4
REMARK VINA RESULT:      -8.5      3.409      7.828
REMARK  Name = 
REMARK  8 active torsions:
REMARK  status: ('A' for Active; 'I' for Inactive)
REMARK    1  A    between atoms: C_1  and  O_2
REMARK    2  A    between atoms: O_2  and  C_3
REMARK    3  A    between atoms: C_6  and  N_7
REMARK    4  A    between atoms: N_7  and  C_8
REMARK    5  A    between atoms: C_8  and  C_9
REMARK    6  A    between atoms: N_11  and  C_12
REMARK    7  A    between atoms: C_12  and  C_13
REMARK    8  A    between atoms: C_13  and  C_15
REMARK                            x       y       z     vdW  Elec       q    Type
REMARK                         _______ _______ _______ _____ _____    ______ ____
ROOT
ATOM      1  C   UNL     1       2.982   6.234  19.547  0.00  0.00    +0.000 A 
ATOM      2  N   UNL     1       4.254   6.383  19.356  0.00  0.00    +0.000 NA
ATOM      3  N   UNL     1       4.738   5.104  19.257  0.00  0.00    +0.000 N 
ATOM      4  C   UNL     1       3.759   4.188  19.376  0.00  0.00    +0.000 A 
ATOM      5  N   UNL     1       2.621   4.886  19.583  0.00  0.00    +0.000 N 
ATOM      6  C   UNL     1       1.262   4.368  19.763  0.00  0.00    +0.000 C 
ATOM      7  C   UNL     1       1.211   2.948  20.309  0.00  0.00    +0.000 C 
ATOM      8  C   UNL     1       1.488   1.872  19.257  0.00  0.00    +0.000 C 
ATOM      9  C   UNL     1       2.749   2.075  18.417  0.00  0.00    +0.000 C 
ATOM     10  C   UNL     1       3.891   2.705  19.194  0.00  0.00    +0.000 C 
ENDROOT
BRANCH   1  11
ATOM     11  C   UNL     1       2.049   7.413  19.643  0.00  0.00    +0.000 C 
BRANCH  11  12
ATOM     12  N   UNL     1       1.839   7.791  21.038  0.00  0.00    +0.000 N 
ATOM     13  H   UNL     1       2.707   7.930  21.564  0.00  0.00    +0.000 HD
BRANCH  12  17
ATOM     14  C   UNL     1      -0.795  11.037  21.719  0.00  0.00    +0.000 A 
ATOM     15  C   UNL     1      -0.408  10.664  20.434  0.00  0.00    +0.000 A 
ATOM     16  C   UNL     1       0.429   9.560  20.236  0.00  0.00    +0.000 A 
ATOM     17  C   UNL     1       0.955   8.846  21.319  0.00  0.00    +0.000 A 
ATOM     18  C   UNL     1       0.527   9.204  22.603  0.00  0.00    +0.000 A 
ATOM     19  C   UNL     1      -0.334  10.294  22.803  0.00  0.00    +0.000 A 
BRANCH  14  21
ATOM     20  C   UNL     1      -1.370  13.132  20.786  0.00  0.00    +0.000 C 
ATOM     21  O   UNL     1      -1.577  12.155  21.801  0.00  0.00    +0.000 OA
ENDBRANCH  14  21
ENDBRANCH  12  17
ENDBRANCH  11  12
ENDBRANCH   1  11
BRANCH   3  22
ATOM     22  C   UNL     1       6.153   4.914  18.911  0.00  0.00    +0.000 C 
BRANCH  22  23
ATOM     23  C   UNL     1       6.591   5.752  17.717  0.00  0.00    +0.000 C 
ATOM     24  O   UNL     1       7.070   6.877  17.840  0.00  0.00    +0.000 OA
BRANCH  23  25
ATOM     25  C   UNL     1       6.418   5.157  16.357  0.00  0.00    +0.000 A 
ATOM     26  C   UNL     1       5.233   4.463  16.066  0.00  0.00    +0.000 A 
ATOM     27  C   UNL     1       5.049   3.879  14.807  0.00  0.00    +0.000 A 
ATOM     28  C   UNL     1       6.038   4.002  13.832  0.00  0.00    +0.000 A 
ATOM     29 BR   UNL     1       5.793   3.213  12.132  0.00  0.00    +0.000 Br
ATOM     30  C   UNL     1       7.209   4.708  14.101  0.00  0.00    +0.000 A 
ATOM     31  C   UNL     1       7.401   5.283  15.364  0.00  0.00    +0.000 A 
ENDBRANCH  23  25
ENDBRANCH  22  23
ENDBRANCH   3  22
TORSDOF 7
ENDMDL
MODEL 5
REMARK VINA RESULT:      -8.2      2.165      3.181
REMARK  Name = 
REMARK  8 active torsions:
REMARK  status: ('A' for Active; 'I' for Inactive)
REMARK    1  A    between atoms: C_1  and  O_2
REMARK    2  A    between atoms: O_2  and  C_3
REMARK    3  A    between atoms: C_6  and  N_7
REMARK    4  A    between atoms: N_7  and  C_8
REMARK    5  A    between atoms: C_8  and  C_9
REMARK    6  A    between atoms: N_11  and  C_12
REMARK    7  A    between atoms: C_12  and  C_13
REMARK    8  A    between atoms: C_13  and  C_15
REMARK                            x       y       z     vdW  Elec       q    Type
REMARK                         _______ _______ _______ _____ _____    ______ ____
ROOT
ATOM      1  C   UNL     1       4.694   5.456  18.642  0.00  0.00    +0.000 A 
ATOM      2  N   UNL     1       4.102   6.415  18.002  0.00  0.00    +0.000 NA
ATOM      3  N   UNL     1       2.766   6.128  18.114  0.00  0.00    +0.000 N 
ATOM      4  C   UNL     1       2.553   5.007  18.830  0.00  0.00    +0.000 A 
ATOM      5  N   UNL     1       3.777   4.544  19.167  0.00  0.00    +0.000 N 
ATOM      6  C   UNL     1       4.107   3.356  19.959  0.00  0.00    +0.000 C 
ATOM      7  C   UNL     1       3.036   2.276  19.927  0.00  0.00    +0.000 C 
ATOM      8  C   UNL     1       1.844   2.562  20.842  0.00  0.00    +0.000 C 
ATOM      9  C   UNL     1       1.211   3.945  20.694  0.00  0.00    +0.000 C 
ATOM     10  C   UNL     1       1.226   4.460  19.266  0.00  0.00    +0.000 C 
ENDROOT
BRANCH   1  11
ATOM     11  C   UNL     1       6.189   5.425  18.821  0.00  0.00    +0.000 C 
BRANCH  11  12
ATOM     12  N   UNL     1       6.774   4.313  18.075  0.00  0.00    +0.000 N 
ATOM     13  H   UNL     1       6.469   3.392  18.401  0.00  0.00    +0.000 HD
BRANCH  12  17
ATOM     14  C   UNL     1       6.534   4.260  13.846  0.00  0.00    +0.000 A 
ATOM     15  C   UNL     1       5.747   3.425  14.636  0.00  0.00    +0.000 A 
ATOM     16  C   UNL     1       5.816   3.494  16.032  0.00  0.00    +0.000 A 
ATOM     17  C   UNL     1       6.721   4.349  16.672  0.00  0.00    +0.000 A 
ATOM     18  C   UNL     1       7.476   5.213  15.869  0.00  0.00    +0.000 A 
ATOM     19  C   UNL     1       7.390   5.165  14.469  0.00  0.00    +0.000 A 
BRANCH  14  21
ATOM     20  C   UNL     1       5.447   3.128  12.079  0.00  0.00    +0.000 C 
ATOM     21  O   UNL     1       6.421   4.079  12.497  0.00  0.00    +0.000 OA
ENDBRANCH  14  21
ENDBRANCH  12  17
ENDBRANCH  11  12
ENDBRANCH   1  11
BRANCH   3  22
ATOM     22  C   UNL     1       1.794   7.099  17.595  0.00  0.00    +0.000 C 
BRANCH  22  23
ATOM     23  C   UNL     1       2.067   8.522  18.063  0.00  0.00    +0.000 C 
ATOM     24  O   UNL     1       2.846   9.272  17.478  0.00  0.00    +0.000 OA
BRANCH  23  25
ATOM     25  C   UNL     1       1.347   8.997  19.284  0.00  0.00    +0.000 A 
ATOM     26  C   UNL     1       1.530   8.305  20.491  0.00  0.00    +0.000 A 
ATOM     27  C   UNL     1       0.856   8.713  21.647  0.00  0.00    +0.000 A 
ATOM     28  C   UNL     1       0.012   9.823  21.605  0.00  0.00    +0.000 A 
ATOM     29 BR   UNL     1      -0.900  10.376  23.165  0.00  0.00    +0.000 Br
ATOM     30  C   UNL     1      -0.159  10.532  20.419  0.00  0.00    +0.000 A 
ATOM     31  C   UNL     1       0.505  10.119  19.257  0.00  0.00    +0.000 A 
ENDBRANCH  23  25
ENDBRANCH  22  23
ENDBRANCH   3  22
TORSDOF 7
ENDMDL
MODEL 6
REMARK VINA RESULT:      -8.1      3.521      7.918
REMARK  Name = 
REMARK  8 active torsions:
REMARK  status: ('A' for Active; 'I' for Inactive)
REMARK    1  A    between atoms: C_1  and  O_2
REMARK    2  A    between atoms: O_2  and  C_3
REMARK    3  A    between atoms: C_6  and  N_7
REMARK    4  A    between atoms: N_7  and  C_8
REMARK    5  A    between atoms: C_8  and  C_9
REMARK    6  A    between atoms: N_11  and  C_12
REMARK    7  A    between atoms: C_12  and  C_13
REMARK    8  A    between atoms: C_13  and  C_15
REMARK                            x       y       z     vdW  Elec       q    Type
REMARK                         _______ _______ _______ _____ _____    ______ ____
ROOT
ATOM      1  C   UNL     1       3.313   6.366  18.458  0.00  0.00    +0.000 A 
ATOM      2  N   UNL     1       4.581   6.508  18.230  0.00  0.00    +0.000 NA
ATOM      3  N   UNL     1       5.102   5.251  18.395  0.00  0.00    +0.000 N 
ATOM      4  C   UNL     1       4.150   4.352  18.710  0.00  0.00    +0.000 A 
ATOM      5  N   UNL     1       2.992   5.045  18.776  0.00  0.00    +0.000 N 
ATOM      6  C   UNL     1       1.650   4.537  19.070  0.00  0.00    +0.000 C 
ATOM      7  C   UNL     1       1.641   3.261  19.899  0.00  0.00    +0.000 C 
ATOM      8  C   UNL     1       1.948   1.999  19.091  0.00  0.00    +0.000 C 
ATOM      9  C   UNL     1       3.201   2.059  18.218  0.00  0.00    +0.000 C 
ATOM     10  C   UNL     1       4.325   2.868  18.838  0.00  0.00    +0.000 C 
ENDROOT
BRANCH   1  11
ATOM     11  C   UNL     1       2.347   7.512  18.314  0.00  0.00    +0.000 C 
BRANCH  11  12
ATOM     12  N   UNL     1       1.988   8.051  19.624  0.00  0.00    +0.000 N 
ATOM     13  H   UNL     1       2.794   8.246  20.225  0.00  0.00    +0.000 HD
BRANCH  12  17
ATOM     14  C   UNL     1      -0.637  11.374  19.633  0.00  0.00    +0.000 A 
ATOM     15  C   UNL     1      -0.019  10.932  18.466  0.00  0.00    +0.000 A 
ATOM     16  C   UNL     1       0.810   9.804  18.485  0.00  0.00    +0.000 A 
ATOM     17  C   UNL     1       1.096   9.134  19.679  0.00  0.00    +0.000 A 
ATOM     18  C   UNL     1       0.436   9.562  20.838  0.00  0.00    +0.000 A 
ATOM     19  C   UNL     1      -0.417  10.677  20.818  0.00  0.00    +0.000 A 
BRANCH  14  21
ATOM     20  C   UNL     1      -2.681  12.464  20.108  0.00  0.00    +0.000 C 
ATOM     21  O   UNL     1      -1.388  12.509  19.511  0.00  0.00    +0.000 OA
ENDBRANCH  14  21
ENDBRANCH  12  17
ENDBRANCH  11  12
ENDBRANCH   1  11
BRANCH   3  22
ATOM     22  C   UNL     1       6.521   5.034  18.086  0.00  0.00    +0.000 C 
BRANCH  22  23
ATOM     23  C   UNL     1       6.957   5.707  16.791  0.00  0.00    +0.000 C 
ATOM     24  O   UNL     1       7.565   6.775  16.774  0.00  0.00    +0.000 OA
BRANCH  23  25
ATOM     25  C   UNL     1       6.618   5.019  15.508  0.00  0.00    +0.000 A 
ATOM     26  C   UNL     1       5.438   4.262  15.436  0.00  0.00    +0.000 A 
ATOM     27  C   UNL     1       5.102   3.591  14.255  0.00  0.00    +0.000 A 
ATOM     28  C   UNL     1       5.932   3.689  13.138  0.00  0.00    +0.000 A 
ATOM     29 BR   UNL     1       5.481   2.783  11.543  0.00  0.00    +0.000 Br
ATOM     30  C   UNL     1       7.094   4.456  13.190  0.00  0.00    +0.000 A 
ATOM     31  C   UNL     1       7.439   5.119  14.375  0.00  0.00    +0.000 A 
ENDBRANCH  23  25
ENDBRANCH  22  23
ENDBRANCH   3  22
TORSDOF 7
ENDMDL
MODEL 7
REMARK VINA RESULT:      -8.1      3.514      7.883
REMARK  Name = 
REMARK  8 active torsions:
REMARK  status: ('A' for Active; 'I' for Inactive)
REMARK    1  A    between atoms: C_1  and  O_2
REMARK    2  A    between atoms: O_2  and  C_3
REMARK    3  A    between atoms: C_6  and  N_7
REMARK    4  A    between atoms: N_7  and  C_8
REMARK    5  A    between atoms: C_8  and  C_9
REMARK    6  A    between atoms: N_11  and  C_12
REMARK    7  A    between atoms: C_12  and  C_13
REMARK    8  A    between atoms: C_13  and  C_15
REMARK                            x       y       z     vdW  Elec       q    Type
REMARK                         _______ _______ _______ _____ _____    ______ ____
ROOT
ATOM      1  C   UNL     1       3.278   6.437  18.421  0.00  0.00    +0.000 A 
ATOM      2  N   UNL     1       4.550   6.590  18.226  0.00  0.00    +0.000 NA
ATOM      3  N   UNL     1       5.085   5.350  18.460  0.00  0.00    +0.000 N 
ATOM      4  C   UNL     1       4.138   4.449  18.783  0.00  0.00    +0.000 A 
ATOM      5  N   UNL     1       2.968   5.124  18.784  0.00  0.00    +0.000 N 
ATOM      6  C   UNL     1       1.625   4.607  19.058  0.00  0.00    +0.000 C 
ATOM      7  C   UNL     1       1.610   3.366  19.940  0.00  0.00    +0.000 C 
ATOM      8  C   UNL     1       1.963   2.077  19.196  0.00  0.00    +0.000 C 
ATOM      9  C   UNL     1       3.240   2.121  18.360  0.00  0.00    +0.000 C 
ATOM     10  C   UNL     1       4.332   2.975  18.979  0.00  0.00    +0.000 C 
ENDROOT
BRANCH   1  11
ATOM     11  C   UNL     1       2.299   7.559  18.199  0.00  0.00    +0.000 C 
BRANCH  11  12
ATOM     12  N   UNL     1       1.983   8.224  19.461  0.00  0.00    +0.000 N 
ATOM     13  H   UNL     1       2.808   8.539  19.979  0.00  0.00    +0.000 HD
BRANCH  12  17
ATOM     14  C   UNL     1      -0.941  11.283  19.616  0.00  0.00    +0.000 A 
ATOM     15  C   UNL     1      -0.311  10.813  20.765  0.00  0.00    +0.000 A 
ATOM     16  C   UNL     1       0.684   9.832  20.680  0.00  0.00    +0.000 A 
ATOM     17  C   UNL     1       1.022   9.248  19.454  0.00  0.00    +0.000 A 
ATOM     18  C   UNL     1       0.412   9.757  18.301  0.00  0.00    +0.000 A 
ATOM     19  C   UNL     1      -0.567  10.761  18.381  0.00  0.00    +0.000 A 
BRANCH  14  21
ATOM     20  C   UNL     1      -2.264  12.469  21.177  0.00  0.00    +0.000 C 
ATOM     21  O   UNL     1      -1.926  12.208  19.818  0.00  0.00    +0.000 OA
ENDBRANCH  14  21
ENDBRANCH  12  17
ENDBRANCH  11  12
ENDBRANCH   1  11
BRANCH   3  22
ATOM     22  C   UNL     1       6.516   5.144  18.203  0.00  0.00    +0.000 C 
BRANCH  22  23
ATOM     23  C   UNL     1       6.978   5.754  16.887  0.00  0.00    +0.000 C 
ATOM     24  O   UNL     1       7.618   6.802  16.833  0.00  0.00    +0.000 OA
BRANCH  23  25
ATOM     25  C   UNL     1       6.623   5.029  15.628  0.00  0.00    +0.000 A 
ATOM     26  C   UNL     1       7.439   5.193  14.499  0.00  0.00    +0.000 A 
ATOM     27  C   UNL     1       7.124   4.542  13.301  0.00  0.00    +0.000 A 
ATOM     28  C   UNL     1       6.005   3.712  13.233  0.00  0.00    +0.000 A 
ATOM     29 BR   UNL     1       5.577   2.833  11.616  0.00  0.00    +0.000 Br
ATOM     30  C   UNL     1       5.201   3.522  14.354  0.00  0.00    +0.000 A 
ATOM     31  C   UNL     1       5.507   4.182  15.551  0.00  0.00    +0.000 A 
ENDBRANCH  23  25
ENDBRANCH  22  23
ENDBRANCH   3  22
TORSDOF 7
ENDMDL
MODEL 8
REMARK VINA RESULT:      -8.0      3.311      7.333
REMARK  Name = 
REMARK  8 active torsions:
REMARK  status: ('A' for Active; 'I' for Inactive)
REMARK    1  A    between atoms: C_1  and  O_2
REMARK    2  A    between atoms: O_2  and  C_3
REMARK    3  A    between atoms: C_6  and  N_7
REMARK    4  A    between atoms: N_7  and  C_8
REMARK    5  A    between atoms: C_8  and  C_9
REMARK    6  A    between atoms: N_11  and  C_12
REMARK    7  A    between atoms: C_12  and  C_13
REMARK    8  A    between atoms: C_13  and  C_15
REMARK                            x       y       z     vdW  Elec       q    Type
REMARK                         _______ _______ _______ _____ _____    ______ ____
ROOT
ATOM      1  C   UNL     1       2.739   6.191  18.665  0.00  0.00    +0.000 A 
ATOM      2  N   UNL     1       3.960   6.571  18.872  0.00  0.00    +0.000 NA
ATOM      3  N   UNL     1       4.629   5.418  19.190  0.00  0.00    +0.000 N 
ATOM      4  C   UNL     1       3.817   4.344  19.163  0.00  0.00    +0.000 A 
ATOM      5  N   UNL     1       2.591   4.814  18.846  0.00  0.00    +0.000 N 
ATOM      6  C   UNL     1       1.349   4.056  18.673  0.00  0.00    +0.000 C 
ATOM      7  C   UNL     1       1.316   2.743  19.441  0.00  0.00    +0.000 C 
ATOM      8  C   UNL     1       2.104   1.616  18.770  0.00  0.00    +0.000 C 
ATOM      9  C   UNL     1       3.536   1.960  18.363  0.00  0.00    +0.000 C 
ATOM     10  C   UNL     1       4.222   2.909  19.329  0.00  0.00    +0.000 C 
ENDROOT
BRANCH   1  11
ATOM     11  C   UNL     1       1.671   7.155  18.218  0.00  0.00    +0.000 C 
BRANCH  11  12
ATOM     12  N   UNL     1       2.018   8.521  18.601  0.00  0.00    +0.000 N 
ATOM     13  H   UNL     1       1.944   9.196  17.835  0.00  0.00    +0.000 HD
BRANCH  12  17
ATOM     14  C   UNL     1       0.260  10.316  22.010  0.00  0.00    +0.000 A 
ATOM     15  C   UNL     1       0.408  11.009  20.811  0.00  0.00    +0.000 A 
ATOM     16  C   UNL     1       0.953  10.377  19.688  0.00  0.00    +0.000 A 
ATOM     17  C   UNL     1       1.426   9.062  19.754  0.00  0.00    +0.000 A 
ATOM     18  C   UNL     1       1.235   8.362  20.952  0.00  0.00    +0.000 A 
ATOM     19  C   UNL     1       0.664   8.985  22.073  0.00  0.00    +0.000 A 
BRANCH  14  21
ATOM     20  C   UNL     1      -1.661  11.136  23.118  0.00  0.00    +0.000 C 
ATOM     21  O   UNL     1      -0.241  11.040  23.055  0.00  0.00    +0.000 OA
ENDBRANCH  14  21
ENDBRANCH  12  17
ENDBRANCH  11  12
ENDBRANCH   1  11
BRANCH   3  22
ATOM     22  C   UNL     1       6.086   5.479  19.367  0.00  0.00    +0.000 C 
BRANCH  22  23
ATOM     23  C   UNL     1       6.812   6.022  18.144  0.00  0.00    +0.000 C 
ATOM     24  O   UNL     1       7.655   6.914  18.218  0.00  0.00    +0.000 OA
BRANCH  23  25
ATOM     25  C   UNL     1       6.464   5.430  16.816  0.00  0.00    +0.000 A 
ATOM     26  C   UNL     1       5.690   6.183  15.920  0.00  0.00    +0.000 A 
ATOM     27  C   UNL     1       5.332   5.650  14.676  0.00  0.00    +0.000 A 
ATOM     28  C   UNL     1       5.762   4.372  14.318  0.00  0.00    +0.000 A 
ATOM     29 BR   UNL     1       5.280   3.649  12.640  0.00  0.00    +0.000 Br
ATOM     30  C   UNL     1       6.551   3.624  15.189  0.00  0.00    +0.000 A 
ATOM     31  C   UNL     1       6.900   4.151  16.439  0.00  0.00    +0.000 A 
ENDBRANCH  23  25
ENDBRANCH  22  23
ENDBRANCH   3  22
TORSDOF 7
ENDMDL
MODEL 9
REMARK VINA RESULT:      -8.0      2.268      3.364
REMARK  Name = 
REMARK  8 active torsions:
REMARK  status: ('A' for Active; 'I' for Inactive)
REMARK    1  A    between atoms: C_1  and  O_2
REMARK    2  A    between atoms: O_2  and  C_3
REMARK    3  A    between atoms: C_6  and  N_7
REMARK    4  A    between atoms: N_7  and  C_8
REMARK    5  A    between atoms: C_8  and  C_9
REMARK    6  A    between atoms: N_11  and  C_12
REMARK    7  A    between atoms: C_12  and  C_13
REMARK    8  A    between atoms: C_13  and  C_15
REMARK                            x       y       z     vdW  Elec       q    Type
REMARK                         _______ _______ _______ _____ _____    ______ ____
ROOT
ATOM      1  C   UNL     1       4.460   5.148  18.972  0.00  0.00    +0.000 A 
ATOM      2  N   UNL     1       4.056   6.216  19.586  0.00  0.00    +0.000 NA
ATOM      3  N   UNL     1       2.752   5.951  19.913  0.00  0.00    +0.000 N 
ATOM      4  C   UNL     1       2.373   4.724  19.508  0.00  0.00    +0.000 A 
ATOM      5  N   UNL     1       3.446   4.191  18.884  0.00  0.00    +0.000 N 
ATOM      6  C   UNL     1       3.571   2.867  18.270  0.00  0.00    +0.000 C 
ATOM      7  C   UNL     1       2.246   2.271  17.815  0.00  0.00    +0.000 C 
ATOM      8  C   UNL     1       1.416   1.673  18.953  0.00  0.00    +0.000 C 
ATOM      9  C   UNL     1       1.205   2.578  20.166  0.00  0.00    +0.000 C 
ATOM     10  C   UNL     1       1.068   4.045  19.803  0.00  0.00    +0.000 C 
ENDROOT
BRANCH   1  11
ATOM     11  C   UNL     1       5.880   4.993  18.497  0.00  0.00    +0.000 C 
BRANCH  11  12
ATOM     12  N   UNL     1       6.126   5.833  17.327  0.00  0.00    +0.000 N 
ATOM     13  H   UNL     1       6.941   6.446  17.423  0.00  0.00    +0.000 HD
BRANCH  12  17
ATOM     14  C   UNL     1       6.346   4.092  13.472  0.00  0.00    +0.000 A 
ATOM     15  C   UNL     1       7.442   4.726  14.054  0.00  0.00    +0.000 A 
ATOM     16  C   UNL     1       7.353   5.254  15.347  0.00  0.00    +0.000 A 
ATOM     17  C   UNL     1       6.151   5.224  16.062  0.00  0.00    +0.000 A 
ATOM     18  C   UNL     1       5.069   4.548  15.484  0.00  0.00    +0.000 A 
ATOM     19  C   UNL     1       5.162   3.994  14.198  0.00  0.00    +0.000 A 
BRANCH  14  21
ATOM     20  C   UNL     1       5.689   2.579  11.779  0.00  0.00    +0.000 C 
ATOM     21  O   UNL     1       6.529   3.653  12.191  0.00  0.00    +0.000 OA
ENDBRANCH  14  21
ENDBRANCH  12  17
ENDBRANCH  11  12
ENDBRANCH   1  11
BRANCH   3  22
ATOM     22  C   UNL     1       2.024   6.924  20.738  0.00  0.00    +0.000 C 
BRANCH  22  23
ATOM     23  C   UNL     1       1.604   8.165  19.962  0.00  0.00    +0.000 C 
ATOM     24  O   UNL     1       1.931   8.356  18.792  0.00  0.00    +0.000 OA
BRANCH  23  25
ATOM     25  C   UNL     1       0.761   9.173  20.676  0.00  0.00    +0.000 A 
ATOM     26  C   UNL     1       0.536   9.014  22.052  0.00  0.00    +0.000 A 
ATOM     27  C   UNL     1      -0.263   9.930  22.746  0.00  0.00    +0.000 A 
ATOM     28  C   UNL     1      -0.823  11.015  22.072  0.00  0.00    +0.000 A 
ATOM     29 BR   UNL     1      -1.903  12.253  23.006  0.00  0.00    +0.000 Br
ATOM     30  C   UNL     1      -0.587  11.197  20.711  0.00  0.00    +0.000 A 
ATOM     31  C   UNL     1       0.202  10.275  20.012  0.00  0.00    +0.000 A 
ENDBRANCH  23  25
ENDBRANCH  22  23
ENDBRANCH   3  22
TORSDOF 7
ENDMDL
