MODEL 1
REMARK VINA RESULT:      -7.4      0.000      0.000
REMARK  Name = 
REMARK  6 active torsions:
REMARK  status: ('A' for Active; 'I' for Inactive)
REMARK    1  A    between atoms: C_1  and  C_2
REMARK    2  A    between atoms: C_6  and  C_7
REMARK    3  A    between atoms: C_7  and  S_8
REMARK    4  A    between atoms: S_8  and  C_9
REMARK    5  A    between atoms: C_12  and  C_13
REMARK    6  A    between atoms: N_19  and  C_20
REMARK                            x       y       z     vdW  Elec       q    Type
REMARK                         _______ _______ _______ _____ _____    ______ ____
ROOT
ATOM      1  C   UNL     1       6.210   5.521  17.745  0.00  0.00    +0.000 A 
ATOM      2  N   UNL     1       7.132   6.408  17.459  0.00  0.00    +0.000 NA
ATOM      3  N   UNL     1       7.494   6.211  16.140  0.00  0.00    +0.000 NA
ATOM      4  C   UNL     1       6.757   5.232  15.633  0.00  0.00    +0.000 A 
ATOM      5  N   UNL     1       5.958   4.740  16.647  0.00  0.00    +0.000 N 
ATOM      6  C   UNL     1       5.067   3.608  16.615  0.00  0.00    +0.000 C 
ENDROOT
BRANCH   4   7
ATOM      7  C   UNL     1       6.799   4.760  14.251  0.00  0.00    +0.000 A 
ATOM      8  C   UNL     1       7.694   5.270  13.317  0.00  0.00    +0.000 A 
ATOM      9  N   UNL     1       7.754   4.825  12.034  0.00  0.00    +0.000 NA
ATOM     10  C   UNL     1       6.864   3.859  11.712  0.00  0.00    +0.000 A 
ATOM     11  C   UNL     1       5.955   3.360  12.628  0.00  0.00    +0.000 A 
ATOM     12  N   UNL     1       5.905   3.795  13.910  0.00  0.00    +0.000 NA
ENDBRANCH   4   7
BRANCH   1  13
ATOM     13  S   UNL     1       5.441   5.259  19.272  0.00  0.00    +0.000 S 
BRANCH  13  14
ATOM     14  C   UNL     1       3.783   5.946  18.998  0.00  0.00    +0.000 C 
BRANCH  14  20
ATOM     15  C   UNL     1       1.460   2.534  21.909  0.00  0.00    +0.000 C 
ATOM     16  C   UNL     1       1.609   3.212  20.578  0.00  0.00    +0.000 A 
ATOM     17  C   UNL     1       0.810   2.841  19.492  0.00  0.00    +0.000 A 
ATOM     18  C   UNL     1       0.964   3.472  18.258  0.00  0.00    +0.000 A 
ATOM     19  C   UNL     1       1.917   4.481  18.098  0.00  0.00    +0.000 A 
ATOM     20  C   UNL     1       2.726   4.875  19.174  0.00  0.00    +0.000 A 
ATOM     21  C   UNL     1       2.565   4.225  20.410  0.00  0.00    +0.000 A 
ENDBRANCH  14  20
ENDBRANCH  13  14
ENDBRANCH   1  13
TORSDOF 4
ENDMDL
MODEL 2
REMARK VINA RESULT:      -7.4      1.247      1.689
REMARK  Name = 
REMARK  6 active torsions:
REMARK  status: ('A' for Active; 'I' for Inactive)
REMARK    1  A    between atoms: C_1  and  C_2
REMARK    2  A    between atoms: C_6  and  C_7
REMARK    3  A    between atoms: C_7  and  S_8
REMARK    4  A    between atoms: S_8  and  C_9
REMARK    5  A    between atoms: C_12  and  C_13
REMARK    6  A    between atoms: N_19  and  C_20
REMARK                            x       y       z     vdW  Elec       q    Type
REMARK                         _______ _______ _______ _____ _____    ______ ____
ROOT
ATOM      1  C   UNL     1       5.336   5.538  17.853  0.00  0.00    +0.000 A 
ATOM      2  N   UNL     1       6.023   4.463  18.152  0.00  0.00    +0.000 NA
ATOM      3  N   UNL     1       6.574   3.988  16.977  0.00  0.00    +0.000 NA
ATOM      4  C   UNL     1       6.244   4.806  15.987  0.00  0.00    +0.000 A 
ATOM      5  N   UNL     1       5.416   5.782  16.506  0.00  0.00    +0.000 N 
ATOM      6  C   UNL     1       4.716   6.828  15.805  0.00  0.00    +0.000 C 
ENDROOT
BRANCH   4   7
ATOM      7  C   UNL     1       6.676   4.680  14.596  0.00  0.00    +0.000 A 
ATOM      8  C   UNL     1       6.083   3.789  13.710  0.00  0.00    +0.000 A 
ATOM      9  N   UNL     1       6.466   3.678  12.410  0.00  0.00    +0.000 NA
ATOM     10  C   UNL     1       7.486   4.483  12.034  0.00  0.00    +0.000 A 
ATOM     11  C   UNL     1       8.096   5.358  12.914  0.00  0.00    +0.000 A 
ATOM     12  N   UNL     1       7.706   5.477  14.206  0.00  0.00    +0.000 NA
ENDBRANCH   4   7
BRANCH   1  13
ATOM     13  S   UNL     1       4.382   6.508  18.921  0.00  0.00    +0.000 S 
BRANCH  13  14
ATOM     14  C   UNL     1       2.690   6.149  18.368  0.00  0.00    +0.000 C 
BRANCH  14  20
ATOM     15  C   UNL     1       1.440   2.577  21.712  0.00  0.00    +0.000 C 
ATOM     16  C   UNL     1       1.731   2.976  20.296  0.00  0.00    +0.000 A 
ATOM     17  C   UNL     1       1.703   2.032  19.265  0.00  0.00    +0.000 A 
ATOM     18  C   UNL     1       1.983   2.414  17.953  0.00  0.00    +0.000 A 
ATOM     19  C   UNL     1       2.294   3.744  17.660  0.00  0.00    +0.000 A 
ATOM     20  C   UNL     1       2.323   4.711  18.675  0.00  0.00    +0.000 A 
ATOM     21  C   UNL     1       2.045   4.311  19.993  0.00  0.00    +0.000 A 
ENDBRANCH  14  20
ENDBRANCH  13  14
ENDBRANCH   1  13
TORSDOF 4
ENDMDL
MODEL 3
REMARK VINA RESULT:      -7.3      4.436      7.641
REMARK  Name = 
REMARK  6 active torsions:
REMARK  status: ('A' for Active; 'I' for Inactive)
REMARK    1  A    between atoms: C_1  and  C_2
REMARK    2  A    between atoms: C_6  and  C_7
REMARK    3  A    between atoms: C_7  and  S_8
REMARK    4  A    between atoms: S_8  and  C_9
REMARK    5  A    between atoms: C_12  and  C_13
REMARK    6  A    between atoms: N_19  and  C_20
REMARK                            x       y       z     vdW  Elec       q    Type
REMARK                         _______ _______ _______ _____ _____    ______ ____
ROOT
ATOM      1  C   UNL     1       6.709   6.219  18.136  0.00  0.00    +0.000 A 
ATOM      2  N   UNL     1       7.229   5.387  19.006  0.00  0.00    +0.000 NA
ATOM      3  N   UNL     1       6.252   4.463  19.323  0.00  0.00    +0.000 NA
ATOM      4  C   UNL     1       5.165   4.725  18.610  0.00  0.00    +0.000 A 
ATOM      5  N   UNL     1       5.410   5.868  17.875  0.00  0.00    +0.000 N 
ATOM      6  C   UNL     1       4.499   6.604  17.035  0.00  0.00    +0.000 C 
ENDROOT
BRANCH   4   7
ATOM      7  C   UNL     1       3.931   3.942  18.618  0.00  0.00    +0.000 A 
ATOM      8  C   UNL     1       3.623   3.027  17.618  0.00  0.00    +0.000 A 
ATOM      9  N   UNL     1       2.486   2.281  17.626  0.00  0.00    +0.000 NA
ATOM     10  C   UNL     1       1.654   2.501  18.668  0.00  0.00    +0.000 A 
ATOM     11  C   UNL     1       1.942   3.424  19.658  0.00  0.00    +0.000 A 
ATOM     12  N   UNL     1       3.080   4.158  19.656  0.00  0.00    +0.000 NA
ENDBRANCH   4   7
BRANCH   1  13
ATOM     13  S   UNL     1       7.455   7.617  17.441  0.00  0.00    +0.000 S 
BRANCH  13  14
ATOM     14  C   UNL     1       8.621   8.122  18.737  0.00  0.00    +0.000 C 
BRANCH  14  20
ATOM     15  C   UNL     1      10.446  12.318  20.875  0.00  0.00    +0.000 C 
ATOM     16  C   UNL     1       9.699  11.658  19.753  0.00  0.00    +0.000 A 
ATOM     17  C   UNL     1       9.160  12.415  18.708  0.00  0.00    +0.000 A 
ATOM     18  C   UNL     1       8.460  11.791  17.675  0.00  0.00    +0.000 A 
ATOM     19  C   UNL     1       8.292  10.405  17.678  0.00  0.00    +0.000 A 
ATOM     20  C   UNL     1       8.828   9.623  18.712  0.00  0.00    +0.000 A 
ATOM     21  C   UNL     1       9.525  10.266  19.749  0.00  0.00    +0.000 A 
ENDBRANCH  14  20
ENDBRANCH  13  14
ENDBRANCH   1  13
TORSDOF 4
ENDMDL
MODEL 4
REMARK VINA RESULT:      -7.3      2.819      6.951
REMARK  Name = 
REMARK  6 active torsions:
REMARK  status: ('A' for Active; 'I' for Inactive)
REMARK    1  A    between atoms: C_1  and  C_2
REMARK    2  A    between atoms: C_6  and  C_7
REMARK    3  A    between atoms: C_7  and  S_8
REMARK    4  A    between atoms: S_8  and  C_9
REMARK    5  A    between atoms: C_12  and  C_13
REMARK    6  A    between atoms: N_19  and  C_20
REMARK                            x       y       z     vdW  Elec       q    Type
REMARK                         _______ _______ _______ _____ _____    ______ ____
ROOT
ATOM      1  C   UNL     1       4.404   5.454  16.737  0.00  0.00    +0.000 A 
ATOM      2  N   UNL     1       4.090   6.540  17.400  0.00  0.00    +0.000 NA
ATOM      3  N   UNL     1       3.396   6.146  18.528  0.00  0.00    +0.000 NA
ATOM      4  C   UNL     1       3.333   4.822  18.553  0.00  0.00    +0.000 A 
ATOM      5  N   UNL     1       3.929   4.351  17.399  0.00  0.00    +0.000 N 
ATOM      6  C   UNL     1       4.010   2.993  16.923  0.00  0.00    +0.000 C 
ENDROOT
BRANCH   4   7
ATOM      7  C   UNL     1       2.730   4.016  19.612  0.00  0.00    +0.000 A 
ATOM      8  C   UNL     1       3.491   3.301  20.529  0.00  0.00    +0.000 A 
ATOM      9  N   UNL     1       2.939   2.563  21.529  0.00  0.00    +0.000 NA
ATOM     10  C   UNL     1       1.588   2.551  21.564  0.00  0.00    +0.000 A 
ATOM     11  C   UNL     1       0.821   3.242  20.644  0.00  0.00    +0.000 A 
ATOM     12  N   UNL     1       1.371   3.987  19.655  0.00  0.00    +0.000 NA
ENDBRANCH   4   7
BRANCH   1  13
ATOM     13  S   UNL     1       5.217   5.349  15.214  0.00  0.00    +0.000 S 
BRANCH  13  14
ATOM     14  C   UNL     1       6.885   4.822  15.697  0.00  0.00    +0.000 C 
BRANCH  14  20
ATOM     15  C   UNL     1       8.186   9.155  17.944  0.00  0.00    +0.000 C 
ATOM     16  C   UNL     1       7.989   7.669  18.017  0.00  0.00    +0.000 A 
ATOM     17  C   UNL     1       8.260   6.967  19.195  0.00  0.00    +0.000 A 
ATOM     18  C   UNL     1       8.081   5.585  19.248  0.00  0.00    +0.000 A 
ATOM     19  C   UNL     1       7.629   4.892  18.123  0.00  0.00    +0.000 A 
ATOM     20  C   UNL     1       7.345   5.574  16.930  0.00  0.00    +0.000 A 
ATOM     21  C   UNL     1       7.537   6.965  16.890  0.00  0.00    +0.000 A 
ENDBRANCH  14  20
ENDBRANCH  13  14
ENDBRANCH   1  13
TORSDOF 4
ENDMDL
MODEL 5
REMARK VINA RESULT:      -7.3      4.529      7.848
REMARK  Name = 
REMARK  6 active torsions:
REMARK  status: ('A' for Active; 'I' for Inactive)
REMARK    1  A    between atoms: C_1  and  C_2
REMARK    2  A    between atoms: C_6  and  C_7
REMARK    3  A    between atoms: C_7  and  S_8
REMARK    4  A    between atoms: S_8  and  C_9
REMARK    5  A    between atoms: C_12  and  C_13
REMARK    6  A    between atoms: N_19  and  C_20
REMARK                            x       y       z     vdW  Elec       q    Type
REMARK                         _______ _______ _______ _____ _____    ______ ____
ROOT
ATOM      1  C   UNL     1       6.593   6.725  17.490  0.00  0.00    +0.000 A 
ATOM      2  N   UNL     1       6.092   6.918  16.294  0.00  0.00    +0.000 NA
ATOM      3  N   UNL     1       4.999   6.083  16.168  0.00  0.00    +0.000 NA
ATOM      4  C   UNL     1       4.828   5.424  17.306  0.00  0.00    +0.000 A 
ATOM      5  N   UNL     1       5.858   5.779  18.155  0.00  0.00    +0.000 N 
ATOM      6  C   UNL     1       6.164   5.250  19.460  0.00  0.00    +0.000 C 
ENDROOT
BRANCH   4   7
ATOM      7  C   UNL     1       3.746   4.485  17.594  0.00  0.00    +0.000 A 
ATOM      8  C   UNL     1       3.848   3.125  17.323  0.00  0.00    +0.000 A 
ATOM      9  N   UNL     1       2.855   2.241  17.604  0.00  0.00    +0.000 NA
ATOM     10  C   UNL     1       1.739   2.775  18.151  0.00  0.00    +0.000 A 
ATOM     11  C   UNL     1       1.620   4.129  18.405  0.00  0.00    +0.000 A 
ATOM     12  N   UNL     1       2.615   5.008  18.137  0.00  0.00    +0.000 NA
ENDBRANCH   4   7
BRANCH   1  13
ATOM     13  S   UNL     1       8.009   7.452  18.167  0.00  0.00    +0.000 S 
BRANCH  13  14
ATOM     14  C   UNL     1       7.931   9.143  17.513  0.00  0.00    +0.000 C 
BRANCH  14  20
ATOM     15  C   UNL     1      11.408  12.806  17.523  0.00  0.00    +0.000 C 
ATOM     16  C   UNL     1      10.570  11.817  18.279  0.00  0.00    +0.000 A 
ATOM     17  C   UNL     1      10.677  11.701  19.668  0.00  0.00    +0.000 A 
ATOM     18  C   UNL     1       9.898  10.772  20.358  0.00  0.00    +0.000 A 
ATOM     19  C   UNL     1       9.005   9.952  19.666  0.00  0.00    +0.000 A 
ATOM     20  C   UNL     1       8.875  10.053  18.273  0.00  0.00    +0.000 A 
ATOM     21  C   UNL     1       9.671  10.988  17.590  0.00  0.00    +0.000 A 
ENDBRANCH  14  20
ENDBRANCH  13  14
ENDBRANCH   1  13
TORSDOF 4
ENDMDL
MODEL 6
REMARK VINA RESULT:      -7.2      5.033      8.168
REMARK  Name = 
REMARK  6 active torsions:
REMARK  status: ('A' for Active; 'I' for Inactive)
REMARK    1  A    between atoms: C_1  and  C_2
REMARK    2  A    between atoms: C_6  and  C_7
REMARK    3  A    between atoms: C_7  and  S_8
REMARK    4  A    between atoms: S_8  and  C_9
REMARK    5  A    between atoms: C_12  and  C_13
REMARK    6  A    between atoms: N_19  and  C_20
REMARK                            x       y       z     vdW  Elec       q    Type
REMARK                         _______ _______ _______ _____ _____    ______ ____
ROOT
ATOM      1  C   UNL     1       2.473   7.589  18.840  0.00  0.00    +0.000 A 
ATOM      2  N   UNL     1       2.663   8.084  17.641  0.00  0.00    +0.000 NA
ATOM      3  N   UNL     1       1.953   9.267  17.569  0.00  0.00    +0.000 NA
ATOM      4  C   UNL     1       1.373   9.493  18.741  0.00  0.00    +0.000 A 
ATOM      5  N   UNL     1       1.650   8.416  19.560  0.00  0.00    +0.000 N 
ATOM      6  C   UNL     1       1.154   8.150  20.887  0.00  0.00    +0.000 C 
ENDROOT
BRANCH   4   7
ATOM      7  C   UNL     1       0.578  10.669  19.087  0.00  0.00    +0.000 A 
ATOM      8  C   UNL     1       1.140  11.807  19.654  0.00  0.00    +0.000 A 
ATOM      9  N   UNL     1       0.413  12.913  19.962  0.00  0.00    +0.000 NA
ATOM     10  C   UNL     1      -0.911  12.829  19.700  0.00  0.00    +0.000 A 
ATOM     11  C   UNL     1      -1.483  11.694  19.155  0.00  0.00    +0.000 A 
ATOM     12  N   UNL     1      -0.756  10.597  18.836  0.00  0.00    +0.000 NA
ENDBRANCH   4   7
BRANCH   1  13
ATOM     13  S   UNL     1       3.067   6.090  19.465  0.00  0.00    +0.000 S 
BRANCH  13  14
ATOM     14  C   UNL     1       3.130   5.046  17.981  0.00  0.00    +0.000 C 
BRANCH  14  20
ATOM     15  C   UNL     1       6.385   3.984  14.269  0.00  0.00    +0.000 C 
ATOM     16  C   UNL     1       6.134   4.379  15.695  0.00  0.00    +0.000 A 
ATOM     17  C   UNL     1       7.197   4.583  16.580  0.00  0.00    +0.000 A 
ATOM     18  C   UNL     1       6.951   4.941  17.905  0.00  0.00    +0.000 A 
ATOM     19  C   UNL     1       5.639   5.100  18.358  0.00  0.00    +0.000 A 
ATOM     20  C   UNL     1       4.555   4.906  17.488  0.00  0.00    +0.000 A 
ATOM     21  C   UNL     1       4.819   4.539  16.157  0.00  0.00    +0.000 A 
ENDBRANCH  14  20
ENDBRANCH  13  14
ENDBRANCH   1  13
TORSDOF 4
ENDMDL
MODEL 7
REMARK VINA RESULT:      -7.2      4.573      7.787
REMARK  Name = 
REMARK  6 active torsions:
REMARK  status: ('A' for Active; 'I' for Inactive)
REMARK    1  A    between atoms: C_1  and  C_2
REMARK    2  A    between atoms: C_6  and  C_7
REMARK    3  A    between atoms: C_7  and  S_8
REMARK    4  A    between atoms: S_8  and  C_9
REMARK    5  A    between atoms: C_12  and  C_13
REMARK    6  A    between atoms: N_19  and  C_20
REMARK                            x       y       z     vdW  Elec       q    Type
REMARK                         _______ _______ _______ _____ _____    ______ ____
ROOT
ATOM      1  C   UNL     1       6.612   6.753  17.436  0.00  0.00    +0.000 A 
ATOM      2  N   UNL     1       6.121   6.892  16.229  0.00  0.00    +0.000 NA
ATOM      3  N   UNL     1       5.056   6.019  16.116  0.00  0.00    +0.000 NA
ATOM      4  C   UNL     1       4.892   5.389  17.272  0.00  0.00    +0.000 A 
ATOM      5  N   UNL     1       5.899   5.804  18.122  0.00  0.00    +0.000 N 
ATOM      6  C   UNL     1       6.205   5.325  19.446  0.00  0.00    +0.000 C 
ENDROOT
BRANCH   4   7
ATOM      7  C   UNL     1       3.838   4.424  17.575  0.00  0.00    +0.000 A 
ATOM      8  C   UNL     1       2.547   4.814  17.915  0.00  0.00    +0.000 A 
ATOM      9  N   UNL     1       1.555   3.924  18.181  0.00  0.00    +0.000 NA
ATOM     10  C   UNL     1       1.910   2.621  18.115  0.00  0.00    +0.000 A 
ATOM     11  C   UNL     1       3.196   2.224  17.798  0.00  0.00    +0.000 A 
ATOM     12  N   UNL     1       4.181   3.110  17.520  0.00  0.00    +0.000 NA
ENDBRANCH   4   7
BRANCH   1  13
ATOM     13  S   UNL     1       7.994   7.546  18.108  0.00  0.00    +0.000 S 
BRANCH  13  14
ATOM     14  C   UNL     1       7.803   9.246  17.500  0.00  0.00    +0.000 C 
BRANCH  14  20
ATOM     15  C   UNL     1      10.371  13.583  17.819  0.00  0.00    +0.000 C 
ATOM     16  C   UNL     1       9.932  12.291  18.444  0.00  0.00    +0.000 A 
ATOM     17  C   UNL     1      10.349  11.940  19.732  0.00  0.00    +0.000 A 
ATOM     18  C   UNL     1       9.941  10.733  20.299  0.00  0.00    +0.000 A 
ATOM     19  C   UNL     1       9.113   9.865  19.583  0.00  0.00    +0.000 A 
ATOM     20  C   UNL     1       8.676  10.197  18.292  0.00  0.00    +0.000 A 
ATOM     21  C   UNL     1       9.100  11.414  17.731  0.00  0.00    +0.000 A 
ENDBRANCH  14  20
ENDBRANCH  13  14
ENDBRANCH   1  13
TORSDOF 4
ENDMDL
MODEL 8
REMARK VINA RESULT:      -7.2      5.158      8.262
REMARK  Name = 
REMARK  6 active torsions:
REMARK  status: ('A' for Active; 'I' for Inactive)
REMARK    1  A    between atoms: C_1  and  C_2
REMARK    2  A    between atoms: C_6  and  C_7
REMARK    3  A    between atoms: C_7  and  S_8
REMARK    4  A    between atoms: S_8  and  C_9
REMARK    5  A    between atoms: C_12  and  C_13
REMARK    6  A    between atoms: N_19  and  C_20
REMARK                            x       y       z     vdW  Elec       q    Type
REMARK                         _______ _______ _______ _____ _____    ______ ____
ROOT
ATOM      1  C   UNL     1       2.318   7.711  18.836  0.00  0.00    +0.000 A 
ATOM      2  N   UNL     1       2.473   8.214  17.635  0.00  0.00    +0.000 NA
ATOM      3  N   UNL     1       1.818   9.430  17.612  0.00  0.00    +0.000 NA
ATOM      4  C   UNL     1       1.307   9.665  18.813  0.00  0.00    +0.000 A 
ATOM      5  N   UNL     1       1.571   8.565  19.605  0.00  0.00    +0.000 N 
ATOM      6  C   UNL     1       1.127   8.303  20.950  0.00  0.00    +0.000 C 
ENDROOT
BRANCH   4   7
ATOM      7  C   UNL     1       0.586  10.873  19.212  0.00  0.00    +0.000 A 
ATOM      8  C   UNL     1      -0.801  10.955  19.184  0.00  0.00    +0.000 A 
ATOM      9  N   UNL     1      -1.482  12.067  19.571  0.00  0.00    +0.000 NA
ATOM     10  C   UNL     1      -0.716  13.107  19.969  0.00  0.00    +0.000 A 
ATOM     11  C   UNL     1       0.666  13.042  19.980  0.00  0.00    +0.000 A 
ATOM     12  N   UNL     1       1.343  11.930  19.608  0.00  0.00    +0.000 NA
ENDBRANCH   4   7
BRANCH   1  13
ATOM     13  S   UNL     1       2.869   6.176  19.412  0.00  0.00    +0.000 S 
BRANCH  13  14
ATOM     14  C   UNL     1       2.965   5.197  17.887  0.00  0.00    +0.000 C 
BRANCH  14  20
ATOM     15  C   UNL     1       7.755   6.790  18.057  0.00  0.00    +0.000 C 
ATOM     16  C   UNL     1       6.717   5.872  17.481  0.00  0.00    +0.000 A 
ATOM     17  C   UNL     1       7.051   4.949  16.485  0.00  0.00    +0.000 A 
ATOM     18  C   UNL     1       6.076   4.106  15.951  0.00  0.00    +0.000 A 
ATOM     19  C   UNL     1       4.759   4.179  16.408  0.00  0.00    +0.000 A 
ATOM     20  C   UNL     1       4.400   5.092  17.410  0.00  0.00    +0.000 A 
ATOM     21  C   UNL     1       5.391   5.940  17.934  0.00  0.00    +0.000 A 
ENDBRANCH  14  20
ENDBRANCH  13  14
ENDBRANCH   1  13
TORSDOF 4
ENDMDL
MODEL 9
REMARK VINA RESULT:      -7.2      2.026      2.952
REMARK  Name = 
REMARK  6 active torsions:
REMARK  status: ('A' for Active; 'I' for Inactive)
REMARK    1  A    between atoms: C_1  and  C_2
REMARK    2  A    between atoms: C_6  and  C_7
REMARK    3  A    between atoms: C_7  and  S_8
REMARK    4  A    between atoms: S_8  and  C_9
REMARK    5  A    between atoms: C_12  and  C_13
REMARK    6  A    between atoms: N_19  and  C_20
REMARK                            x       y       z     vdW  Elec       q    Type
REMARK                         _______ _______ _______ _____ _____    ______ ____
ROOT
ATOM      1  C   UNL     1       5.864   5.546  17.975  0.00  0.00    +0.000 A 
ATOM      2  N   UNL     1       6.822   6.426  17.818  0.00  0.00    +0.000 NA
ATOM      3  N   UNL     1       7.317   6.269  16.537  0.00  0.00    +0.000 NA
ATOM      4  C   UNL     1       6.624   5.320  15.922  0.00  0.00    +0.000 A 
ATOM      5  N   UNL     1       5.718   4.807  16.830  0.00  0.00    +0.000 N 
ATOM      6  C   UNL     1       4.821   3.691  16.665  0.00  0.00    +0.000 C 
ENDROOT
BRANCH   4   7
ATOM      7  C   UNL     1       6.803   4.895  14.536  0.00  0.00    +0.000 A 
ATOM      8  C   UNL     1       6.028   3.897  13.957  0.00  0.00    +0.000 A 
ATOM      9  N   UNL     1       6.175   3.507  12.662  0.00  0.00    +0.000 NA
ATOM     10  C   UNL     1       7.147   4.144  11.971  0.00  0.00    +0.000 A 
ATOM     11  C   UNL     1       7.937   5.124  12.544  0.00  0.00    +0.000 A 
ATOM     12  N   UNL     1       7.782   5.521  13.830  0.00  0.00    +0.000 NA
ENDBRANCH   4   7
BRANCH   1  13
ATOM     13  S   UNL     1       4.938   5.244  19.405  0.00  0.00    +0.000 S 
BRANCH  13  14
ATOM     14  C   UNL     1       3.234   5.275  18.779  0.00  0.00    +0.000 C 
BRANCH  14  20
ATOM     15  C   UNL     1       0.893   8.741  21.610  0.00  0.00    +0.000 C 
ATOM     16  C   UNL     1       1.490   8.334  20.294  0.00  0.00    +0.000 A 
ATOM     17  C   UNL     1       1.466   9.202  19.198  0.00  0.00    +0.000 A 
ATOM     18  C   UNL     1       2.016   8.810  17.978  0.00  0.00    +0.000 A 
ATOM     19  C   UNL     1       2.595   7.546  17.843  0.00  0.00    +0.000 A 
ATOM     20  C   UNL     1       2.636   6.659  18.929  0.00  0.00    +0.000 A 
ATOM     21  C   UNL     1       2.072   7.065  20.150  0.00  0.00    +0.000 A 
ENDBRANCH  14  20
ENDBRANCH  13  14
ENDBRANCH   1  13
TORSDOF 4
ENDMDL
