MODEL 1
REMARK VINA RESULT:      -8.0      0.000      0.000
REMARK  Name = 
REMARK  5 active torsions:
REMARK  status: ('A' for Active; 'I' for Inactive)
REMARK    1  A    between atoms: C_2  and  C_3
REMARK    2  A    between atoms: C_3  and  C_4
REMARK    3  A    between atoms: C_9  and  C_11
REMARK    4  A    between atoms: N_19  and  C_20
REMARK    5  A    between atoms: C_23  and  N_24
REMARK                            x       y       z     vdW  Elec       q    Type
REMARK                         _______ _______ _______ _____ _____    ______ ____
ROOT
ATOM      1  O   UNL     1      -1.296  10.503  17.917  0.00  0.00    +0.000 OA
ATOM      2  C   UNL     1      -0.613  11.193  18.672  0.00  0.00    +0.000 C 
ATOM      3  N   UNL     1       0.519  10.759  19.346  0.00  0.00    +0.000 N 
ATOM      4  H   UNL     1       0.849  11.310  20.134  0.00  0.00    +0.000 HD
ENDROOT
BRANCH   3   5
ATOM      5  C   UNL     1       1.189   9.529  19.142  0.00  0.00    +0.000 A 
ATOM      6  C   UNL     1       1.852   9.213  17.956  0.00  0.00    +0.000 A 
ATOM      7  C   UNL     1       2.546   8.004  17.833  0.00  0.00    +0.000 A 
ATOM      8  C   UNL     1       2.557   7.069  18.877  0.00  0.00    +0.000 A 
ATOM      9  C   UNL     1       1.875   7.369  20.059  0.00  0.00    +0.000 A 
ATOM     10  C   UNL     1       1.229   8.601  20.191  0.00  0.00    +0.000 A 
ATOM     11  F   UNL     1       0.636   8.899  21.357  0.00  0.00    +0.000 F 
BRANCH   8  12
ATOM     12  N   UNL     1       3.280   5.846  18.715  0.00  0.00    +0.000 N 
ATOM     13  C   UNL     1       4.589   5.745  19.175  0.00  0.00    +0.000 A 
ATOM     14  C   UNL     1       5.322   4.639  18.996  0.00  0.00    +0.000 A 
ATOM     15  C   UNL     1       4.778   3.532  18.261  0.00  0.00    +0.000 A 
ATOM     16  C   UNL     1       3.522   3.578  17.802  0.00  0.00    +0.000 A 
ATOM     17  C   UNL     1       2.662   4.775  18.042  0.00  0.00    +0.000 A 
ATOM     18  O   UNL     1       1.516   4.761  17.598  0.00  0.00    +0.000 OA
ENDBRANCH   8  12
ENDBRANCH   3   5
BRANCH   2  19
ATOM     19  C   UNL     1      -0.958  12.653  18.908  0.00  0.00    +0.000 C 
BRANCH  19  20
ATOM     20  C   UNL     1       0.065  13.361  19.732  0.00  0.00    +0.000 A 
ATOM     21  C   UNL     1      -0.043  13.787  21.045  0.00  0.00    +0.000 A 
ATOM     22  S   UNL     1       1.417  14.551  21.536  0.00  0.00    +0.000 S 
ATOM     23  C   UNL     1       2.033  14.333  19.963  0.00  0.00    +0.000 A 
ATOM     24  N   UNL     1       3.283  14.851  19.756  0.00  0.00    +0.000 N 
ATOM     25  C   UNL     1       3.808  14.962  18.483  0.00  0.00    +0.000 C 
ATOM     26  O   UNL     1       3.222  14.717  17.432  0.00  0.00    +0.000 OA
ATOM     27  N   UNL     1       1.263  13.693  19.123  0.00  0.00    +0.000 NA
ATOM     28  H   UNL     1       3.748  15.253  20.554  0.00  0.00    +0.000 HD
BRANCH  25  29
ATOM     29  C   UNL     1       5.193  15.486  18.393  0.00  0.00    +0.000 A 
ATOM     30  C   UNL     1       5.559  16.727  18.930  0.00  0.00    +0.000 A 
ATOM     31  C   UNL     1       6.893  17.143  18.871  0.00  0.00    +0.000 A 
ATOM     32  C   UNL     1       7.857  16.320  18.284  0.00  0.00    +0.000 A 
ATOM     33 CL   UNL     1       9.501  16.829  18.237  0.00  0.00    +0.000 Cl
ATOM     34  C   UNL     1       7.503  15.087  17.751  0.00  0.00    +0.000 A 
ATOM     35  C   UNL     1       6.171  14.666  17.811  0.00  0.00    +0.000 A 
ENDBRANCH  25  29
ENDBRANCH  19  20
ENDBRANCH   2  19
TORSDOF 5
ENDMDL
MODEL 2
REMARK VINA RESULT:      -7.9      4.716      9.474
REMARK  Name = 
REMARK  5 active torsions:
REMARK  status: ('A' for Active; 'I' for Inactive)
REMARK    1  A    between atoms: C_2  and  C_3
REMARK    2  A    between atoms: C_3  and  C_4
REMARK    3  A    between atoms: C_9  and  C_11
REMARK    4  A    between atoms: N_19  and  C_20
REMARK    5  A    between atoms: C_23  and  N_24
REMARK                            x       y       z     vdW  Elec       q    Type
REMARK                         _______ _______ _______ _____ _____    ______ ____
ROOT
ATOM      1  O   UNL     1       0.433   4.981  20.212  0.00  0.00    +0.000 OA
ATOM      2  C   UNL     1       1.525   5.116  20.764  0.00  0.00    +0.000 C 
ATOM      3  N   UNL     1       2.257   6.292  20.805  0.00  0.00    +0.000 N 
ATOM      4  H   UNL     1       3.244   6.234  21.045  0.00  0.00    +0.000 HD
ENDROOT
BRANCH   3   5
ATOM      5  C   UNL     1       1.806   7.571  20.396  0.00  0.00    +0.000 A 
ATOM      6  C   UNL     1       1.235   8.491  21.276  0.00  0.00    +0.000 A 
ATOM      7  C   UNL     1       0.859   9.761  20.826  0.00  0.00    +0.000 A 
ATOM      8  C   UNL     1       1.008  10.123  19.480  0.00  0.00    +0.000 A 
ATOM      9  C   UNL     1       1.557   9.198  18.589  0.00  0.00    +0.000 A 
ATOM     10  C   UNL     1       1.977   7.951  19.059  0.00  0.00    +0.000 A 
ATOM     11  F   UNL     1       2.564   7.100  18.202  0.00  0.00    +0.000 F 
BRANCH   8  12
ATOM     12  N   UNL     1       0.615  11.431  19.058  0.00  0.00    +0.000 N 
ATOM     13  C   UNL     1       1.542  12.470  19.056  0.00  0.00    +0.000 A 
ATOM     14  C   UNL     1       1.205  13.721  18.723  0.00  0.00    +0.000 A 
ATOM     15  C   UNL     1      -0.160  14.035  18.407  0.00  0.00    +0.000 A 
ATOM     16  C   UNL     1      -1.088  13.072  18.390  0.00  0.00    +0.000 A 
ATOM     17  C   UNL     1      -0.727  11.655  18.698  0.00  0.00    +0.000 A 
ATOM     18  O   UNL     1      -1.620  10.812  18.666  0.00  0.00    +0.000 OA
ENDBRANCH   8  12
ENDBRANCH   3   5
BRANCH   2  19
ATOM     19  C   UNL     1       2.164   3.955  21.504  0.00  0.00    +0.000 C 
BRANCH  19  20
ATOM     20  C   UNL     1       3.061   3.141  20.631  0.00  0.00    +0.000 A 
ATOM     21  C   UNL     1       3.598   1.891  20.890  0.00  0.00    +0.000 A 
ATOM     22  S   UNL     1       4.568   1.383  19.563  0.00  0.00    +0.000 S 
ATOM     23  C   UNL     1       4.268   2.878  18.803  0.00  0.00    +0.000 A 
ATOM     24  N   UNL     1       4.903   3.051  17.602  0.00  0.00    +0.000 N 
ATOM     25  C   UNL     1       4.949   4.289  16.991  0.00  0.00    +0.000 C 
ATOM     26  O   UNL     1       4.537   5.346  17.461  0.00  0.00    +0.000 OA
ATOM     27  N   UNL     1       3.467   3.697  19.431  0.00  0.00    +0.000 NA
ATOM     28  H   UNL     1       5.431   2.270  17.248  0.00  0.00    +0.000 HD
BRANCH  25  29
ATOM     29  C   UNL     1       5.615   4.337  15.667  0.00  0.00    +0.000 A 
ATOM     30  C   UNL     1       5.076   3.711  14.536  0.00  0.00    +0.000 A 
ATOM     31  C   UNL     1       5.715   3.841  13.298  0.00  0.00    +0.000 A 
ATOM     32  C   UNL     1       6.884   4.599  13.191  0.00  0.00    +0.000 A 
ATOM     33 CL   UNL     1       7.651   4.775  11.660  0.00  0.00    +0.000 Cl
ATOM     34  C   UNL     1       7.424   5.226  14.307  0.00  0.00    +0.000 A 
ATOM     35  C   UNL     1       6.786   5.101  15.546  0.00  0.00    +0.000 A 
ENDBRANCH  25  29
ENDBRANCH  19  20
ENDBRANCH   2  19
TORSDOF 5
ENDMDL
MODEL 3
REMARK VINA RESULT:      -7.7      4.849      9.529
REMARK  Name = 
REMARK  5 active torsions:
REMARK  status: ('A' for Active; 'I' for Inactive)
REMARK    1  A    between atoms: C_2  and  C_3
REMARK    2  A    between atoms: C_3  and  C_4
REMARK    3  A    between atoms: C_9  and  C_11
REMARK    4  A    between atoms: N_19  and  C_20
REMARK    5  A    between atoms: C_23  and  N_24
REMARK                            x       y       z     vdW  Elec       q    Type
REMARK                         _______ _______ _______ _____ _____    ______ ____
ROOT
ATOM      1  O   UNL     1       0.423   4.976  20.202  0.00  0.00    +0.000 OA
ATOM      2  C   UNL     1       1.455   5.113  20.857  0.00  0.00    +0.000 C 
ATOM      3  N   UNL     1       2.127   6.311  21.045  0.00  0.00    +0.000 N 
ATOM      4  H   UNL     1       3.091   6.274  21.369  0.00  0.00    +0.000 HD
ENDROOT
BRANCH   3   5
ATOM      5  C   UNL     1       1.656   7.597  20.686  0.00  0.00    +0.000 A 
ATOM      6  C   UNL     1       0.985   8.435  21.577  0.00  0.00    +0.000 A 
ATOM      7  C   UNL     1       0.592   9.719  21.182  0.00  0.00    +0.000 A 
ATOM      8  C   UNL     1       0.825  10.175  19.878  0.00  0.00    +0.000 A 
ATOM      9  C   UNL     1       1.475   9.332  18.973  0.00  0.00    +0.000 A 
ATOM     10  C   UNL     1       1.909   8.072  19.393  0.00  0.00    +0.000 A 
ATOM     11  F   UNL     1       2.591   7.301  18.530  0.00  0.00    +0.000 F 
BRANCH   8  12
ATOM     12  N   UNL     1       0.412  11.494  19.512  0.00  0.00    +0.000 N 
ATOM     13  C   UNL     1      -0.568  11.674  18.541  0.00  0.00    +0.000 A 
ATOM     14  C   UNL     1      -0.945  12.890  18.128  0.00  0.00    +0.000 A 
ATOM     15  C   UNL     1      -0.293  14.057  18.652  0.00  0.00    +0.000 A 
ATOM     16  C   UNL     1       0.652  13.938  19.591  0.00  0.00    +0.000 A 
ATOM     17  C   UNL     1       1.049  12.596  20.114  0.00  0.00    +0.000 A 
ATOM     18  O   UNL     1       1.922  12.548  20.977  0.00  0.00    +0.000 OA
ENDBRANCH   8  12
ENDBRANCH   3   5
BRANCH   2  19
ATOM     19  C   UNL     1       2.079   3.927  21.571  0.00  0.00    +0.000 C 
BRANCH  19  20
ATOM     20  C   UNL     1       3.021   3.163  20.700  0.00  0.00    +0.000 A 
ATOM     21  C   UNL     1       3.615   1.938  20.954  0.00  0.00    +0.000 A 
ATOM     22  S   UNL     1       4.618   1.487  19.632  0.00  0.00    +0.000 S 
ATOM     23  C   UNL     1       4.254   2.971  18.879  0.00  0.00    +0.000 A 
ATOM     24  N   UNL     1       4.889   3.183  17.685  0.00  0.00    +0.000 N 
ATOM     25  C   UNL     1       4.881   4.427  17.084  0.00  0.00    +0.000 C 
ATOM     26  O   UNL     1       4.416   5.459  17.557  0.00  0.00    +0.000 OA
ATOM     27  N   UNL     1       3.409   3.746  19.506  0.00  0.00    +0.000 NA
ATOM     28  H   UNL     1       5.456   2.431  17.330  0.00  0.00    +0.000 HD
BRANCH  25  29
ATOM     29  C   UNL     1       5.555   4.516  15.765  0.00  0.00    +0.000 A 
ATOM     30  C   UNL     1       6.817   5.104  15.610  0.00  0.00    +0.000 A 
ATOM     31  C   UNL     1       7.433   5.105  14.353  0.00  0.00    +0.000 A 
ATOM     32  C   UNL     1       6.793   4.517  13.260  0.00  0.00    +0.000 A 
ATOM     33 CL   UNL     1       7.568   4.502  11.723  0.00  0.00    +0.000 Cl
ATOM     34  C   UNL     1       5.542   3.930  13.406  0.00  0.00    +0.000 A 
ATOM     35  C   UNL     1       4.924   3.924  14.661  0.00  0.00    +0.000 A 
ENDBRANCH  25  29
ENDBRANCH  19  20
ENDBRANCH   2  19
TORSDOF 5
ENDMDL
MODEL 4
REMARK VINA RESULT:      -7.7      5.040      8.977
REMARK  Name = 
REMARK  5 active torsions:
REMARK  status: ('A' for Active; 'I' for Inactive)
REMARK    1  A    between atoms: C_2  and  C_3
REMARK    2  A    between atoms: C_3  and  C_4
REMARK    3  A    between atoms: C_9  and  C_11
REMARK    4  A    between atoms: N_19  and  C_20
REMARK    5  A    between atoms: C_23  and  N_24
REMARK                            x       y       z     vdW  Elec       q    Type
REMARK                         _______ _______ _______ _____ _____    ______ ____
ROOT
ATOM      1  O   UNL     1       5.583   6.646  15.554  0.00  0.00    +0.000 OA
ATOM      2  C   UNL     1       5.697   5.904  16.528  0.00  0.00    +0.000 C 
ATOM      3  N   UNL     1       6.551   6.119  17.599  0.00  0.00    +0.000 N 
ATOM      4  H   UNL     1       6.764   5.333  18.208  0.00  0.00    +0.000 HD
ENDROOT
BRANCH   3   5
ATOM      5  C   UNL     1       7.289   7.300  17.853  0.00  0.00    +0.000 A 
ATOM      6  C   UNL     1       7.035   8.508  17.203  0.00  0.00    +0.000 A 
ATOM      7  C   UNL     1       7.760   9.658  17.536  0.00  0.00    +0.000 A 
ATOM      8  C   UNL     1       8.781   9.614  18.495  0.00  0.00    +0.000 A 
ATOM      9  C   UNL     1       9.056   8.402  19.134  0.00  0.00    +0.000 A 
ATOM     10  C   UNL     1       8.292   7.273  18.831  0.00  0.00    +0.000 A 
ATOM     11  F   UNL     1       8.526   6.133  19.502  0.00  0.00    +0.000 F 
BRANCH   8  12
ATOM     12  N   UNL     1       9.497  10.810  18.811  0.00  0.00    +0.000 N 
ATOM     13  C   UNL     1      10.102  11.548  17.799  0.00  0.00    +0.000 A 
ATOM     14  C   UNL     1      10.829  12.643  18.054  0.00  0.00    +0.000 A 
ATOM     15  C   UNL     1      11.049  13.055  19.413  0.00  0.00    +0.000 A 
ATOM     16  C   UNL     1      10.484  12.382  20.422  0.00  0.00    +0.000 A 
ATOM     17  C   UNL     1       9.618  11.193  20.161  0.00  0.00    +0.000 A 
ATOM     18  O   UNL     1       9.125  10.615  21.126  0.00  0.00    +0.000 OA
ENDBRANCH   8  12
ENDBRANCH   3   5
BRANCH   2  19
ATOM     19  C   UNL     1       4.844   4.654  16.650  0.00  0.00    +0.000 C 
BRANCH  19  20
ATOM     20  C   UNL     1       4.010   4.645  17.889  0.00  0.00    +0.000 A 
ATOM     21  C   UNL     1       3.649   3.557  18.666  0.00  0.00    +0.000 A 
ATOM     22  S   UNL     1       2.680   4.077  19.988  0.00  0.00    +0.000 S 
ATOM     23  C   UNL     1       2.747   5.668  19.381  0.00  0.00    +0.000 A 
ATOM     24  N   UNL     1       2.031   6.589  20.097  0.00  0.00    +0.000 N 
ATOM     25  C   UNL     1       1.796   7.855  19.598  0.00  0.00    +0.000 C 
ATOM     26  O   UNL     1       2.097   8.262  18.480  0.00  0.00    +0.000 OA
ATOM     27  N   UNL     1       3.472   5.848  18.310  0.00  0.00    +0.000 NA
ATOM     28  H   UNL     1       1.586   6.265  20.941  0.00  0.00    +0.000 HD
BRANCH  25  29
ATOM     29  C   UNL     1       1.057   8.780  20.492  0.00  0.00    +0.000 A 
ATOM     30  C   UNL     1       1.033   8.616  21.883  0.00  0.00    +0.000 A 
ATOM     31  C   UNL     1       0.371   9.555  22.682  0.00  0.00    +0.000 A 
ATOM     32  C   UNL     1      -0.257  10.655  22.094  0.00  0.00    +0.000 A 
ATOM     33 CL   UNL     1      -1.048  11.818  23.087  0.00  0.00    +0.000 Cl
ATOM     34  C   UNL     1      -0.236  10.827  20.716  0.00  0.00    +0.000 A 
ATOM     35  C   UNL     1       0.427   9.892  19.913  0.00  0.00    +0.000 A 
ENDBRANCH  25  29
ENDBRANCH  19  20
ENDBRANCH   2  19
TORSDOF 5
ENDMDL
MODEL 5
REMARK VINA RESULT:      -7.7      0.726      1.116
REMARK  Name = 
REMARK  5 active torsions:
REMARK  status: ('A' for Active; 'I' for Inactive)
REMARK    1  A    between atoms: C_2  and  C_3
REMARK    2  A    between atoms: C_3  and  C_4
REMARK    3  A    between atoms: C_9  and  C_11
REMARK    4  A    between atoms: N_19  and  C_20
REMARK    5  A    between atoms: C_23  and  N_24
REMARK                            x       y       z     vdW  Elec       q    Type
REMARK                         _______ _______ _______ _____ _____    ______ ____
ROOT
ATOM      1  O   UNL     1      -1.120  10.423  19.371  0.00  0.00    +0.000 OA
ATOM      2  C   UNL     1      -0.130  11.138  19.220  0.00  0.00    +0.000 C 
ATOM      3  N   UNL     1       1.177  10.683  19.127  0.00  0.00    +0.000 N 
ATOM      4  H   UNL     1       1.929  11.351  19.271  0.00  0.00    +0.000 HD
ENDROOT
BRANCH   3   5
ATOM      5  C   UNL     1       1.581   9.332  18.998  0.00  0.00    +0.000 A 
ATOM      6  C   UNL     1       2.039   8.788  17.797  0.00  0.00    +0.000 A 
ATOM      7  C   UNL     1       2.480   7.461  17.743  0.00  0.00    +0.000 A 
ATOM      8  C   UNL     1       2.433   6.639  18.877  0.00  0.00    +0.000 A 
ATOM      9  C   UNL     1       1.953   7.170  20.077  0.00  0.00    +0.000 A 
ATOM     10  C   UNL     1       1.565   8.511  20.133  0.00  0.00    +0.000 A 
ATOM     11  F   UNL     1       1.169   9.022  21.310  0.00  0.00    +0.000 F 
BRANCH   8  12
ATOM     12  N   UNL     1       2.895   5.289  18.783  0.00  0.00    +0.000 N 
ATOM     13  C   UNL     1       4.075   4.912  19.417  0.00  0.00    +0.000 A 
ATOM     14  C   UNL     1       4.574   3.674  19.310  0.00  0.00    +0.000 A 
ATOM     15  C   UNL     1       3.916   2.706  18.477  0.00  0.00    +0.000 A 
ATOM     16  C   UNL     1       2.776   3.019  17.852  0.00  0.00    +0.000 A 
ATOM     17  C   UNL     1       2.165   4.373  18.003  0.00  0.00    +0.000 A 
ATOM     18  O   UNL     1       1.115   4.604  17.405  0.00  0.00    +0.000 OA
ENDBRANCH   8  12
ENDBRANCH   3   5
BRANCH   2  19
ATOM     19  C   UNL     1      -0.278  12.643  19.086  0.00  0.00    +0.000 C 
BRANCH  19  20
ATOM     20  C   UNL     1       0.730  13.394  19.892  0.00  0.00    +0.000 A 
ATOM     21  C   UNL     1       0.608  13.861  21.190  0.00  0.00    +0.000 A 
ATOM     22  S   UNL     1       2.053  14.665  21.662  0.00  0.00    +0.000 S 
ATOM     23  C   UNL     1       2.680  14.407  20.099  0.00  0.00    +0.000 A 
ATOM     24  N   UNL     1       3.922  14.940  19.881  0.00  0.00    +0.000 N 
ATOM     25  C   UNL     1       4.450  15.020  18.607  0.00  0.00    +0.000 C 
ATOM     26  O   UNL     1       3.874  14.731  17.563  0.00  0.00    +0.000 OA
ATOM     27  N   UNL     1       1.924  13.728  19.278  0.00  0.00    +0.000 NA
ATOM     28  H   UNL     1       4.376  15.375  20.667  0.00  0.00    +0.000 HD
BRANCH  25  29
ATOM     29  C   UNL     1       5.826  15.564  18.506  0.00  0.00    +0.000 A 
ATOM     30  C   UNL     1       6.851  14.885  17.835  0.00  0.00    +0.000 A 
ATOM     31  C   UNL     1       8.114  15.474  17.717  0.00  0.00    +0.000 A 
ATOM     32  C   UNL     1       8.350  16.738  18.262  0.00  0.00    +0.000 A 
ATOM     33 CL   UNL     1       9.900  17.467  18.092  0.00  0.00    +0.000 Cl
ATOM     34  C   UNL     1       7.339  17.420  18.928  0.00  0.00    +0.000 A 
ATOM     35  C   UNL     1       6.073  16.836  19.045  0.00  0.00    +0.000 A 
ENDBRANCH  25  29
ENDBRANCH  19  20
ENDBRANCH   2  19
TORSDOF 5
ENDMDL
MODEL 6
REMARK VINA RESULT:      -7.5      2.089      2.576
REMARK  Name = 
REMARK  5 active torsions:
REMARK  status: ('A' for Active; 'I' for Inactive)
REMARK    1  A    between atoms: C_2  and  C_3
REMARK    2  A    between atoms: C_3  and  C_4
REMARK    3  A    between atoms: C_9  and  C_11
REMARK    4  A    between atoms: N_19  and  C_20
REMARK    5  A    between atoms: C_23  and  N_24
REMARK                            x       y       z     vdW  Elec       q    Type
REMARK                         _______ _______ _______ _____ _____    ______ ____
ROOT
ATOM      1  O   UNL     1       0.405   9.682  23.262  0.00  0.00    +0.000 OA
ATOM      2  C   UNL     1      -0.168  10.344  22.398  0.00  0.00    +0.000 C 
ATOM      3  N   UNL     1       0.062  10.246  21.034  0.00  0.00    +0.000 N 
ATOM      4  H   UNL     1      -0.258  11.005  20.438  0.00  0.00    +0.000 HD
ENDROOT
BRANCH   3   5
ATOM      5  C   UNL     1       0.840   9.254  20.389  0.00  0.00    +0.000 A 
ATOM      6  C   UNL     1       1.258   8.085  21.025  0.00  0.00    +0.000 A 
ATOM      7  C   UNL     1       1.977   7.114  20.320  0.00  0.00    +0.000 A 
ATOM      8  C   UNL     1       2.329   7.310  18.978  0.00  0.00    +0.000 A 
ATOM      9  C   UNL     1       1.934   8.489  18.341  0.00  0.00    +0.000 A 
ATOM     10  C   UNL     1       1.171   9.429  19.039  0.00  0.00    +0.000 A 
ATOM     11  F   UNL     1       0.744  10.525  18.392  0.00  0.00    +0.000 F 
BRANCH   8  12
ATOM     12  N   UNL     1       3.062   6.293  18.290  0.00  0.00    +0.000 N 
ATOM     13  C   UNL     1       4.254   6.608  17.645  0.00  0.00    +0.000 A 
ATOM     14  C   UNL     1       4.943   5.701  16.943  0.00  0.00    +0.000 A 
ATOM     15  C   UNL     1       4.426   4.369  16.791  0.00  0.00    +0.000 A 
ATOM     16  C   UNL     1       3.287   4.015  17.395  0.00  0.00    +0.000 A 
ATOM     17  C   UNL     1       2.529   4.991  18.236  0.00  0.00    +0.000 A 
ATOM     18  O   UNL     1       1.489   4.609  18.767  0.00  0.00    +0.000 OA
ENDBRANCH   8  12
ENDBRANCH   3   5
BRANCH   2  19
ATOM     19  C   UNL     1      -1.246  11.344  22.779  0.00  0.00    +0.000 C 
BRANCH  19  20
ATOM     20  C   UNL     1      -0.798  12.759  22.624  0.00  0.00    +0.000 A 
ATOM     21  C   UNL     1      -1.466  13.912  23.003  0.00  0.00    +0.000 A 
ATOM     22  S   UNL     1      -0.523  15.294  22.604  0.00  0.00    +0.000 S 
ATOM     23  C   UNL     1       0.638  14.268  21.895  0.00  0.00    +0.000 A 
ATOM     24  N   UNL     1       1.699  14.912  21.318  0.00  0.00    +0.000 N 
ATOM     25  C   UNL     1       2.587  14.236  20.504  0.00  0.00    +0.000 C 
ATOM     26  O   UNL     1       2.492  13.068  20.138  0.00  0.00    +0.000 OA
ATOM     27  N   UNL     1       0.405  12.986  21.979  0.00  0.00    +0.000 NA
ATOM     28  H   UNL     1       1.734  15.914  21.416  0.00  0.00    +0.000 HD
BRANCH  25  29
ATOM     29  C   UNL     1       3.728  15.029  19.984  0.00  0.00    +0.000 A 
ATOM     30  C   UNL     1       3.580  15.960  18.949  0.00  0.00    +0.000 A 
ATOM     31  C   UNL     1       4.677  16.726  18.540  0.00  0.00    +0.000 A 
ATOM     32  C   UNL     1       5.915  16.564  19.168  0.00  0.00    +0.000 A 
ATOM     33 CL   UNL     1       7.254  17.527  18.676  0.00  0.00    +0.000 Cl
ATOM     34  C   UNL     1       6.070  15.644  20.197  0.00  0.00    +0.000 A 
ATOM     35  C   UNL     1       4.974  14.879  20.611  0.00  0.00    +0.000 A 
ENDBRANCH  25  29
ENDBRANCH  19  20
ENDBRANCH   2  19
TORSDOF 5
ENDMDL
MODEL 7
REMARK VINA RESULT:      -7.5      5.379     10.166
REMARK  Name = 
REMARK  5 active torsions:
REMARK  status: ('A' for Active; 'I' for Inactive)
REMARK    1  A    between atoms: C_2  and  C_3
REMARK    2  A    between atoms: C_3  and  C_4
REMARK    3  A    between atoms: C_9  and  C_11
REMARK    4  A    between atoms: N_19  and  C_20
REMARK    5  A    between atoms: C_23  and  N_24
REMARK                            x       y       z     vdW  Elec       q    Type
REMARK                         _______ _______ _______ _____ _____    ______ ____
ROOT
ATOM      1  O   UNL     1       0.255   9.984  23.859  0.00  0.00    +0.000 OA
ATOM      2  C   UNL     1      -0.352   9.821  22.801  0.00  0.00    +0.000 C 
ATOM      3  N   UNL     1      -1.267  10.711  22.261  0.00  0.00    +0.000 N 
ATOM      4  H   UNL     1      -1.899  10.372  21.540  0.00  0.00    +0.000 HD
ENDROOT
BRANCH   3   5
ATOM      5  C   UNL     1      -1.521  12.027  22.720  0.00  0.00    +0.000 A 
ATOM      6  C   UNL     1      -2.635  12.360  23.491  0.00  0.00    +0.000 A 
ATOM      7  C   UNL     1      -2.803  13.666  23.964  0.00  0.00    +0.000 A 
ATOM      8  C   UNL     1      -1.885  14.674  23.642  0.00  0.00    +0.000 A 
ATOM      9  C   UNL     1      -0.779  14.353  22.850  0.00  0.00    +0.000 A 
ATOM     10  C   UNL     1      -0.593  13.034  22.426  0.00  0.00    +0.000 A 
ATOM     11  F   UNL     1       0.509  12.730  21.723  0.00  0.00    +0.000 F 
BRANCH   8  12
ATOM     12  N   UNL     1      -2.089  15.996  24.146  0.00  0.00    +0.000 N 
ATOM     13  C   UNL     1      -1.598  16.347  25.401  0.00  0.00    +0.000 A 
ATOM     14  C   UNL     1      -1.814  17.554  25.936  0.00  0.00    +0.000 A 
ATOM     15  C   UNL     1      -2.620  18.514  25.235  0.00  0.00    +0.000 A 
ATOM     16  C   UNL     1      -3.111  18.227  24.024  0.00  0.00    +0.000 A 
ATOM     17  C   UNL     1      -2.834  16.910  23.377  0.00  0.00    +0.000 A 
ATOM     18  O   UNL     1      -3.310  16.702  22.263  0.00  0.00    +0.000 OA
ENDBRANCH   8  12
ENDBRANCH   3   5
BRANCH   2  19
ATOM     19  C   UNL     1      -0.106   8.587  21.952  0.00  0.00    +0.000 C 
BRANCH  19  20
ATOM     20  C   UNL     1       0.595   8.900  20.671  0.00  0.00    +0.000 A 
ATOM     21  C   UNL     1       0.488  10.044  19.898  0.00  0.00    +0.000 A 
ATOM     22  S   UNL     1       1.503   9.914  18.516  0.00  0.00    +0.000 S 
ATOM     23  C   UNL     1       1.929   8.338  19.005  0.00  0.00    +0.000 A 
ATOM     24  N   UNL     1       2.772   7.678  18.152  0.00  0.00    +0.000 N 
ATOM     25  C   UNL     1       3.010   6.325  18.290  0.00  0.00    +0.000 C 
ATOM     26  O   UNL     1       2.458   5.567  19.084  0.00  0.00    +0.000 OA
ATOM     27  N   UNL     1       1.419   7.926  20.135  0.00  0.00    +0.000 NA
ATOM     28  H   UNL     1       3.112   8.194  17.357  0.00  0.00    +0.000 HD
BRANCH  25  29
ATOM     29  C   UNL     1       3.986   5.735  17.342  0.00  0.00    +0.000 A 
ATOM     30  C   UNL     1       4.167   4.352  17.219  0.00  0.00    +0.000 A 
ATOM     31  C   UNL     1       5.057   3.849  16.263  0.00  0.00    +0.000 A 
ATOM     32  C   UNL     1       5.758   4.725  15.431  0.00  0.00    +0.000 A 
ATOM     33 CL   UNL     1       6.833   4.098  14.242  0.00  0.00    +0.000 Cl
ATOM     34  C   UNL     1       5.583   6.099  15.545  0.00  0.00    +0.000 A 
ATOM     35  C   UNL     1       4.692   6.605  16.497  0.00  0.00    +0.000 A 
ENDBRANCH  25  29
ENDBRANCH  19  20
ENDBRANCH   2  19
TORSDOF 5
ENDMDL
MODEL 8
REMARK VINA RESULT:      -7.5      1.403      2.004
REMARK  Name = 
REMARK  5 active torsions:
REMARK  status: ('A' for Active; 'I' for Inactive)
REMARK    1  A    between atoms: C_2  and  C_3
REMARK    2  A    between atoms: C_3  and  C_4
REMARK    3  A    between atoms: C_9  and  C_11
REMARK    4  A    between atoms: N_19  and  C_20
REMARK    5  A    between atoms: C_23  and  N_24
REMARK                            x       y       z     vdW  Elec       q    Type
REMARK                         _______ _______ _______ _____ _____    ______ ____
ROOT
ATOM      1  O   UNL     1      -0.787  10.127  17.879  0.00  0.00    +0.000 OA
ATOM      2  C   UNL     1      -0.056  10.830  18.576  0.00  0.00    +0.000 C 
ATOM      3  N   UNL     1       0.959  10.360  19.395  0.00  0.00    +0.000 N 
ATOM      4  H   UNL     1       1.318  10.979  20.117  0.00  0.00    +0.000 HD
ENDROOT
BRANCH   3   5
ATOM      5  C   UNL     1       1.454   9.033  19.431  0.00  0.00    +0.000 A 
ATOM      6  C   UNL     1       1.350   8.215  20.556  0.00  0.00    +0.000 A 
ATOM      7  C   UNL     1       1.807   6.893  20.514  0.00  0.00    +0.000 A 
ATOM      8  C   UNL     1       2.413   6.375  19.361  0.00  0.00    +0.000 A 
ATOM      9  C   UNL     1       2.541   7.197  18.238  0.00  0.00    +0.000 A 
ATOM     10  C   UNL     1       2.035   8.499  18.274  0.00  0.00    +0.000 A 
ATOM     11  F   UNL     1       2.108   9.252  17.164  0.00  0.00    +0.000 F 
BRANCH   8  12
ATOM     12  N   UNL     1       2.864   5.018  19.356  0.00  0.00    +0.000 N 
ATOM     13  C   UNL     1       1.942   3.977  19.399  0.00  0.00    +0.000 A 
ATOM     14  C   UNL     1       2.320   2.695  19.451  0.00  0.00    +0.000 A 
ATOM     15  C   UNL     1       3.716   2.362  19.521  0.00  0.00    +0.000 A 
ATOM     16  C   UNL     1       4.642   3.327  19.477  0.00  0.00    +0.000 A 
ATOM     17  C   UNL     1       4.249   4.762  19.357  0.00  0.00    +0.000 A 
ATOM     18  O   UNL     1       5.142   5.605  19.320  0.00  0.00    +0.000 OA
ENDBRANCH   8  12
ENDBRANCH   3   5
BRANCH   2  19
ATOM     19  C   UNL     1      -0.199  12.342  18.564  0.00  0.00    +0.000 C 
BRANCH  19  20
ATOM     20  C   UNL     1       0.781  13.019  19.463  0.00  0.00    +0.000 A 
ATOM     21  C   UNL     1       0.635  13.331  20.804  0.00  0.00    +0.000 A 
ATOM     22  S   UNL     1       2.055  14.110  21.383  0.00  0.00    +0.000 S 
ATOM     23  C   UNL     1       2.704  14.047  19.809  0.00  0.00    +0.000 A 
ATOM     24  N   UNL     1       3.934  14.631  19.669  0.00  0.00    +0.000 N 
ATOM     25  C   UNL     1       4.473  14.868  18.420  0.00  0.00    +0.000 C 
ATOM     26  O   UNL     1       3.915  14.687  17.342  0.00  0.00    +0.000 OA
ATOM     27  N   UNL     1       1.974  13.449  18.906  0.00  0.00    +0.000 NA
ATOM     28  H   UNL     1       4.370  14.984  20.506  0.00  0.00    +0.000 HD
BRANCH  25  29
ATOM     29  C   UNL     1       5.836  15.452  18.399  0.00  0.00    +0.000 A 
ATOM     30  C   UNL     1       6.932  14.775  17.849  0.00  0.00    +0.000 A 
ATOM     31  C   UNL     1       8.183  15.400  17.800  0.00  0.00    +0.000 A 
ATOM     32  C   UNL     1       8.336  16.697  18.294  0.00  0.00    +0.000 A 
ATOM     33 CL   UNL     1       9.873  17.468  18.209  0.00  0.00    +0.000 Cl
ATOM     34  C   UNL     1       7.255  17.377  18.841  0.00  0.00    +0.000 A 
ATOM     35  C   UNL     1       6.001  16.757  18.888  0.00  0.00    +0.000 A 
ENDBRANCH  25  29
ENDBRANCH  19  20
ENDBRANCH   2  19
TORSDOF 5
ENDMDL
MODEL 9
REMARK VINA RESULT:      -7.4      1.252      1.659
REMARK  Name = 
REMARK  5 active torsions:
REMARK  status: ('A' for Active; 'I' for Inactive)
REMARK    1  A    between atoms: C_2  and  C_3
REMARK    2  A    between atoms: C_3  and  C_4
REMARK    3  A    between atoms: C_9  and  C_11
REMARK    4  A    between atoms: N_19  and  C_20
REMARK    5  A    between atoms: C_23  and  N_24
REMARK                            x       y       z     vdW  Elec       q    Type
REMARK                         _______ _______ _______ _____ _____    ______ ____
ROOT
ATOM      1  O   UNL     1      -1.170  10.178  18.104  0.00  0.00    +0.000 OA
ATOM      2  C   UNL     1      -0.534  10.952  18.819  0.00  0.00    +0.000 C 
ATOM      3  N   UNL     1       0.514  10.590  19.651  0.00  0.00    +0.000 N 
ATOM      4  H   UNL     1       0.790  11.239  20.384  0.00  0.00    +0.000 HD
ENDROOT
BRANCH   3   5
ATOM      5  C   UNL     1       1.153   9.327  19.686  0.00  0.00    +0.000 A 
ATOM      6  C   UNL     1       1.117   8.488  20.800  0.00  0.00    +0.000 A 
ATOM      7  C   UNL     1       1.720   7.226  20.757  0.00  0.00    +0.000 A 
ATOM      8  C   UNL     1       2.406   6.794  19.614  0.00  0.00    +0.000 A 
ATOM      9  C   UNL     1       2.466   7.638  18.503  0.00  0.00    +0.000 A 
ATOM     10  C   UNL     1       1.817   8.875  18.538  0.00  0.00    +0.000 A 
ATOM     11  F   UNL     1       1.829   9.645  17.438  0.00  0.00    +0.000 F 
BRANCH   8  12
ATOM     12  N   UNL     1       3.006   5.496  19.606  0.00  0.00    +0.000 N 
ATOM     13  C   UNL     1       4.347   5.350  19.262  0.00  0.00    +0.000 A 
ATOM     14  C   UNL     1       4.934   4.151  19.186  0.00  0.00    +0.000 A 
ATOM     15  C   UNL     1       4.163   2.960  19.412  0.00  0.00    +0.000 A 
ATOM     16  C   UNL     1       2.872   3.047  19.751  0.00  0.00    +0.000 A 
ATOM     17  C   UNL     1       2.206   4.376  19.901  0.00  0.00    +0.000 A 
ATOM     18  O   UNL     1       1.018   4.395  20.216  0.00  0.00    +0.000 OA
ENDBRANCH   8  12
ENDBRANCH   3   5
BRANCH   2  19
ATOM     19  C   UNL     1      -0.845  12.438  18.815  0.00  0.00    +0.000 C 
BRANCH  19  20
ATOM     20  C   UNL     1       0.056  13.216  19.716  0.00  0.00    +0.000 A 
ATOM     21  C   UNL     1      -0.253  13.803  20.931  0.00  0.00    +0.000 A 
ATOM     22  S   UNL     1       1.137  14.586  21.575  0.00  0.00    +0.000 S 
ATOM     23  C   UNL     1       1.999  14.160  20.168  0.00  0.00    +0.000 A 
ATOM     24  N   UNL     1       3.288  14.619  20.122  0.00  0.00    +0.000 N 
ATOM     25  C   UNL     1       4.024  14.561  18.954  0.00  0.00    +0.000 C 
ATOM     26  O   UNL     1       3.614  14.203  17.854  0.00  0.00    +0.000 OA
ATOM     27  N   UNL     1       1.353  13.442  19.288  0.00  0.00    +0.000 NA
ATOM     28  H   UNL     1       3.629  15.104  20.935  0.00  0.00    +0.000 HD
BRANCH  25  29
ATOM     29  C   UNL     1       5.426  15.035  19.045  0.00  0.00    +0.000 A 
ATOM     30  C   UNL     1       6.292  15.023  17.944  0.00  0.00    +0.000 A 
ATOM     31  C   UNL     1       7.586  15.541  18.070  0.00  0.00    +0.000 A 
ATOM     32  C   UNL     1       8.010  16.073  19.291  0.00  0.00    +0.000 A 
ATOM     33 CL   UNL     1       9.594  16.729  19.432  0.00  0.00    +0.000 Cl
ATOM     34  C   UNL     1       7.157  16.090  20.388  0.00  0.00    +0.000 A 
ATOM     35  C   UNL     1       5.861  15.577  20.264  0.00  0.00    +0.000 A 
ENDBRANCH  25  29
ENDBRANCH  19  20
ENDBRANCH   2  19
TORSDOF 5
ENDMDL
