MODEL 1
REMARK VINA RESULT:      -7.9      0.000      0.000
REMARK  Name = 
REMARK  7 active torsions:
REMARK  status: ('A' for Active; 'I' for Inactive)
REMARK    1  A    between atoms: C_1  and  O_2
REMARK    2  A    between atoms: O_2  and  C_3
REMARK    3  A    between atoms: C_7  and  C_8
REMARK    4  A    between atoms: C_11  and  N_12
REMARK    5  A    between atoms: C_15  and  N_16
REMARK    6  A    between atoms: N_16  and  C_17
REMARK    7  A    between atoms: C_17  and  C_18
REMARK                            x       y       z     vdW  Elec       q    Type
REMARK                         _______ _______ _______ _____ _____    ______ ____
ROOT
ATOM      1  C   UNL     1       1.207   8.646  20.157  0.00  0.00    +0.000 A 
ATOM      2  C   UNL     1       1.578   8.969  18.845  0.00  0.00    +0.000 A 
ATOM      3  C   UNL     1       2.372   8.108  18.077  0.00  0.00    +0.000 A 
ATOM      4  C   UNL     1       2.824   6.882  18.575  0.00  0.00    +0.000 A 
ATOM      5  C   UNL     1       2.430   6.550  19.876  0.00  0.00    +0.000 A 
ATOM      6  C   UNL     1       1.649   7.412  20.654  0.00  0.00    +0.000 A 
ENDROOT
BRANCH   1  11
ATOM      7  C   UNL     1      -0.645  11.757  21.320  0.00  0.00    +0.000 A 
ATOM      8  C   UNL     1      -1.072  11.359  22.586  0.00  0.00    +0.000 A 
ATOM      9  C   UNL     1      -0.776  10.084  23.060  0.00  0.00    +0.000 A 
ATOM     10  C   UNL     1      -0.054   9.196  22.264  0.00  0.00    +0.000 A 
ATOM     11  C   UNL     1       0.407   9.570  20.990  0.00  0.00    +0.000 A 
ATOM     12  C   UNL     1       0.097  10.869  20.538  0.00  0.00    +0.000 A 
BRANCH   7  14
ATOM     13  C   UNL     1      -0.840  13.380  19.595  0.00  0.00    +0.000 C 
ATOM     14  O   UNL     1      -1.006  13.028  20.964  0.00  0.00    +0.000 OA
ENDBRANCH   7  14
ENDBRANCH   1  11
BRANCH   4  15
ATOM     15  N   UNL     1       3.629   6.042  17.833  0.00  0.00    +0.000 N 
ATOM     16  C   UNL     1       3.504   4.587  17.915  0.00  0.00    +0.000 C 
ATOM     17  C   UNL     1       4.818   3.990  18.404  0.00  0.00    +0.000 C 
ATOM     18  C   UNL     1       6.007   4.445  17.537  0.00  0.00    +0.000 C 
ATOM     19  C   UNL     1       6.039   5.978  17.491  0.00  0.00    +0.000 C 
ATOM     20  C   UNL     1       4.716   6.567  17.007  0.00  0.00    +0.000 C 
BRANCH  18  21
ATOM     21  N   UNL     1       5.924   3.804  16.213  0.00  0.00    +0.000 NA
ATOM     22  H   UNL     1       4.994   3.935  15.814  0.00  0.00    +0.000 HD
BRANCH  21  23
ATOM     23  C   UNL     1       6.910   4.288  15.242  0.00  0.00    +0.000 C 
BRANCH  23  24
ATOM     24  C   UNL     1       6.318   4.875  13.947  0.00  0.00    +0.000 C 
ATOM     25  C   UNL     1       7.290   4.837  12.774  0.00  0.00    +0.000 C 
ATOM     26  C   UNL     1       7.003   3.490  12.163  0.00  0.00    +0.000 C 
ATOM     27  C   UNL     1       5.507   3.376  12.351  0.00  0.00    +0.000 C 
ATOM     28  O   UNL     1       5.185   4.070  13.564  0.00  0.00    +0.000 OA
ENDBRANCH  23  24
ENDBRANCH  21  23
ENDBRANCH  18  21
ENDBRANCH   4  15
TORSDOF 6
ENDMDL
MODEL 2
REMARK VINA RESULT:      -7.6      0.999      1.770
REMARK  Name = 
REMARK  7 active torsions:
REMARK  status: ('A' for Active; 'I' for Inactive)
REMARK    1  A    between atoms: C_1  and  O_2
REMARK    2  A    between atoms: O_2  and  C_3
REMARK    3  A    between atoms: C_7  and  C_8
REMARK    4  A    between atoms: C_11  and  N_12
REMARK    5  A    between atoms: C_15  and  N_16
REMARK    6  A    between atoms: N_16  and  C_17
REMARK    7  A    between atoms: C_17  and  C_18
REMARK                            x       y       z     vdW  Elec       q    Type
REMARK                         _______ _______ _______ _____ _____    ______ ____
ROOT
ATOM      1  C   UNL     1       0.980   9.418  19.505  0.00  0.00    +0.000 A 
ATOM      2  C   UNL     1       1.396   8.314  20.262  0.00  0.00    +0.000 A 
ATOM      3  C   UNL     1       2.242   7.336  19.723  0.00  0.00    +0.000 A 
ATOM      4  C   UNL     1       2.721   7.418  18.411  0.00  0.00    +0.000 A 
ATOM      5  C   UNL     1       2.325   8.535  17.667  0.00  0.00    +0.000 A 
ATOM      6  C   UNL     1       1.469   9.509  18.195  0.00  0.00    +0.000 A 
ENDROOT
BRANCH   1  11
ATOM      7  C   UNL     1      -0.714  11.819  21.919  0.00  0.00    +0.000 A 
ATOM      8  C   UNL     1      -1.745  12.319  21.124  0.00  0.00    +0.000 A 
ATOM      9  C   UNL     1      -1.886  11.894  19.806  0.00  0.00    +0.000 A 
ATOM     10  C   UNL     1      -0.989  10.967  19.274  0.00  0.00    +0.000 A 
ATOM     11  C   UNL     1       0.050  10.430  20.053  0.00  0.00    +0.000 A 
ATOM     12  C   UNL     1       0.165  10.875  21.386  0.00  0.00    +0.000 A 
BRANCH   7  14
ATOM     13  C   UNL     1      -1.312  13.575  23.406  0.00  0.00    +0.000 C 
ATOM     14  O   UNL     1      -0.674  12.321  23.192  0.00  0.00    +0.000 OA
ENDBRANCH   7  14
ENDBRANCH   1  11
BRANCH   4  15
ATOM     15  N   UNL     1       3.533   6.445  17.866  0.00  0.00    +0.000 N 
ATOM     16  C   UNL     1       3.424   5.041  18.264  0.00  0.00    +0.000 C 
ATOM     17  C   UNL     1       4.744   4.578  18.866  0.00  0.00    +0.000 C 
ATOM     18  C   UNL     1       5.928   4.845  17.916  0.00  0.00    +0.000 C 
ATOM     19  C   UNL     1       5.944   6.332  17.538  0.00  0.00    +0.000 C 
ATOM     20  C   UNL     1       4.613   6.788  16.942  0.00  0.00    +0.000 C 
BRANCH  18  21
ATOM     21  N   UNL     1       5.849   3.931  16.765  0.00  0.00    +0.000 NA
ATOM     22  H   UNL     1       4.924   3.978  16.338  0.00  0.00    +0.000 HD
BRANCH  21  23
ATOM     23  C   UNL     1       6.848   4.183  15.720  0.00  0.00    +0.000 C 
BRANCH  23  24
ATOM     24  C   UNL     1       6.315   4.900  14.466  0.00  0.00    +0.000 C 
ATOM     25  C   UNL     1       7.328   4.952  13.330  0.00  0.00    +0.000 C 
ATOM     26  C   UNL     1       7.041   3.674  12.586  0.00  0.00    +0.000 C 
ATOM     27  C   UNL     1       5.537   3.574  12.710  0.00  0.00    +0.000 C 
ATOM     28  O   UNL     1       5.182   4.158  13.970  0.00  0.00    +0.000 OA
ENDBRANCH  23  24
ENDBRANCH  21  23
ENDBRANCH  18  21
ENDBRANCH   4  15
TORSDOF 6
ENDMDL
MODEL 3
REMARK VINA RESULT:      -7.5      2.461      3.448
REMARK  Name = 
REMARK  7 active torsions:
REMARK  status: ('A' for Active; 'I' for Inactive)
REMARK    1  A    between atoms: C_1  and  O_2
REMARK    2  A    between atoms: O_2  and  C_3
REMARK    3  A    between atoms: C_7  and  C_8
REMARK    4  A    between atoms: C_11  and  N_12
REMARK    5  A    between atoms: C_15  and  N_16
REMARK    6  A    between atoms: N_16  and  C_17
REMARK    7  A    between atoms: C_17  and  C_18
REMARK                            x       y       z     vdW  Elec       q    Type
REMARK                         _______ _______ _______ _____ _____    ______ ____
ROOT
ATOM      1  C   UNL     1       0.653   9.629  19.259  0.00  0.00    +0.000 A 
ATOM      2  C   UNL     1       1.005   8.778  20.316  0.00  0.00    +0.000 A 
ATOM      3  C   UNL     1       1.896   7.714  20.131  0.00  0.00    +0.000 A 
ATOM      4  C   UNL     1       2.486   7.454  18.890  0.00  0.00    +0.000 A 
ATOM      5  C   UNL     1       2.154   8.321  17.843  0.00  0.00    +0.000 A 
ATOM      6  C   UNL     1       1.253   9.378  18.018  0.00  0.00    +0.000 A 
ENDROOT
BRANCH   1  11
ATOM      7  C   UNL     1      -2.532  11.691  19.003  0.00  0.00    +0.000 A 
ATOM      8  C   UNL     1      -2.173  12.832  19.720  0.00  0.00    +0.000 A 
ATOM      9  C   UNL     1      -0.911  12.931  20.299  0.00  0.00    +0.000 A 
ATOM     10  C   UNL     1      -0.000  11.882  20.166  0.00  0.00    +0.000 A 
ATOM     11  C   UNL     1      -0.323  10.727  19.435  0.00  0.00    +0.000 A 
ATOM     12  C   UNL     1      -1.607  10.656  18.856  0.00  0.00    +0.000 A 
BRANCH   7  14
ATOM     13  C   UNL     1      -3.931  11.476  17.093  0.00  0.00    +0.000 C 
ATOM     14  O   UNL     1      -3.802  11.709  18.492  0.00  0.00    +0.000 OA
ENDBRANCH   7  14
ENDBRANCH   1  11
BRANCH   4  15
ATOM     15  N   UNL     1       3.345   6.392  18.696  0.00  0.00    +0.000 N 
ATOM     16  C   UNL     1       3.718   5.939  17.356  0.00  0.00    +0.000 C 
ATOM     17  C   UNL     1       3.277   4.493  17.165  0.00  0.00    +0.000 C 
ATOM     18  C   UNL     1       3.820   3.581  18.282  0.00  0.00    +0.000 C 
ATOM     19  C   UNL     1       3.399   4.149  19.644  0.00  0.00    +0.000 C 
ATOM     20  C   UNL     1       3.840   5.600  19.822  0.00  0.00    +0.000 C 
BRANCH  18  21
ATOM     21  N   UNL     1       5.274   3.417  18.120  0.00  0.00    +0.000 NA
ATOM     22  H   UNL     1       5.526   2.429  18.156  0.00  0.00    +0.000 HD
BRANCH  21  23
ATOM     23  C   UNL     1       5.813   3.980  16.877  0.00  0.00    +0.000 C 
BRANCH  23  24
ATOM     24  C   UNL     1       7.243   4.542  16.981  0.00  0.00    +0.000 C 
ATOM     25  C   UNL     1       7.329   6.027  16.646  0.00  0.00    +0.000 C 
ATOM     26  C   UNL     1       7.098   6.671  17.989  0.00  0.00    +0.000 C 
ATOM     27  C   UNL     1       7.808   5.714  18.919  0.00  0.00    +0.000 C 
ATOM     28  O   UNL     1       7.683   4.405  18.347  0.00  0.00    +0.000 OA
ENDBRANCH  23  24
ENDBRANCH  21  23
ENDBRANCH  18  21
ENDBRANCH   4  15
TORSDOF 6
ENDMDL
MODEL 4
REMARK VINA RESULT:      -7.5      0.717      1.191
REMARK  Name = 
REMARK  7 active torsions:
REMARK  status: ('A' for Active; 'I' for Inactive)
REMARK    1  A    between atoms: C_1  and  O_2
REMARK    2  A    between atoms: O_2  and  C_3
REMARK    3  A    between atoms: C_7  and  C_8
REMARK    4  A    between atoms: C_11  and  N_12
REMARK    5  A    between atoms: C_15  and  N_16
REMARK    6  A    between atoms: N_16  and  C_17
REMARK    7  A    between atoms: C_17  and  C_18
REMARK                            x       y       z     vdW  Elec       q    Type
REMARK                         _______ _______ _______ _____ _____    ______ ____
ROOT
ATOM      1  C   UNL     1       1.430   8.609  20.159  0.00  0.00    +0.000 A 
ATOM      2  C   UNL     1       1.864   7.344  20.577  0.00  0.00    +0.000 A 
ATOM      3  C   UNL     1       2.575   6.495  19.719  0.00  0.00    +0.000 A 
ATOM      4  C   UNL     1       2.895   6.871  18.411  0.00  0.00    +0.000 A 
ATOM      5  C   UNL     1       2.485   8.146  18.005  0.00  0.00    +0.000 A 
ATOM      6  C   UNL     1       1.762   8.993  18.853  0.00  0.00    +0.000 A 
ENDROOT
BRANCH   1  11
ATOM      7  C   UNL     1      -0.232  11.714  21.596  0.00  0.00    +0.000 A 
ATOM      8  C   UNL     1      -0.818  11.196  22.750  0.00  0.00    +0.000 A 
ATOM      9  C   UNL     1      -0.692   9.845  23.058  0.00  0.00    +0.000 A 
ATOM     10  C   UNL     1       0.021   9.000  22.206  0.00  0.00    +0.000 A 
ATOM     11  C   UNL     1       0.640   9.493  21.045  0.00  0.00    +0.000 A 
ATOM     12  C   UNL     1       0.499  10.866  20.761  0.00  0.00    +0.000 A 
BRANCH   7  14
ATOM     13  C   UNL     1      -1.118  13.756  22.429  0.00  0.00    +0.000 C 
ATOM     14  O   UNL     1      -0.435  13.053  21.397  0.00  0.00    +0.000 OA
ENDBRANCH   7  14
ENDBRANCH   1  11
BRANCH   4  15
ATOM     15  N   UNL     1       3.572   6.029  17.552  0.00  0.00    +0.000 N 
ATOM     16  C   UNL     1       3.304   4.591  17.516  0.00  0.00    +0.000 C 
ATOM     17  C   UNL     1       4.573   3.827  17.874  0.00  0.00    +0.000 C 
ATOM     18  C   UNL     1       5.758   4.242  16.980  0.00  0.00    +0.000 C 
ATOM     19  C   UNL     1       5.944   5.763  17.065  0.00  0.00    +0.000 C 
ATOM     20  C   UNL     1       4.664   6.519  16.712  0.00  0.00    +0.000 C 
BRANCH  18  21
ATOM     21  N   UNL     1       5.544   3.737  15.614  0.00  0.00    +0.000 NA
ATOM     22  H   UNL     1       4.687   4.128  15.222  0.00  0.00    +0.000 HD
BRANCH  21  23
ATOM     23  C   UNL     1       6.642   4.019  14.683  0.00  0.00    +0.000 C 
BRANCH  23  24
ATOM     24  C   UNL     1       6.208   4.494  13.284  0.00  0.00    +0.000 C 
ATOM     25  C   UNL     1       7.159   4.051  12.179  0.00  0.00    +0.000 C 
ATOM     26  C   UNL     1       6.587   2.714  11.782  0.00  0.00    +0.000 C 
ATOM     27  C   UNL     1       5.101   2.960  11.916  0.00  0.00    +0.000 C 
ATOM     28  O   UNL     1       4.928   3.900  12.984  0.00  0.00    +0.000 OA
ENDBRANCH  23  24
ENDBRANCH  21  23
ENDBRANCH  18  21
ENDBRANCH   4  15
TORSDOF 6
ENDMDL
MODEL 5
REMARK VINA RESULT:      -7.5      2.929     10.742
REMARK  Name = 
REMARK  7 active torsions:
REMARK  status: ('A' for Active; 'I' for Inactive)
REMARK    1  A    between atoms: C_1  and  O_2
REMARK    2  A    between atoms: O_2  and  C_3
REMARK    3  A    between atoms: C_7  and  C_8
REMARK    4  A    between atoms: C_11  and  N_12
REMARK    5  A    between atoms: C_15  and  N_16
REMARK    6  A    between atoms: N_16  and  C_17
REMARK    7  A    between atoms: C_17  and  C_18
REMARK                            x       y       z     vdW  Elec       q    Type
REMARK                         _______ _______ _______ _____ _____    ______ ____
ROOT
ATOM      1  C   UNL     1       2.653   7.418  18.345  0.00  0.00    +0.000 A 
ATOM      2  C   UNL     1       2.213   7.349  19.674  0.00  0.00    +0.000 A 
ATOM      3  C   UNL     1       1.461   8.381  20.249  0.00  0.00    +0.000 A 
ATOM      4  C   UNL     1       1.103   9.523  19.525  0.00  0.00    +0.000 A 
ATOM      5  C   UNL     1       1.521   9.577  18.191  0.00  0.00    +0.000 A 
ATOM      6  C   UNL     1       2.285   8.555  17.614  0.00  0.00    +0.000 A 
ENDROOT
BRANCH   1  11
ATOM      7  C   UNL     1       5.414   5.674  16.395  0.00  0.00    +0.000 A 
ATOM      8  C   UNL     1       5.053   4.337  16.555  0.00  0.00    +0.000 A 
ATOM      9  C   UNL     1       3.930   3.995  17.303  0.00  0.00    +0.000 A 
ATOM     10  C   UNL     1       3.162   4.994  17.901  0.00  0.00    +0.000 A 
ATOM     11  C   UNL     1       3.487   6.352  17.745  0.00  0.00    +0.000 A 
ATOM     12  C   UNL     1       4.627   6.669  16.979  0.00  0.00    +0.000 A 
BRANCH   7  14
ATOM     13  C   UNL     1       6.929   4.830  14.770  0.00  0.00    +0.000 C 
ATOM     14  O   UNL     1       6.542   5.881  15.648  0.00  0.00    +0.000 OA
ENDBRANCH   7  14
ENDBRANCH   1  11
BRANCH   4  15
ATOM     15  N   UNL     1       0.385  10.555  20.093  0.00  0.00    +0.000 N 
ATOM     16  C   UNL     1      -1.058  10.687  19.897  0.00  0.00    +0.000 C 
ATOM     17  C   UNL     1      -1.360  12.013  19.211  0.00  0.00    +0.000 C 
ATOM     18  C   UNL     1      -0.745  13.202  19.975  0.00  0.00    +0.000 C 
ATOM     19  C   UNL     1       0.760  12.961  20.152  0.00  0.00    +0.000 C 
ATOM     20  C   UNL     1       1.052  11.626  20.834  0.00  0.00    +0.000 C 
BRANCH  18  21
ATOM     21  N   UNL     1      -1.476  13.406  21.236  0.00  0.00    +0.000 NA
ATOM     22  H   UNL     1      -1.087  14.199  21.747  0.00  0.00    +0.000 HD
BRANCH  21  23
ATOM     23  C   UNL     1      -2.916  13.631  21.074  0.00  0.00    +0.000 C 
BRANCH  23  24
ATOM     24  C   UNL     1      -3.820  12.733  21.940  0.00  0.00    +0.000 C 
ATOM     25  C   UNL     1      -3.166  12.315  23.252  0.00  0.00    +0.000 C 
ATOM     26  C   UNL     1      -3.571  13.430  24.180  0.00  0.00    +0.000 C 
ATOM     27  C   UNL     1      -4.972  13.738  23.703  0.00  0.00    +0.000 C 
ATOM     28  O   UNL     1      -4.998  13.486  22.292  0.00  0.00    +0.000 OA
ENDBRANCH  23  24
ENDBRANCH  21  23
ENDBRANCH  18  21
ENDBRANCH   4  15
TORSDOF 6
ENDMDL
MODEL 6
REMARK VINA RESULT:      -7.5      2.809     10.644
REMARK  Name = 
REMARK  7 active torsions:
REMARK  status: ('A' for Active; 'I' for Inactive)
REMARK    1  A    between atoms: C_1  and  O_2
REMARK    2  A    between atoms: O_2  and  C_3
REMARK    3  A    between atoms: C_7  and  C_8
REMARK    4  A    between atoms: C_11  and  N_12
REMARK    5  A    between atoms: C_15  and  N_16
REMARK    6  A    between atoms: N_16  and  C_17
REMARK    7  A    between atoms: C_17  and  C_18
REMARK                            x       y       z     vdW  Elec       q    Type
REMARK                         _______ _______ _______ _____ _____    ______ ____
ROOT
ATOM      1  C   UNL     1       2.808   7.407  18.306  0.00  0.00    +0.000 A 
ATOM      2  C   UNL     1       2.473   8.538  17.550  0.00  0.00    +0.000 A 
ATOM      3  C   UNL     1       1.641   9.540  18.064  0.00  0.00    +0.000 A 
ATOM      4  C   UNL     1       1.113   9.467  19.357  0.00  0.00    +0.000 A 
ATOM      5  C   UNL     1       1.471   8.350  20.119  0.00  0.00    +0.000 A 
ATOM      6  C   UNL     1       2.291   7.338  19.606  0.00  0.00    +0.000 A 
ENDROOT
BRANCH   1  11
ATOM      7  C   UNL     1       5.480   5.589  16.300  0.00  0.00    +0.000 A 
ATOM      8  C   UNL     1       5.226   4.264  16.652  0.00  0.00    +0.000 A 
ATOM      9  C   UNL     1       4.205   3.956  17.547  0.00  0.00    +0.000 A 
ATOM     10  C   UNL     1       3.433   4.978  18.099  0.00  0.00    +0.000 A 
ATOM     11  C   UNL     1       3.650   6.322  17.752  0.00  0.00    +0.000 A 
ATOM     12  C   UNL     1       4.687   6.604  16.841  0.00  0.00    +0.000 A 
BRANCH   7  14
ATOM     13  C   UNL     1       6.693   4.754  14.434  0.00  0.00    +0.000 C 
ATOM     14  O   UNL     1       6.515   5.764  15.422  0.00  0.00    +0.000 OA
ENDBRANCH   7  14
ENDBRANCH   1  11
BRANCH   4  15
ATOM     15  N   UNL     1       0.271  10.438  19.860  0.00  0.00    +0.000 N 
ATOM     16  C   UNL     1      -1.071  10.649  19.317  0.00  0.00    +0.000 C 
ATOM     17  C   UNL     1      -1.182  12.066  18.769  0.00  0.00    +0.000 C 
ATOM     18  C   UNL     1      -0.788  13.116  19.826  0.00  0.00    +0.000 C 
ATOM     19  C   UNL     1       0.618  12.798  20.351  0.00  0.00    +0.000 C 
ATOM     20  C   UNL     1       0.721  11.373  20.891  0.00  0.00    +0.000 C 
BRANCH  18  21
ATOM     21  N   UNL     1      -1.824  13.175  20.871  0.00  0.00    +0.000 NA
ATOM     22  H   UNL     1      -1.965  12.252  21.282  0.00  0.00    +0.000 HD
BRANCH  21  23
ATOM     23  C   UNL     1      -1.538  14.119  21.956  0.00  0.00    +0.000 C 
BRANCH  23  24
ATOM     24  C   UNL     1      -1.649  13.535  23.377  0.00  0.00    +0.000 C 
ATOM     25  C   UNL     1      -2.422  14.433  24.335  0.00  0.00    +0.000 C 
ATOM     26  C   UNL     1      -3.838  13.956  24.148  0.00  0.00    +0.000 C 
ATOM     27  C   UNL     1      -3.643  12.469  23.956  0.00  0.00    +0.000 C 
ATOM     28  O   UNL     1      -2.381  12.295  23.298  0.00  0.00    +0.000 OA
ENDBRANCH  23  24
ENDBRANCH  21  23
ENDBRANCH  18  21
ENDBRANCH   4  15
TORSDOF 6
ENDMDL
MODEL 7
REMARK VINA RESULT:      -7.4      3.305     10.705
REMARK  Name = 
REMARK  7 active torsions:
REMARK  status: ('A' for Active; 'I' for Inactive)
REMARK    1  A    between atoms: C_1  and  O_2
REMARK    2  A    between atoms: O_2  and  C_3
REMARK    3  A    between atoms: C_7  and  C_8
REMARK    4  A    between atoms: C_11  and  N_12
REMARK    5  A    between atoms: C_15  and  N_16
REMARK    6  A    between atoms: N_16  and  C_17
REMARK    7  A    between atoms: C_17  and  C_18
REMARK                            x       y       z     vdW  Elec       q    Type
REMARK                         _______ _______ _______ _____ _____    ______ ____
ROOT
ATOM      1  C   UNL     1       2.508   7.384  18.472  0.00  0.00    +0.000 A 
ATOM      2  C   UNL     1       2.166   8.508  17.707  0.00  0.00    +0.000 A 
ATOM      3  C   UNL     1       1.468   9.586  18.265  0.00  0.00    +0.000 A 
ATOM      4  C   UNL     1       1.088   9.600  19.611  0.00  0.00    +0.000 A 
ATOM      5  C   UNL     1       1.454   8.489  20.378  0.00  0.00    +0.000 A 
ATOM      6  C   UNL     1       2.140   7.402  19.824  0.00  0.00    +0.000 A 
ENDROOT
BRANCH   1  11
ATOM      7  C   UNL     1       3.313   3.818  17.424  0.00  0.00    +0.000 A 
ATOM      8  C   UNL     1       4.547   3.992  16.798  0.00  0.00    +0.000 A 
ATOM      9  C   UNL     1       5.113   5.260  16.700  0.00  0.00    +0.000 A 
ATOM     10  C   UNL     1       4.442   6.364  17.226  0.00  0.00    +0.000 A 
ATOM     11  C   UNL     1       3.206   6.221  17.878  0.00  0.00    +0.000 A 
ATOM     12  C   UNL     1       2.659   4.925  17.967  0.00  0.00    +0.000 A 
BRANCH   7  14
ATOM     13  C   UNL     1       3.448   1.658  18.407  0.00  0.00    +0.000 C 
ATOM     14  O   UNL     1       2.857   2.527  17.447  0.00  0.00    +0.000 OA
ENDBRANCH   7  14
ENDBRANCH   1  11
BRANCH   4  15
ATOM     15  N   UNL     1       0.377  10.648  20.159  0.00  0.00    +0.000 N 
ATOM     16  C   UNL     1      -1.076  10.748  20.019  0.00  0.00    +0.000 C 
ATOM     17  C   UNL     1      -1.429  12.034  19.283  0.00  0.00    +0.000 C 
ATOM     18  C   UNL     1      -0.802  13.268  19.961  0.00  0.00    +0.000 C 
ATOM     19  C   UNL     1       0.713  13.059  20.085  0.00  0.00    +0.000 C 
ATOM     20  C   UNL     1       1.056  11.763  20.818  0.00  0.00    +0.000 C 
BRANCH  18  21
ATOM     21  N   UNL     1      -1.482  13.524  21.242  0.00  0.00    +0.000 NA
ATOM     22  H   UNL     1      -1.118  14.373  21.673  0.00  0.00    +0.000 HD
BRANCH  21  23
ATOM     23  C   UNL     1      -2.940  13.652  21.140  0.00  0.00    +0.000 C 
BRANCH  23  24
ATOM     24  C   UNL     1      -3.745  12.633  21.968  0.00  0.00    +0.000 C 
ATOM     25  C   UNL     1      -3.065  12.256  23.279  0.00  0.00    +0.000 C 
ATOM     26  C   UNL     1      -3.609  13.291  24.229  0.00  0.00    +0.000 C 
ATOM     27  C   UNL     1      -5.030  13.449  23.737  0.00  0.00    +0.000 C 
ATOM     28  O   UNL     1      -5.007  13.235  22.320  0.00  0.00    +0.000 OA
ENDBRANCH  23  24
ENDBRANCH  21  23
ENDBRANCH  18  21
ENDBRANCH   4  15
TORSDOF 6
ENDMDL
MODEL 8
REMARK VINA RESULT:      -7.4      3.329     10.716
REMARK  Name = 
REMARK  7 active torsions:
REMARK  status: ('A' for Active; 'I' for Inactive)
REMARK    1  A    between atoms: C_1  and  O_2
REMARK    2  A    between atoms: O_2  and  C_3
REMARK    3  A    between atoms: C_7  and  C_8
REMARK    4  A    between atoms: C_11  and  N_12
REMARK    5  A    between atoms: C_15  and  N_16
REMARK    6  A    between atoms: N_16  and  C_17
REMARK    7  A    between atoms: C_17  and  C_18
REMARK                            x       y       z     vdW  Elec       q    Type
REMARK                         _______ _______ _______ _____ _____    ______ ____
ROOT
ATOM      1  C   UNL     1       2.473   7.175  18.773  0.00  0.00    +0.000 A 
ATOM      2  C   UNL     1       2.260   8.198  17.840  0.00  0.00    +0.000 A 
ATOM      3  C   UNL     1       1.584   9.375  18.188  0.00  0.00    +0.000 A 
ATOM      4  C   UNL     1       1.101   9.591  19.482  0.00  0.00    +0.000 A 
ATOM      5  C   UNL     1       1.340   8.579  20.418  0.00  0.00    +0.000 A 
ATOM      6  C   UNL     1       2.001   7.395  20.074  0.00  0.00    +0.000 A 
ENDROOT
BRANCH   1  11
ATOM      7  C   UNL     1       5.171   4.539  18.284  0.00  0.00    +0.000 A 
ATOM      8  C   UNL     1       4.449   3.528  17.651  0.00  0.00    +0.000 A 
ATOM      9  C   UNL     1       3.090   3.689  17.395  0.00  0.00    +0.000 A 
ATOM     10  C   UNL     1       2.444   4.864  17.777  0.00  0.00    +0.000 A 
ATOM     11  C   UNL     1       3.146   5.910  18.400  0.00  0.00    +0.000 A 
ATOM     12  C   UNL     1       4.521   5.722  18.643  0.00  0.00    +0.000 A 
BRANCH   7  14
ATOM     13  C   UNL     1       7.391   4.594  17.435  0.00  0.00    +0.000 C 
ATOM     14  O   UNL     1       6.495   4.259  18.490  0.00  0.00    +0.000 OA
ENDBRANCH   7  14
ENDBRANCH   1  11
BRANCH   4  15
ATOM     15  N   UNL     1       0.412  10.737  19.824  0.00  0.00    +0.000 N 
ATOM     16  C   UNL     1       0.821  12.054  19.337  0.00  0.00    +0.000 C 
ATOM     17  C   UNL     1       1.164  12.950  20.521  0.00  0.00    +0.000 C 
ATOM     18  C   UNL     1       0.008  13.016  21.538  0.00  0.00    +0.000 C 
ATOM     19  C   UNL     1      -0.365  11.591  21.969  0.00  0.00    +0.000 C 
ATOM     20  C   UNL     1      -0.699  10.699  20.775  0.00  0.00    +0.000 C 
BRANCH  18  21
ATOM     21  N   UNL     1      -1.109  13.784  20.964  0.00  0.00    +0.000 NA
ATOM     22  H   UNL     1      -1.762  13.159  20.491  0.00  0.00    +0.000 HD
BRANCH  21  23
ATOM     23  C   UNL     1      -1.863  14.579  21.939  0.00  0.00    +0.000 C 
BRANCH  23  24
ATOM     24  C   UNL     1      -3.381  14.322  21.958  0.00  0.00    +0.000 C 
ATOM     25  C   UNL     1      -3.737  12.842  22.035  0.00  0.00    +0.000 C 
ATOM     26  C   UNL     1      -3.790  12.603  23.522  0.00  0.00    +0.000 C 
ATOM     27  C   UNL     1      -4.382  13.901  24.024  0.00  0.00    +0.000 C 
ATOM     28  O   UNL     1      -3.928  14.936  23.142  0.00  0.00    +0.000 OA
ENDBRANCH  23  24
ENDBRANCH  21  23
ENDBRANCH  18  21
ENDBRANCH   4  15
TORSDOF 6
ENDMDL
MODEL 9
REMARK VINA RESULT:      -7.4      3.314     10.845
REMARK  Name = 
REMARK  7 active torsions:
REMARK  status: ('A' for Active; 'I' for Inactive)
REMARK    1  A    between atoms: C_1  and  O_2
REMARK    2  A    between atoms: O_2  and  C_3
REMARK    3  A    between atoms: C_7  and  C_8
REMARK    4  A    between atoms: C_11  and  N_12
REMARK    5  A    between atoms: C_15  and  N_16
REMARK    6  A    between atoms: N_16  and  C_17
REMARK    7  A    between atoms: C_17  and  C_18
REMARK                            x       y       z     vdW  Elec       q    Type
REMARK                         _______ _______ _______ _____ _____    ______ ____
ROOT
ATOM      1  C   UNL     1       2.622   7.453  18.775  0.00  0.00    +0.000 A 
ATOM      2  C   UNL     1       2.187   8.459  17.902  0.00  0.00    +0.000 A 
ATOM      3  C   UNL     1       1.259   9.426  18.307  0.00  0.00    +0.000 A 
ATOM      4  C   UNL     1       0.730   9.443  19.601  0.00  0.00    +0.000 A 
ATOM      5  C   UNL     1       1.187   8.454  20.479  0.00  0.00    +0.000 A 
ATOM      6  C   UNL     1       2.103   7.476  20.077  0.00  0.00    +0.000 A 
ENDROOT
BRANCH   1  11
ATOM      7  C   UNL     1       4.838   4.362  18.818  0.00  0.00    +0.000 A 
ATOM      8  C   UNL     1       5.405   4.420  17.546  0.00  0.00    +0.000 A 
ATOM      9  C   UNL     1       5.063   5.445  16.668  0.00  0.00    +0.000 A 
ATOM     10  C   UNL     1       4.144   6.418  17.060  0.00  0.00    +0.000 A 
ATOM     11  C   UNL     1       3.568   6.400  18.341  0.00  0.00    +0.000 A 
ATOM     12  C   UNL     1       3.937   5.354  19.210  0.00  0.00    +0.000 A 
BRANCH   7  14
ATOM     13  C   UNL     1       4.276   2.296  19.849  0.00  0.00    +0.000 C 
ATOM     14  O   UNL     1       5.246   3.303  19.583  0.00  0.00    +0.000 OA
ENDBRANCH   7  14
ENDBRANCH   1  11
BRANCH   4  15
ATOM     15  N   UNL     1      -0.205  10.378  19.998  0.00  0.00    +0.000 N 
ATOM     16  C   UNL     1      -1.253  10.849  19.092  0.00  0.00    +0.000 C 
ATOM     17  C   UNL     1      -1.114  12.353  18.890  0.00  0.00    +0.000 C 
ATOM     18  C   UNL     1      -1.093  13.108  20.233  0.00  0.00    +0.000 C 
ATOM     19  C   UNL     1       0.018  12.528  21.119  0.00  0.00    +0.000 C 
ATOM     20  C   UNL     1      -0.127  11.020  21.310  0.00  0.00    +0.000 C 
BRANCH  18  21
ATOM     21  N   UNL     1      -2.434  13.065  20.842  0.00  0.00    +0.000 NA
ATOM     22  H   UNL     1      -2.827  12.127  20.766  0.00  0.00    +0.000 HD
BRANCH  21  23
ATOM     23  C   UNL     1      -2.472  13.464  22.252  0.00  0.00    +0.000 C 
BRANCH  23  24
ATOM     24  C   UNL     1      -3.475  12.686  23.124  0.00  0.00    +0.000 C 
ATOM     25  C   UNL     1      -4.030  13.510  24.279  0.00  0.00    +0.000 C 
ATOM     26  C   UNL     1      -5.242  14.156  23.658  0.00  0.00    +0.000 C 
ATOM     27  C   UNL     1      -5.749  13.057  22.752  0.00  0.00    +0.000 C 
ATOM     28  O   UNL     1      -4.602  12.324  22.301  0.00  0.00    +0.000 OA
ENDBRANCH  23  24
ENDBRANCH  21  23
ENDBRANCH  18  21
ENDBRANCH   4  15
TORSDOF 6
ENDMDL
