MODEL 1
REMARK VINA RESULT:      -7.4      0.000      0.000
REMARK  Name = 
REMARK  13 active torsions:
REMARK  status: ('A' for Active; 'I' for Inactive)
REMARK    1  A    between atoms: C_1  and  C_2
REMARK    2  A    between atoms: C_2  and  C_3
REMARK    3  A    between atoms: C_2  and  N_4
REMARK    4  A    between atoms: C_5  and  C_7
REMARK    5  A    between atoms: C_7  and  S_8
REMARK    6  A    between atoms: S_8  and  C_9
REMARK    7  A    between atoms: N_19  and  C_20
REMARK    8  A    between atoms: C_20  and  C_21
REMARK    9  A    between atoms: C_21  and  C_22
REMARK   10  A    between atoms: C_22  and  O_23
REMARK   11  A    between atoms: O_23  and  C_24
REMARK   12  A    between atoms: C_24  and  C_25
REMARK   13  A    between atoms: C_24  and  C_26
REMARK                            x       y       z     vdW  Elec       q    Type
REMARK                         _______ _______ _______ _____ _____    ______ ____
ROOT
ATOM      1  C   UNL     1       7.046   5.619  17.131  0.00  0.00    +0.000 A 
ATOM      2  N   UNL     1       7.575   5.718  15.955  0.00  0.00    +0.000 NA
ATOM      3  C   UNL     1       7.033   4.983  14.902  0.00  0.00    +0.000 A 
ATOM      4  C   UNL     1       7.607   5.092  13.633  0.00  0.00    +0.000 A 
ATOM      5  C   UNL     1       7.031   4.448  12.534  0.00  0.00    +0.000 A 
ATOM      6  C   UNL     1       5.875   3.687  12.699  0.00  0.00    +0.000 A 
ATOM      7  C   UNL     1       5.310   3.551  13.967  0.00  0.00    +0.000 A 
ATOM      8  C   UNL     1       5.899   4.199  15.060  0.00  0.00    +0.000 A 
ATOM      9  C   UNL     1       5.333   4.088  16.413  0.00  0.00    +0.000 A 
ATOM     10  O   UNL     1       4.306   3.428  16.562  0.00  0.00    +0.000 OA
ATOM     11  N   UNL     1       5.996   4.760  17.443  0.00  0.00    +0.000 N 
ENDROOT
BRANCH   1  12
ATOM     12  S   UNL     1       7.725   6.670  18.367  0.00  0.00    +0.000 S 
BRANCH  12  13
ATOM     13  C   UNL     1       7.650   8.272  17.492  0.00  0.00    +0.000 C 
BRANCH  13  15
ATOM     14  N   UNL     1       8.395  10.591  17.658  0.00  0.00    +0.000 N 
ATOM     15  C   UNL     1       8.459   9.331  18.226  0.00  0.00    +0.000 C 
ATOM     16  O   UNL     1       9.062   9.092  19.266  0.00  0.00    +0.000 OA
ATOM     17  H   UNL     1       8.068  10.643  16.700  0.00  0.00    +0.000 HD
BRANCH  14  19
ATOM     18  C   UNL     1      10.611  11.648  17.707  0.00  0.00    +0.000 C 
ATOM     19  C   UNL     1       9.162  11.713  18.184  0.00  0.00    +0.000 C 
ATOM     20  C   UNL     1       8.524  13.034  17.763  0.00  0.00    +0.000 C 
ENDBRANCH  14  19
ENDBRANCH  13  15
ENDBRANCH  12  13
ENDBRANCH   1  12
BRANCH  11  21
ATOM     21  C   UNL     1       5.404   4.606  18.786  0.00  0.00    +0.000 C 
BRANCH  21  22
ATOM     22  C   UNL     1       4.337   5.659  19.157  0.00  0.00    +0.000 C 
BRANCH  22  23
ATOM     23  C   UNL     1       2.928   5.092  19.251  0.00  0.00    +0.000 C 
BRANCH  23  24
ATOM     24  O   UNL     1       2.577   4.974  20.624  0.00  0.00    +0.000 OA
BRANCH  24  25
ATOM     25  C   UNL     1       1.633   3.942  20.912  0.00  0.00    +0.000 C 
ATOM     26  C   UNL     1       0.967   3.415  19.644  0.00  0.00    +0.000 C 
ATOM     27  C   UNL     1       2.417   2.822  21.592  0.00  0.00    +0.000 C 
ENDBRANCH  24  25
ENDBRANCH  23  24
ENDBRANCH  22  23
ENDBRANCH  21  22
ENDBRANCH  11  21
TORSDOF 9
ENDMDL
MODEL 2
REMARK VINA RESULT:      -7.2      2.319      7.592
REMARK  Name = 
REMARK  13 active torsions:
REMARK  status: ('A' for Active; 'I' for Inactive)
REMARK    1  A    between atoms: C_1  and  C_2
REMARK    2  A    between atoms: C_2  and  C_3
REMARK    3  A    between atoms: C_2  and  N_4
REMARK    4  A    between atoms: C_5  and  C_7
REMARK    5  A    between atoms: C_7  and  S_8
REMARK    6  A    between atoms: S_8  and  C_9
REMARK    7  A    between atoms: N_19  and  C_20
REMARK    8  A    between atoms: C_20  and  C_21
REMARK    9  A    between atoms: C_21  and  C_22
REMARK   10  A    between atoms: C_22  and  O_23
REMARK   11  A    between atoms: O_23  and  C_24
REMARK   12  A    between atoms: C_24  and  C_25
REMARK   13  A    between atoms: C_24  and  C_26
REMARK                            x       y       z     vdW  Elec       q    Type
REMARK                         _______ _______ _______ _____ _____    ______ ____
ROOT
ATOM      1  C   UNL     1       5.313   4.865  16.500  0.00  0.00    +0.000 A 
ATOM      2  N   UNL     1       4.271   4.102  16.427  0.00  0.00    +0.000 NA
ATOM      3  C   UNL     1       3.784   3.505  17.588  0.00  0.00    +0.000 A 
ATOM      4  C   UNL     1       2.659   2.681  17.505  0.00  0.00    +0.000 A 
ATOM      5  C   UNL     1       2.083   2.146  18.661  0.00  0.00    +0.000 A 
ATOM      6  C   UNL     1       2.634   2.430  19.910  0.00  0.00    +0.000 A 
ATOM      7  C   UNL     1       3.772   3.229  20.000  0.00  0.00    +0.000 A 
ATOM      8  C   UNL     1       4.340   3.757  18.834  0.00  0.00    +0.000 A 
ATOM      9  C   UNL     1       5.538   4.610  18.883  0.00  0.00    +0.000 A 
ATOM     10  O   UNL     1       6.019   4.874  19.983  0.00  0.00    +0.000 OA
ATOM     11  N   UNL     1       6.040   5.081  17.667  0.00  0.00    +0.000 N 
ENDROOT
BRANCH   1  12
ATOM     12  S   UNL     1       5.784   5.664  15.006  0.00  0.00    +0.000 S 
BRANCH  12  13
ATOM     13  C   UNL     1       7.054   4.492  14.410  0.00  0.00    +0.000 C 
BRANCH  13  15
ATOM     14  N   UNL     1       5.852   3.169  12.748  0.00  0.00    +0.000 N 
ATOM     15  C   UNL     1       6.822   4.136  12.950  0.00  0.00    +0.000 C 
ATOM     16  O   UNL     1       7.405   4.705  12.035  0.00  0.00    +0.000 OA
ATOM     17  H   UNL     1       5.594   2.608  13.550  0.00  0.00    +0.000 HD
BRANCH  14  19
ATOM     18  C   UNL     1       5.912   1.173  11.319  0.00  0.00    +0.000 C 
ATOM     19  C   UNL     1       5.547   2.651  11.420  0.00  0.00    +0.000 C 
ATOM     20  C   UNL     1       4.068   2.855  11.100  0.00  0.00    +0.000 C 
ENDBRANCH  14  19
ENDBRANCH  13  15
ENDBRANCH  12  13
ENDBRANCH   1  12
BRANCH  11  21
ATOM     21  C   UNL     1       7.252   5.918  17.763  0.00  0.00    +0.000 C 
BRANCH  21  22
ATOM     22  C   UNL     1       7.012   7.437  17.633  0.00  0.00    +0.000 C 
BRANCH  22  23
ATOM     23  C   UNL     1       8.287   8.264  17.695  0.00  0.00    +0.000 C 
BRANCH  23  24
ATOM     24  O   UNL     1       7.955   9.579  18.126  0.00  0.00    +0.000 OA
BRANCH  24  25
ATOM     25  C   UNL     1       9.076  10.445  18.316  0.00  0.00    +0.000 C 
ATOM     26  C   UNL     1       8.788  11.859  17.819  0.00  0.00    +0.000 C 
ATOM     27  C   UNL     1       9.349  10.466  19.819  0.00  0.00    +0.000 C 
ENDBRANCH  24  25
ENDBRANCH  23  24
ENDBRANCH  22  23
ENDBRANCH  21  22
ENDBRANCH  11  21
TORSDOF 9
ENDMDL
MODEL 3
REMARK VINA RESULT:      -7.1      3.981      7.385
REMARK  Name = 
REMARK  13 active torsions:
REMARK  status: ('A' for Active; 'I' for Inactive)
REMARK    1  A    between atoms: C_1  and  C_2
REMARK    2  A    between atoms: C_2  and  C_3
REMARK    3  A    between atoms: C_2  and  N_4
REMARK    4  A    between atoms: C_5  and  C_7
REMARK    5  A    between atoms: C_7  and  S_8
REMARK    6  A    between atoms: S_8  and  C_9
REMARK    7  A    between atoms: N_19  and  C_20
REMARK    8  A    between atoms: C_20  and  C_21
REMARK    9  A    between atoms: C_21  and  C_22
REMARK   10  A    between atoms: C_22  and  O_23
REMARK   11  A    between atoms: O_23  and  C_24
REMARK   12  A    between atoms: C_24  and  C_25
REMARK   13  A    between atoms: C_24  and  C_26
REMARK                            x       y       z     vdW  Elec       q    Type
REMARK                         _______ _______ _______ _____ _____    ______ ____
ROOT
ATOM      1  C   UNL     1       3.338   6.353  18.457  0.00  0.00    +0.000 A 
ATOM      2  N   UNL     1       2.246   5.931  19.006  0.00  0.00    +0.000 NA
ATOM      3  C   UNL     1       2.254   4.715  19.689  0.00  0.00    +0.000 A 
ATOM      4  C   UNL     1       1.073   4.262  20.280  0.00  0.00    +0.000 A 
ATOM      5  C   UNL     1       1.067   3.099  21.056  0.00  0.00    +0.000 A 
ATOM      6  C   UNL     1       2.246   2.378  21.242  0.00  0.00    +0.000 A 
ATOM      7  C   UNL     1       3.423   2.809  20.633  0.00  0.00    +0.000 A 
ATOM      8  C   UNL     1       3.416   3.975  19.856  0.00  0.00    +0.000 A 
ATOM      9  C   UNL     1       4.637   4.467  19.202  0.00  0.00    +0.000 A 
ATOM     10  O   UNL     1       5.682   3.843  19.373  0.00  0.00    +0.000 OA
ATOM     11  N   UNL     1       4.529   5.633  18.438  0.00  0.00    +0.000 N 
ENDROOT
BRANCH   1  12
ATOM     12  S   UNL     1       3.259   7.947  17.719  0.00  0.00    +0.000 S 
BRANCH  12  13
ATOM     13  C   UNL     1       1.489   8.323  17.976  0.00  0.00    +0.000 C 
BRANCH  13  15
ATOM     14  N   UNL     1       0.016  10.150  18.646  0.00  0.00    +0.000 N 
ATOM     15  C   UNL     1       1.275   9.815  18.179  0.00  0.00    +0.000 C 
ATOM     16  O   UNL     1       2.166  10.637  17.998  0.00  0.00    +0.000 OA
ATOM     17  H   UNL     1      -0.707   9.448  18.550  0.00  0.00    +0.000 HD
BRANCH  14  19
ATOM     18  C   UNL     1      -1.629  11.853  17.993  0.00  0.00    +0.000 C 
ATOM     19  C   UNL     1      -0.393  11.537  18.831  0.00  0.00    +0.000 C 
ATOM     20  C   UNL     1      -0.667  11.816  20.306  0.00  0.00    +0.000 C 
ENDBRANCH  14  19
ENDBRANCH  13  15
ENDBRANCH  12  13
ENDBRANCH   1  12
BRANCH  11  21
ATOM     21  C   UNL     1       5.775   6.081  17.784  0.00  0.00    +0.000 C 
BRANCH  21  22
ATOM     22  C   UNL     1       5.898   5.719  16.289  0.00  0.00    +0.000 C 
BRANCH  22  23
ATOM     23  C   UNL     1       6.692   4.447  16.032  0.00  0.00    +0.000 C 
BRANCH  23  24
ATOM     24  O   UNL     1       7.586   4.680  14.952  0.00  0.00    +0.000 OA
BRANCH  24  25
ATOM     25  C   UNL     1       6.952   4.967  13.704  0.00  0.00    +0.000 C 
ATOM     26  C   UNL     1       7.963   5.375  12.636  0.00  0.00    +0.000 C 
ATOM     27  C   UNL     1       6.238   3.684  13.282  0.00  0.00    +0.000 C 
ENDBRANCH  24  25
ENDBRANCH  23  24
ENDBRANCH  22  23
ENDBRANCH  21  22
ENDBRANCH  11  21
TORSDOF 9
ENDMDL
MODEL 4
REMARK VINA RESULT:      -7.0      3.546      6.754
REMARK  Name = 
REMARK  13 active torsions:
REMARK  status: ('A' for Active; 'I' for Inactive)
REMARK    1  A    between atoms: C_1  and  C_2
REMARK    2  A    between atoms: C_2  and  C_3
REMARK    3  A    between atoms: C_2  and  N_4
REMARK    4  A    between atoms: C_5  and  C_7
REMARK    5  A    between atoms: C_7  and  S_8
REMARK    6  A    between atoms: S_8  and  C_9
REMARK    7  A    between atoms: N_19  and  C_20
REMARK    8  A    between atoms: C_20  and  C_21
REMARK    9  A    between atoms: C_21  and  C_22
REMARK   10  A    between atoms: C_22  and  O_23
REMARK   11  A    between atoms: O_23  and  C_24
REMARK   12  A    between atoms: C_24  and  C_25
REMARK   13  A    between atoms: C_24  and  C_26
REMARK                            x       y       z     vdW  Elec       q    Type
REMARK                         _______ _______ _______ _____ _____    ______ ____
ROOT
ATOM      1  C   UNL     1       3.961   6.062  18.085  0.00  0.00    +0.000 A 
ATOM      2  N   UNL     1       4.247   4.836  18.380  0.00  0.00    +0.000 NA
ATOM      3  C   UNL     1       3.630   4.240  19.479  0.00  0.00    +0.000 A 
ATOM      4  C   UNL     1       3.941   2.916  19.796  0.00  0.00    +0.000 A 
ATOM      5  C   UNL     1       3.269   2.255  20.828  0.00  0.00    +0.000 A 
ATOM      6  C   UNL     1       2.281   2.919  21.554  0.00  0.00    +0.000 A 
ATOM      7  C   UNL     1       1.983   4.249  21.262  0.00  0.00    +0.000 A 
ATOM      8  C   UNL     1       2.665   4.900  20.227  0.00  0.00    +0.000 A 
ATOM      9  C   UNL     1       2.377   6.301  19.882  0.00  0.00    +0.000 A 
ATOM     10  O   UNL     1       1.498   6.886  20.510  0.00  0.00    +0.000 OA
ATOM     11  N   UNL     1       3.117   6.869  18.841  0.00  0.00    +0.000 N 
ENDROOT
BRANCH   1  12
ATOM     12  S   UNL     1       4.701   6.689  16.617  0.00  0.00    +0.000 S 
BRANCH  12  13
ATOM     13  C   UNL     1       6.462   6.398  17.005  0.00  0.00    +0.000 C 
BRANCH  13  15
ATOM     14  N   UNL     1       6.667   5.463  14.759  0.00  0.00    +0.000 N 
ATOM     15  C   UNL     1       7.054   5.343  16.082  0.00  0.00    +0.000 C 
ATOM     16  O   UNL     1       7.853   4.501  16.476  0.00  0.00    +0.000 OA
ATOM     17  H   UNL     1       5.849   6.032  14.574  0.00  0.00    +0.000 HD
BRANCH  14  19
ATOM     18  C   UNL     1       5.873   3.733  13.208  0.00  0.00    +0.000 C 
ATOM     19  C   UNL     1       7.078   4.499  13.746  0.00  0.00    +0.000 C 
ATOM     20  C   UNL     1       7.808   5.207  12.608  0.00  0.00    +0.000 C 
ENDBRANCH  14  19
ENDBRANCH  13  15
ENDBRANCH  12  13
ENDBRANCH   1  12
BRANCH  11  21
ATOM     21  C   UNL     1       2.808   8.281  18.541  0.00  0.00    +0.000 C 
BRANCH  21  22
ATOM     22  C   UNL     1       1.503   8.513  17.750  0.00  0.00    +0.000 C 
BRANCH  22  23
ATOM     23  C   UNL     1       0.842   9.851  18.042  0.00  0.00    +0.000 C 
BRANCH  23  24
ATOM     24  O   UNL     1      -0.534   9.763  17.693  0.00  0.00    +0.000 OA
BRANCH  24  25
ATOM     25  C   UNL     1      -1.421  10.440  18.586  0.00  0.00    +0.000 C 
ATOM     26  C   UNL     1      -0.759  10.730  19.930  0.00  0.00    +0.000 C 
ATOM     27  C   UNL     1      -1.801  11.750  17.899  0.00  0.00    +0.000 C 
ENDBRANCH  24  25
ENDBRANCH  23  24
ENDBRANCH  22  23
ENDBRANCH  21  22
ENDBRANCH  11  21
TORSDOF 9
ENDMDL
MODEL 5
REMARK VINA RESULT:      -6.9      3.232      6.331
REMARK  Name = 
REMARK  13 active torsions:
REMARK  status: ('A' for Active; 'I' for Inactive)
REMARK    1  A    between atoms: C_1  and  C_2
REMARK    2  A    between atoms: C_2  and  C_3
REMARK    3  A    between atoms: C_2  and  N_4
REMARK    4  A    between atoms: C_5  and  C_7
REMARK    5  A    between atoms: C_7  and  S_8
REMARK    6  A    between atoms: S_8  and  C_9
REMARK    7  A    between atoms: N_19  and  C_20
REMARK    8  A    between atoms: C_20  and  C_21
REMARK    9  A    between atoms: C_21  and  C_22
REMARK   10  A    between atoms: C_22  and  O_23
REMARK   11  A    between atoms: O_23  and  C_24
REMARK   12  A    between atoms: C_24  and  C_25
REMARK   13  A    between atoms: C_24  and  C_26
REMARK                            x       y       z     vdW  Elec       q    Type
REMARK                         _______ _______ _______ _____ _____    ______ ____
ROOT
ATOM      1  C   UNL     1       3.485   7.137  17.631  0.00  0.00    +0.000 A 
ATOM      2  N   UNL     1       2.855   8.261  17.741  0.00  0.00    +0.000 NA
ATOM      3  C   UNL     1       2.046   8.481  18.855  0.00  0.00    +0.000 A 
ATOM      4  C   UNL     1       1.366   9.695  18.970  0.00  0.00    +0.000 A 
ATOM      5  C   UNL     1       0.626   9.990  20.119  0.00  0.00    +0.000 A 
ATOM      6  C   UNL     1       0.559   9.066  21.161  0.00  0.00    +0.000 A 
ATOM      7  C   UNL     1       1.213   7.841  21.044  0.00  0.00    +0.000 A 
ATOM      8  C   UNL     1       1.949   7.557  19.886  0.00  0.00    +0.000 A 
ATOM      9  C   UNL     1       2.659   6.279  19.723  0.00  0.00    +0.000 A 
ATOM     10  O   UNL     1       2.614   5.467  20.645  0.00  0.00    +0.000 OA
ATOM     11  N   UNL     1       3.357   6.081  18.529  0.00  0.00    +0.000 N 
ENDROOT
BRANCH   1  12
ATOM     12  S   UNL     1       4.569   6.998  16.253  0.00  0.00    +0.000 S 
BRANCH  12  13
ATOM     13  C   UNL     1       6.106   6.506  17.111  0.00  0.00    +0.000 C 
BRANCH  13  15
ATOM     14  N   UNL     1       6.596   5.522  14.932  0.00  0.00    +0.000 N 
ATOM     15  C   UNL     1       6.892   5.501  16.284  0.00  0.00    +0.000 C 
ATOM     16  O   UNL     1       7.755   4.781  16.772  0.00  0.00    +0.000 OA
ATOM     17  H   UNL     1       5.731   5.976  14.662  0.00  0.00    +0.000 HD
BRANCH  14  19
ATOM     18  C   UNL     1       6.128   3.734  13.315  0.00  0.00    +0.000 C 
ATOM     19  C   UNL     1       7.199   4.581  13.997  0.00  0.00    +0.000 C 
ATOM     20  C   UNL     1       8.028   5.328  12.956  0.00  0.00    +0.000 C 
ENDBRANCH  14  19
ENDBRANCH  13  15
ENDBRANCH  12  13
ENDBRANCH   1  12
BRANCH  11  21
ATOM     21  C   UNL     1       4.040   4.778  18.401  0.00  0.00    +0.000 C 
BRANCH  21  22
ATOM     22  C   UNL     1       3.493   3.859  17.289  0.00  0.00    +0.000 C 
BRANCH  22  23
ATOM     23  C   UNL     1       2.553   2.777  17.799  0.00  0.00    +0.000 C 
BRANCH  23  24
ATOM     24  O   UNL     1       2.875   2.499  19.156  0.00  0.00    +0.000 OA
BRANCH  24  25
ATOM     25  C   UNL     1       1.754   2.176  19.981  0.00  0.00    +0.000 C 
ATOM     26  C   UNL     1       2.021   2.497  21.449  0.00  0.00    +0.000 C 
ATOM     27  C   UNL     1       0.588   3.017  19.467  0.00  0.00    +0.000 C 
ENDBRANCH  24  25
ENDBRANCH  23  24
ENDBRANCH  22  23
ENDBRANCH  21  22
ENDBRANCH  11  21
TORSDOF 9
ENDMDL
MODEL 6
REMARK VINA RESULT:      -6.9      1.014      1.587
REMARK  Name = 
REMARK  13 active torsions:
REMARK  status: ('A' for Active; 'I' for Inactive)
REMARK    1  A    between atoms: C_1  and  C_2
REMARK    2  A    between atoms: C_2  and  C_3
REMARK    3  A    between atoms: C_2  and  N_4
REMARK    4  A    between atoms: C_5  and  C_7
REMARK    5  A    between atoms: C_7  and  S_8
REMARK    6  A    between atoms: S_8  and  C_9
REMARK    7  A    between atoms: N_19  and  C_20
REMARK    8  A    between atoms: C_20  and  C_21
REMARK    9  A    between atoms: C_21  and  C_22
REMARK   10  A    between atoms: C_22  and  O_23
REMARK   11  A    between atoms: O_23  and  C_24
REMARK   12  A    between atoms: C_24  and  C_25
REMARK   13  A    between atoms: C_24  and  C_26
REMARK                            x       y       z     vdW  Elec       q    Type
REMARK                         _______ _______ _______ _____ _____    ______ ____
ROOT
ATOM      1  C   UNL     1       7.090   5.624  17.185  0.00  0.00    +0.000 A 
ATOM      2  N   UNL     1       7.592   5.755  16.000  0.00  0.00    +0.000 NA
ATOM      3  C   UNL     1       7.061   5.007  14.951  0.00  0.00    +0.000 A 
ATOM      4  C   UNL     1       7.606   5.150  13.673  0.00  0.00    +0.000 A 
ATOM      5  C   UNL     1       7.035   4.492  12.579  0.00  0.00    +0.000 A 
ATOM      6  C   UNL     1       5.916   3.681  12.760  0.00  0.00    +0.000 A 
ATOM      7  C   UNL     1       5.382   3.511  14.036  0.00  0.00    +0.000 A 
ATOM      8  C   UNL     1       5.964   4.174  15.124  0.00  0.00    +0.000 A 
ATOM      9  C   UNL     1       5.429   4.028  16.486  0.00  0.00    +0.000 A 
ATOM     10  O   UNL     1       4.434   3.325  16.649  0.00  0.00    +0.000 OA
ATOM     11  N   UNL     1       6.083   4.720  17.509  0.00  0.00    +0.000 N 
ENDROOT
BRANCH   1  12
ATOM     12  S   UNL     1       7.748   6.693  18.418  0.00  0.00    +0.000 S 
BRANCH  12  13
ATOM     13  C   UNL     1       7.690   8.282  17.519  0.00  0.00    +0.000 C 
BRANCH  13  15
ATOM     14  N   UNL     1       8.433  10.602  17.663  0.00  0.00    +0.000 N 
ATOM     15  C   UNL     1       8.485   9.351  18.252  0.00  0.00    +0.000 C 
ATOM     16  O   UNL     1       9.069   9.127  19.306  0.00  0.00    +0.000 OA
ATOM     17  H   UNL     1       8.125  10.640  16.700  0.00  0.00    +0.000 HD
BRANCH  14  19
ATOM     18  C   UNL     1      10.636  11.687  17.695  0.00  0.00    +0.000 C 
ATOM     19  C   UNL     1       9.192  11.731  18.187  0.00  0.00    +0.000 C 
ATOM     20  C   UNL     1       8.533  13.046  17.779  0.00  0.00    +0.000 C 
ENDBRANCH  14  19
ENDBRANCH  13  15
ENDBRANCH  12  13
ENDBRANCH   1  12
BRANCH  11  21
ATOM     21  C   UNL     1       5.524   4.530  18.862  0.00  0.00    +0.000 C 
BRANCH  21  22
ATOM     22  C   UNL     1       4.363   5.478  19.230  0.00  0.00    +0.000 C 
BRANCH  22  23
ATOM     23  C   UNL     1       3.017   4.779  19.343  0.00  0.00    +0.000 C 
BRANCH  23  24
ATOM     24  O   UNL     1       2.002   5.767  19.479  0.00  0.00    +0.000 OA
BRANCH  24  25
ATOM     25  C   UNL     1       2.475   7.115  19.453  0.00  0.00    +0.000 C 
ATOM     26  C   UNL     1       2.231   7.774  18.099  0.00  0.00    +0.000 C 
ATOM     27  C   UNL     1       1.705   7.859  20.542  0.00  0.00    +0.000 C 
ENDBRANCH  24  25
ENDBRANCH  23  24
ENDBRANCH  22  23
ENDBRANCH  21  22
ENDBRANCH  11  21
TORSDOF 9
ENDMDL
MODEL 7
REMARK VINA RESULT:      -6.9      3.578      6.248
REMARK  Name = 
REMARK  13 active torsions:
REMARK  status: ('A' for Active; 'I' for Inactive)
REMARK    1  A    between atoms: C_1  and  C_2
REMARK    2  A    between atoms: C_2  and  C_3
REMARK    3  A    between atoms: C_2  and  N_4
REMARK    4  A    between atoms: C_5  and  C_7
REMARK    5  A    between atoms: C_7  and  S_8
REMARK    6  A    between atoms: S_8  and  C_9
REMARK    7  A    between atoms: N_19  and  C_20
REMARK    8  A    between atoms: C_20  and  C_21
REMARK    9  A    between atoms: C_21  and  C_22
REMARK   10  A    between atoms: C_22  and  O_23
REMARK   11  A    between atoms: O_23  and  C_24
REMARK   12  A    between atoms: C_24  and  C_25
REMARK   13  A    between atoms: C_24  and  C_26
REMARK                            x       y       z     vdW  Elec       q    Type
REMARK                         _______ _______ _______ _____ _____    ______ ____
ROOT
ATOM      1  C   UNL     1       3.643   6.270  17.988  0.00  0.00    +0.000 A 
ATOM      2  N   UNL     1       2.499   5.672  17.915  0.00  0.00    +0.000 NA
ATOM      3  C   UNL     1       2.402   4.339  18.311  0.00  0.00    +0.000 A 
ATOM      4  C   UNL     1       1.165   3.696  18.230  0.00  0.00    +0.000 A 
ATOM      5  C   UNL     1       1.008   2.393  18.711  0.00  0.00    +0.000 A 
ATOM      6  C   UNL     1       2.093   1.722  19.274  0.00  0.00    +0.000 A 
ATOM      7  C   UNL     1       3.337   2.346  19.335  0.00  0.00    +0.000 A 
ATOM      8  C   UNL     1       3.482   3.651  18.847  0.00  0.00    +0.000 A 
ATOM      9  C   UNL     1       4.775   4.349  18.897  0.00  0.00    +0.000 A 
ATOM     10  O   UNL     1       5.732   3.767  19.405  0.00  0.00    +0.000 OA
ATOM     11  N   UNL     1       4.825   5.645  18.376  0.00  0.00    +0.000 N 
ENDROOT
BRANCH   1  12
ATOM     12  S   UNL     1       3.642   7.980  17.577  0.00  0.00    +0.000 S 
BRANCH  12  13
ATOM     13  C   UNL     1       1.852   8.328  17.691  0.00  0.00    +0.000 C 
BRANCH  13  15
ATOM     14  N   UNL     1       1.758  10.745  18.020  0.00  0.00    +0.000 N 
ATOM     15  C   UNL     1       1.586   9.507  18.615  0.00  0.00    +0.000 C 
ATOM     16  O   UNL     1       1.196   9.363  19.767  0.00  0.00    +0.000 OA
ATOM     17  H   UNL     1       2.288  10.766  17.158  0.00  0.00    +0.000 HD
BRANCH  14  19
ATOM     18  C   UNL     1       2.657  13.010  18.325  0.00  0.00    +0.000 C 
ATOM     19  C   UNL     1       1.617  11.986  18.772  0.00  0.00    +0.000 C 
ATOM     20  C   UNL     1       0.209  12.550  18.600  0.00  0.00    +0.000 C 
ENDBRANCH  14  19
ENDBRANCH  13  15
ENDBRANCH  12  13
ENDBRANCH   1  12
BRANCH  11  21
ATOM     21  C   UNL     1       6.147   6.301  18.431  0.00  0.00    +0.000 C 
BRANCH  21  22
ATOM     22  C   UNL     1       6.769   6.636  17.059  0.00  0.00    +0.000 C 
BRANCH  22  23
ATOM     23  C   UNL     1       6.978   5.419  16.170  0.00  0.00    +0.000 C 
BRANCH  23  24
ATOM     24  O   UNL     1       6.256   5.613  14.960  0.00  0.00    +0.000 OA
BRANCH  24  25
ATOM     25  C   UNL     1       5.604   4.444  14.461  0.00  0.00    +0.000 C 
ATOM     26  C   UNL     1       6.333   3.860  13.255  0.00  0.00    +0.000 C 
ATOM     27  C   UNL     1       5.600   3.434  15.607  0.00  0.00    +0.000 C 
ENDBRANCH  24  25
ENDBRANCH  23  24
ENDBRANCH  22  23
ENDBRANCH  21  22
ENDBRANCH  11  21
TORSDOF 9
ENDMDL
MODEL 8
REMARK VINA RESULT:      -6.9      4.174      7.554
REMARK  Name = 
REMARK  13 active torsions:
REMARK  status: ('A' for Active; 'I' for Inactive)
REMARK    1  A    between atoms: C_1  and  C_2
REMARK    2  A    between atoms: C_2  and  C_3
REMARK    3  A    between atoms: C_2  and  N_4
REMARK    4  A    between atoms: C_5  and  C_7
REMARK    5  A    between atoms: C_7  and  S_8
REMARK    6  A    between atoms: S_8  and  C_9
REMARK    7  A    between atoms: N_19  and  C_20
REMARK    8  A    between atoms: C_20  and  C_21
REMARK    9  A    between atoms: C_21  and  C_22
REMARK   10  A    between atoms: C_22  and  O_23
REMARK   11  A    between atoms: O_23  and  C_24
REMARK   12  A    between atoms: C_24  and  C_25
REMARK   13  A    between atoms: C_24  and  C_26
REMARK                            x       y       z     vdW  Elec       q    Type
REMARK                         _______ _______ _______ _____ _____    ______ ____
ROOT
ATOM      1  C   UNL     1       2.928   6.511  18.582  0.00  0.00    +0.000 A 
ATOM      2  N   UNL     1       1.940   5.960  19.210  0.00  0.00    +0.000 NA
ATOM      3  C   UNL     1       2.133   4.727  19.831  0.00  0.00    +0.000 A 
ATOM      4  C   UNL     1       1.064   4.135  20.508  0.00  0.00    +0.000 A 
ATOM      5  C   UNL     1       1.247   2.949  21.226  0.00  0.00    +0.000 A 
ATOM      6  C   UNL     1       2.503   2.346  21.268  0.00  0.00    +0.000 A 
ATOM      7  C   UNL     1       3.569   2.916  20.574  0.00  0.00    +0.000 A 
ATOM      8  C   UNL     1       3.372   4.102  19.856  0.00  0.00    +0.000 A 
ATOM      9  C   UNL     1       4.470   4.741  19.115  0.00  0.00    +0.000 A 
ATOM     10  O   UNL     1       5.583   4.220  19.159  0.00  0.00    +0.000 OA
ATOM     11  N   UNL     1       4.175   5.916  18.419  0.00  0.00    +0.000 N 
ENDROOT
BRANCH   1  12
ATOM     12  S   UNL     1       2.622   8.115  17.930  0.00  0.00    +0.000 S 
BRANCH  12  13
ATOM     13  C   UNL     1       1.715   8.856  19.333  0.00  0.00    +0.000 C 
BRANCH  13  15
ATOM     14  N   UNL     1       0.244  10.762  19.728  0.00  0.00    +0.000 N 
ATOM     15  C   UNL     1       0.597   9.761  18.840  0.00  0.00    +0.000 C 
ATOM     16  O   UNL     1       0.100   9.643  17.726  0.00  0.00    +0.000 OA
ATOM     17  H   UNL     1       0.541  10.645  20.689  0.00  0.00    +0.000 HD
BRANCH  14  19
ATOM     18  C   UNL     1      -1.580  12.054  20.746  0.00  0.00    +0.000 C 
ATOM     19  C   UNL     1      -0.856  11.680  19.456  0.00  0.00    +0.000 C 
ATOM     20  C   UNL     1      -0.338  12.933  18.756  0.00  0.00    +0.000 C 
ENDBRANCH  14  19
ENDBRANCH  13  15
ENDBRANCH  12  13
ENDBRANCH   1  12
BRANCH  11  21
ATOM     21  C   UNL     1       5.303   6.513  17.674  0.00  0.00    +0.000 C 
BRANCH  21  22
ATOM     22  C   UNL     1       5.368   6.143  16.177  0.00  0.00    +0.000 C 
BRANCH  22  23
ATOM     23  C   UNL     1       6.360   5.032  15.866  0.00  0.00    +0.000 C 
BRANCH  23  24
ATOM     24  O   UNL     1       7.241   5.483  14.845  0.00  0.00    +0.000 OA
BRANCH  24  25
ATOM     25  C   UNL     1       7.404   4.575  13.754  0.00  0.00    +0.000 C 
ATOM     26  C   UNL     1       6.104   3.849  13.423  0.00  0.00    +0.000 C 
ATOM     27  C   UNL     1       7.851   5.416  12.560  0.00  0.00    +0.000 C 
ENDBRANCH  24  25
ENDBRANCH  23  24
ENDBRANCH  22  23
ENDBRANCH  21  22
ENDBRANCH  11  21
TORSDOF 9
ENDMDL
MODEL 9
REMARK VINA RESULT:      -6.9      3.860      7.332
REMARK  Name = 
REMARK  13 active torsions:
REMARK  status: ('A' for Active; 'I' for Inactive)
REMARK    1  A    between atoms: C_1  and  C_2
REMARK    2  A    between atoms: C_2  and  C_3
REMARK    3  A    between atoms: C_2  and  N_4
REMARK    4  A    between atoms: C_5  and  C_7
REMARK    5  A    between atoms: C_7  and  S_8
REMARK    6  A    between atoms: S_8  and  C_9
REMARK    7  A    between atoms: N_19  and  C_20
REMARK    8  A    between atoms: C_20  and  C_21
REMARK    9  A    between atoms: C_21  and  C_22
REMARK   10  A    between atoms: C_22  and  O_23
REMARK   11  A    between atoms: O_23  and  C_24
REMARK   12  A    between atoms: C_24  and  C_25
REMARK   13  A    between atoms: C_24  and  C_26
REMARK                            x       y       z     vdW  Elec       q    Type
REMARK                         _______ _______ _______ _____ _____    ______ ____
ROOT
ATOM      1  C   UNL     1       3.309   6.537  18.396  0.00  0.00    +0.000 A 
ATOM      2  N   UNL     1       2.303   6.175  19.126  0.00  0.00    +0.000 NA
ATOM      3  C   UNL     1       2.328   4.927  19.746  0.00  0.00    +0.000 A 
ATOM      4  C   UNL     1       1.241   4.539  20.531  0.00  0.00    +0.000 A 
ATOM      5  C   UNL     1       1.273   3.339  21.249  0.00  0.00    +0.000 A 
ATOM      6  C   UNL     1       2.396   2.516  21.180  0.00  0.00    +0.000 A 
ATOM      7  C   UNL     1       3.475   2.883  20.377  0.00  0.00    +0.000 A 
ATOM      8  C   UNL     1       3.429   4.086  19.662  0.00  0.00    +0.000 A 
ATOM      9  C   UNL     1       4.548   4.514  18.808  0.00  0.00    +0.000 A 
ATOM     10  O   UNL     1       5.546   3.798  18.754  0.00  0.00    +0.000 OA
ATOM     11  N   UNL     1       4.406   5.724  18.124  0.00  0.00    +0.000 N 
ENDROOT
BRANCH   1  12
ATOM     12  S   UNL     1       3.238   8.171  17.750  0.00  0.00    +0.000 S 
BRANCH  12  13
ATOM     13  C   UNL     1       1.430   8.432  17.756  0.00  0.00    +0.000 C 
BRANCH  13  15
ATOM     14  N   UNL     1       0.394  10.583  18.265  0.00  0.00    +0.000 N 
ATOM     15  C   UNL     1       1.035   9.474  18.791  0.00  0.00    +0.000 C 
ATOM     16  O   UNL     1       1.218   9.309  19.991  0.00  0.00    +0.000 OA
ATOM     17  H   UNL     1       0.488  10.733  17.268  0.00  0.00    +0.000 HD
BRANCH  14  19
ATOM     18  C   UNL     1      -0.052  12.998  18.273  0.00  0.00    +0.000 C 
ATOM     19  C   UNL     1       0.007  11.715  19.098  0.00  0.00    +0.000 C 
ATOM     20  C   UNL     1      -1.343  11.447  19.759  0.00  0.00    +0.000 C 
ENDBRANCH  14  19
ENDBRANCH  13  15
ENDBRANCH  12  13
ENDBRANCH   1  12
BRANCH  11  21
ATOM     21  C   UNL     1       5.545   6.105  17.265  0.00  0.00    +0.000 C 
BRANCH  21  22
ATOM     22  C   UNL     1       5.292   5.981  15.748  0.00  0.00    +0.000 C 
BRANCH  22  23
ATOM     23  C   UNL     1       6.179   4.952  15.064  0.00  0.00    +0.000 C 
BRANCH  23  24
ATOM     24  O   UNL     1       5.529   4.508  13.879  0.00  0.00    +0.000 OA
BRANCH  24  25
ATOM     25  C   UNL     1       6.337   3.702  13.021  0.00  0.00    +0.000 C 
ATOM     26  C   UNL     1       5.496   2.945  11.997  0.00  0.00    +0.000 C 
ATOM     27  C   UNL     1       7.291   4.658  12.308  0.00  0.00    +0.000 C 
ENDBRANCH  24  25
ENDBRANCH  23  24
ENDBRANCH  22  23
ENDBRANCH  21  22
ENDBRANCH  11  21
TORSDOF 9
ENDMDL
