MODEL 1
REMARK VINA RESULT:      -7.1      0.000      0.000
REMARK  Name = 
REMARK  7 active torsions:
REMARK  status: ('A' for Active; 'I' for Inactive)
REMARK    1  A    between atoms: C_1  and  C_2
REMARK    2  A    between atoms: C_2  and  N_3
REMARK    3  A    between atoms: C_5  and  C_6
REMARK    4  A    between atoms: C_6  and  C_7
REMARK    5  A    between atoms: C_8  and  C_9
REMARK    6  A    between atoms: N_21  and  C_22
REMARK    7  A    between atoms: C_22  and  C_23
REMARK                            x       y       z     vdW  Elec       q    Type
REMARK                         _______ _______ _______ _____ _____    ______ ____
ROOT
ATOM      1  C   UNL     1       3.405  15.503  20.912  0.00  0.00    +0.000 C 
ATOM      2  C   UNL     1       3.221  16.972  21.127  0.00  0.00    +0.000 C 
ATOM      3  C   UNL     1       4.363  14.843  20.243  0.00  0.00    +0.000 C 
ENDROOT
BRANCH   1   6
ATOM      4  N   UNL     1       0.787  14.850  19.618  0.00  0.00    +0.000 N 
ATOM      5  C   UNL     1       1.120  14.518  20.938  0.00  0.00    +0.000 C 
ATOM      6  C   UNL     1       2.372  14.586  21.425  0.00  0.00    +0.000 C 
ATOM      7  S   UNL     1      -0.202  13.699  21.832  0.00  0.00    +0.000 S 
ATOM      8  C   UNL     1      -1.104  13.480  20.095  0.00  0.00    +0.000 A 
ATOM      9  C   UNL     1      -1.953  12.387  20.024  0.00  0.00    +0.000 A 
ATOM     10  C   UNL     1      -1.531  11.308  19.267  0.00  0.00    +0.000 A 
ATOM     11  C   UNL     1      -0.243  11.298  18.718  0.00  0.00    +0.000 A 
ATOM     12  C   UNL     1       0.307  10.059  18.381  0.00  0.00    +0.000 A 
ATOM     13  C   UNL     1       1.656   9.931  18.077  0.00  0.00    +0.000 A 
ATOM     14  C   UNL     1       2.455  11.068  18.038  0.00  0.00    +0.000 A 
ATOM     15  C   UNL     1       1.902  12.339  18.295  0.00  0.00    +0.000 A 
ATOM     16  C   UNL     1       0.540  12.501  18.673  0.00  0.00    +0.000 A 
ATOM     17  C   UNL     1      -0.033  13.708  19.197  0.00  0.00    +0.000 A 
BRANCH   4  19
ATOM     18  C   UNL     1       0.656  17.181  18.358  0.00  0.00    +0.000 C 
ATOM     19  C   UNL     1       0.133  16.193  19.410  0.00  0.00    +0.000 C 
ENDBRANCH   4  19
ENDBRANCH   1   6
BRANCH   3  20
ATOM     20  C   UNL     1       5.560  15.208  19.563  0.00  0.00    +0.000 A 
ATOM     21  S   UNL     1       5.497  14.836  17.841  0.00  0.00    +0.000 S 
ATOM     22  C   UNL     1       7.082  14.223  18.017  0.00  0.00    +0.000 A 
ATOM     23  C   UNL     1       7.770  13.087  17.619  0.00  0.00    +0.000 A 
ATOM     24  C   UNL     1       9.151  13.100  17.785  0.00  0.00    +0.000 A 
ATOM     25  C   UNL     1       9.772  14.359  17.905  0.00  0.00    +0.000 A 
ATOM     26  C   UNL     1      10.997  14.503  17.262  0.00  0.00    +0.000 A 
ATOM     27  C   UNL     1      11.344  15.748  16.771  0.00  0.00    +0.000 A 
ATOM     28  C   UNL     1      10.536  16.856  17.040  0.00  0.00    +0.000 A 
ATOM     29  C   UNL     1       9.423  16.731  17.900  0.00  0.00    +0.000 A 
ATOM     30  C   UNL     1       9.036  15.461  18.400  0.00  0.00    +0.000 A 
ATOM     31  C   UNL     1       7.690  15.209  18.785  0.00  0.00    +0.000 A 
ATOM     32  N   UNL     1       6.859  15.253  19.945  0.00  0.00    +0.000 N 
BRANCH  32  33
ATOM     33  C   UNL     1       7.138  14.535  21.234  0.00  0.00    +0.000 C 
ATOM     34  C   UNL     1       8.291  13.576  21.435  0.00  0.00    +0.000 C 
ENDBRANCH  32  33
ENDBRANCH   3  20
TORSDOF 4
ENDMDL
MODEL 2
REMARK VINA RESULT:      -7.0      5.462      8.007
REMARK  Name = 
REMARK  7 active torsions:
REMARK  status: ('A' for Active; 'I' for Inactive)
REMARK    1  A    between atoms: C_1  and  C_2
REMARK    2  A    between atoms: C_2  and  N_3
REMARK    3  A    between atoms: C_5  and  C_6
REMARK    4  A    between atoms: C_6  and  C_7
REMARK    5  A    between atoms: C_8  and  C_9
REMARK    6  A    between atoms: N_21  and  C_22
REMARK    7  A    between atoms: C_22  and  C_23
REMARK                            x       y       z     vdW  Elec       q    Type
REMARK                         _______ _______ _______ _____ _____    ______ ____
ROOT
ATOM      1  C   UNL     1       1.055   9.095  21.849  0.00  0.00    +0.000 C 
ATOM      2  C   UNL     1       2.189   9.372  22.785  0.00  0.00    +0.000 C 
ATOM      3  C   UNL     1       1.052   8.472  20.660  0.00  0.00    +0.000 C 
ENDROOT
BRANCH   1   6
ATOM      4  N   UNL     1      -0.099  11.723  21.002  0.00  0.00    +0.000 N 
ATOM      5  C   UNL     1      -0.651  10.901  21.995  0.00  0.00    +0.000 C 
ATOM      6  C   UNL     1      -0.277   9.623  22.189  0.00  0.00    +0.000 C 
ATOM      7  S   UNL     1      -2.109  11.593  22.777  0.00  0.00    +0.000 S 
ATOM      8  C   UNL     1      -2.133  12.922  21.325  0.00  0.00    +0.000 A 
ATOM      9  C   UNL     1      -3.390  13.428  21.032  0.00  0.00    +0.000 A 
ATOM     10  C   UNL     1      -3.981  13.009  19.852  0.00  0.00    +0.000 A 
ATOM     11  C   UNL     1      -3.369  12.017  19.076  0.00  0.00    +0.000 A 
ATOM     12  C   UNL     1      -4.175  11.303  18.187  0.00  0.00    +0.000 A 
ATOM     13  C   UNL     1      -3.716  10.145  17.574  0.00  0.00    +0.000 A 
ATOM     14  C   UNL     1      -2.407   9.732  17.794  0.00  0.00    +0.000 A 
ATOM     15  C   UNL     1      -1.551  10.484  18.624  0.00  0.00    +0.000 A 
ATOM     16  C   UNL     1      -2.005  11.638  19.320  0.00  0.00    +0.000 A 
ATOM     17  C   UNL     1      -1.289  12.305  20.370  0.00  0.00    +0.000 A 
BRANCH   4  19
ATOM     18  C   UNL     1       2.078  13.171  20.557  0.00  0.00    +0.000 C 
ATOM     19  C   UNL     1       0.917  12.738  21.463  0.00  0.00    +0.000 C 
ENDBRANCH   4  19
ENDBRANCH   1   6
BRANCH   3  20
ATOM     20  C   UNL     1       2.021   7.798  19.866  0.00  0.00    +0.000 A 
ATOM     21  S   UNL     1       1.728   7.987  18.138  0.00  0.00    +0.000 S 
ATOM     22  C   UNL     1       2.054   6.316  18.001  0.00  0.00    +0.000 A 
ATOM     23  C   UNL     1       1.477   5.228  17.363  0.00  0.00    +0.000 A 
ATOM     24  C   UNL     1       2.223   4.055  17.326  0.00  0.00    +0.000 A 
ATOM     25  C   UNL     1       3.614   4.171  17.516  0.00  0.00    +0.000 A 
ATOM     26  C   UNL     1       4.412   3.350  16.725  0.00  0.00    +0.000 A 
ATOM     27  C   UNL     1       5.664   3.805  16.354  0.00  0.00    +0.000 A 
ATOM     28  C   UNL     1       6.157   5.002  16.879  0.00  0.00    +0.000 A 
ATOM     29  C   UNL     1       5.429   5.698  17.869  0.00  0.00    +0.000 A 
ATOM     30  C   UNL     1       4.134   5.261  18.250  0.00  0.00    +0.000 A 
ATOM     31  C   UNL     1       3.188   6.176  18.792  0.00  0.00    +0.000 A 
ATOM     32  N   UNL     1       2.744   6.667  20.057  0.00  0.00    +0.000 N 
BRANCH  32  33
ATOM     33  C   UNL     1       2.246   5.814  21.188  0.00  0.00    +0.000 C 
ATOM     34  C   UNL     1       1.909   4.344  21.052  0.00  0.00    +0.000 C 
ENDBRANCH  32  33
ENDBRANCH   3  20
TORSDOF 4
ENDMDL
MODEL 3
REMARK VINA RESULT:      -6.7      3.715      6.526
REMARK  Name = 
REMARK  7 active torsions:
REMARK  status: ('A' for Active; 'I' for Inactive)
REMARK    1  A    between atoms: C_1  and  C_2
REMARK    2  A    between atoms: C_2  and  N_3
REMARK    3  A    between atoms: C_5  and  C_6
REMARK    4  A    between atoms: C_6  and  C_7
REMARK    5  A    between atoms: C_8  and  C_9
REMARK    6  A    between atoms: N_21  and  C_22
REMARK    7  A    between atoms: C_22  and  C_23
REMARK                            x       y       z     vdW  Elec       q    Type
REMARK                         _______ _______ _______ _____ _____    ______ ____
ROOT
ATOM      1  C   UNL     1      -1.475  13.125  21.603  0.00  0.00    +0.000 C 
ATOM      2  C   UNL     1      -1.780  13.104  20.138  0.00  0.00    +0.000 C 
ATOM      3  C   UNL     1      -0.403  13.604  22.253  0.00  0.00    +0.000 C 
ENDROOT
BRANCH   1   6
ATOM      4  N   UNL     1      -4.190  14.114  22.380  0.00  0.00    +0.000 N 
ATOM      5  C   UNL     1      -3.513  13.072  23.029  0.00  0.00    +0.000 C 
ATOM      6  C   UNL     1      -2.421  12.471  22.524  0.00  0.00    +0.000 C 
ATOM      7  S   UNL     1      -4.402  12.399  24.434  0.00  0.00    +0.000 S 
ATOM      8  C   UNL     1      -5.972  13.397  23.790  0.00  0.00    +0.000 A 
ATOM      9  C   UNL     1      -7.191  12.838  24.141  0.00  0.00    +0.000 A 
ATOM     10  C   UNL     1      -7.916  12.221  23.136  0.00  0.00    +0.000 A 
ATOM     11  C   UNL     1      -7.358  12.070  21.861  0.00  0.00    +0.000 A 
ATOM     12  C   UNL     1      -7.886  11.072  21.039  0.00  0.00    +0.000 A 
ATOM     13  C   UNL     1      -7.235  10.682  19.875  0.00  0.00    +0.000 A 
ATOM     14  C   UNL     1      -6.079  11.348  19.487  0.00  0.00    +0.000 A 
ATOM     15  C   UNL     1      -5.575  12.414  20.261  0.00  0.00    +0.000 A 
ATOM     16  C   UNL     1      -6.176  12.797  21.491  0.00  0.00    +0.000 A 
ATOM     17  C   UNL     1      -5.590  13.683  22.457  0.00  0.00    +0.000 A 
BRANCH   4  19
ATOM     18  C   UNL     1      -2.905  15.765  24.010  0.00  0.00    +0.000 C 
ATOM     19  C   UNL     1      -3.939  15.505  22.907  0.00  0.00    +0.000 C 
ENDBRANCH   4  19
ENDBRANCH   1   6
BRANCH   3  20
ATOM     20  C   UNL     1       0.779  14.304  21.881  0.00  0.00    +0.000 A 
ATOM     21  S   UNL     1       0.488  16.021  21.607  0.00  0.00    +0.000 S 
ATOM     22  C   UNL     1       1.457  15.860  20.209  0.00  0.00    +0.000 A 
ATOM     23  C   UNL     1       1.381  16.256  18.881  0.00  0.00    +0.000 A 
ATOM     24  C   UNL     1       2.533  16.109  18.117  0.00  0.00    +0.000 A 
ATOM     25  C   UNL     1       3.757  16.011  18.810  0.00  0.00    +0.000 A 
ATOM     26  C   UNL     1       4.840  16.673  18.239  0.00  0.00    +0.000 A 
ATOM     27  C   UNL     1       5.818  17.182  19.073  0.00  0.00    +0.000 A 
ATOM     28  C   UNL     1       5.777  16.914  20.443  0.00  0.00    +0.000 A 
ATOM     29  C   UNL     1       4.801  16.037  20.968  0.00  0.00    +0.000 A 
ATOM     30  C   UNL     1       3.776  15.519  20.134  0.00  0.00    +0.000 A 
ATOM     31  C   UNL     1       2.528  15.112  20.683  0.00  0.00    +0.000 A 
ATOM     32  N   UNL     1       1.886  13.941  21.189  0.00  0.00    +0.000 N 
BRANCH  32  33
ATOM     33  C   UNL     1       1.735  12.648  20.439  0.00  0.00    +0.000 C 
ATOM     34  C   UNL     1       1.987  12.498  18.955  0.00  0.00    +0.000 C 
ENDBRANCH  32  33
ENDBRANCH   3  20
TORSDOF 4
ENDMDL
MODEL 4
REMARK VINA RESULT:      -6.5      3.213      5.987
REMARK  Name = 
REMARK  7 active torsions:
REMARK  status: ('A' for Active; 'I' for Inactive)
REMARK    1  A    between atoms: C_1  and  C_2
REMARK    2  A    between atoms: C_2  and  N_3
REMARK    3  A    between atoms: C_5  and  C_6
REMARK    4  A    between atoms: C_6  and  C_7
REMARK    5  A    between atoms: C_8  and  C_9
REMARK    6  A    between atoms: N_21  and  C_22
REMARK    7  A    between atoms: C_22  and  C_23
REMARK                            x       y       z     vdW  Elec       q    Type
REMARK                         _______ _______ _______ _____ _____    ______ ____
ROOT
ATOM      1  C   UNL     1      -2.324  13.362  22.886  0.00  0.00    +0.000 C 
ATOM      2  C   UNL     1      -2.345  14.322  24.034  0.00  0.00    +0.000 C 
ATOM      3  C   UNL     1      -1.360  13.118  21.986  0.00  0.00    +0.000 C 
ENDROOT
BRANCH   1   6
ATOM      4  N   UNL     1      -4.269  13.838  20.662  0.00  0.00    +0.000 N 
ATOM      5  C   UNL     1      -4.507  12.988  21.751  0.00  0.00    +0.000 C 
ATOM      6  C   UNL     1      -3.543  12.587  22.600  0.00  0.00    +0.000 C 
ATOM      7  S   UNL     1      -6.132  12.231  21.734  0.00  0.00    +0.000 S 
ATOM      8  C   UNL     1      -6.296  12.863  19.876  0.00  0.00    +0.000 A 
ATOM      9  C   UNL     1      -7.132  12.095  19.081  0.00  0.00    +0.000 A 
ATOM     10  C   UNL     1      -6.533  11.293  18.125  0.00  0.00    +0.000 A 
ATOM     11  C   UNL     1      -5.137  11.185  18.076  0.00  0.00    +0.000 A 
ATOM     12  C   UNL     1      -4.598  10.059  17.450  0.00  0.00    +0.000 A 
ATOM     13  C   UNL     1      -3.252   9.742  17.578  0.00  0.00    +0.000 A 
ATOM     14  C   UNL     1      -2.416  10.600  18.283  0.00  0.00    +0.000 A 
ATOM     15  C   UNL     1      -2.925  11.785  18.853  0.00  0.00    +0.000 A 
ATOM     16  C   UNL     1      -4.308  12.109  18.797  0.00  0.00    +0.000 A 
ATOM     17  C   UNL     1      -4.945  13.146  19.560  0.00  0.00    +0.000 A 
BRANCH   4  19
ATOM     18  C   UNL     1      -3.647  16.378  21.108  0.00  0.00    +0.000 C 
ATOM     19  C   UNL     1      -4.683  15.279  20.836  0.00  0.00    +0.000 C 
ENDBRANCH   4  19
ENDBRANCH   1   6
BRANCH   3  20
ATOM     20  C   UNL     1      -0.025  13.568  21.781  0.00  0.00    +0.000 A 
ATOM     21  S   UNL     1       0.058  15.296  21.442  0.00  0.00    +0.000 S 
ATOM     22  C   UNL     1       1.167  14.899  20.204  0.00  0.00    +0.000 A 
ATOM     23  C   UNL     1       1.356  15.245  18.874  0.00  0.00    +0.000 A 
ATOM     24  C   UNL     1       2.555  14.854  18.290  0.00  0.00    +0.000 A 
ATOM     25  C   UNL     1       3.627  14.558  19.155  0.00  0.00    +0.000 A 
ATOM     26  C   UNL     1       4.886  14.982  18.740  0.00  0.00    +0.000 A 
ATOM     27  C   UNL     1       5.815  15.333  19.702  0.00  0.00    +0.000 A 
ATOM     28  C   UNL     1       5.530  15.136  21.055  0.00  0.00    +0.000 A 
ATOM     29  C   UNL     1       4.341  14.479  21.443  0.00  0.00    +0.000 A 
ATOM     30  C   UNL     1       3.365  14.127  20.476  0.00  0.00    +0.000 A 
ATOM     31  C   UNL     1       1.997  13.984  20.841  0.00  0.00    +0.000 A 
ATOM     32  N   UNL     1       1.079  12.976  21.264  0.00  0.00    +0.000 N 
BRANCH  32  33
ATOM     33  C   UNL     1       0.791  11.703  20.520  0.00  0.00    +0.000 C 
ATOM     34  C   UNL     1       1.179  11.463  19.077  0.00  0.00    +0.000 C 
ENDBRANCH  32  33
ENDBRANCH   3  20
TORSDOF 4
ENDMDL
MODEL 5
REMARK VINA RESULT:      -6.4      2.061      8.848
REMARK  Name = 
REMARK  7 active torsions:
REMARK  status: ('A' for Active; 'I' for Inactive)
REMARK    1  A    between atoms: C_1  and  C_2
REMARK    2  A    between atoms: C_2  and  N_3
REMARK    3  A    between atoms: C_5  and  C_6
REMARK    4  A    between atoms: C_6  and  C_7
REMARK    5  A    between atoms: C_8  and  C_9
REMARK    6  A    between atoms: N_21  and  C_22
REMARK    7  A    between atoms: C_22  and  C_23
REMARK                            x       y       z     vdW  Elec       q    Type
REMARK                         _______ _______ _______ _____ _____    ______ ____
ROOT
ATOM      1  C   UNL     1       6.110  16.800  19.095  0.00  0.00    +0.000 C 
ATOM      2  C   UNL     1       5.449  17.763  20.031  0.00  0.00    +0.000 C 
ATOM      3  C   UNL     1       5.636  15.673  18.542  0.00  0.00    +0.000 C 
ENDROOT
BRANCH   1   6
ATOM      4  N   UNL     1       8.507  15.882  20.633  0.00  0.00    +0.000 N 
ATOM      5  C   UNL     1       8.550  16.812  19.586  0.00  0.00    +0.000 C 
ATOM      6  C   UNL     1       7.522  17.025  18.743  0.00  0.00    +0.000 C 
ATOM      7  S   UNL     1      10.188  17.468  19.268  0.00  0.00    +0.000 S 
ATOM      8  C   UNL     1      10.877  16.033  20.429  0.00  0.00    +0.000 A 
ATOM      9  C   UNL     1      12.172  15.635  20.140  0.00  0.00    +0.000 A 
ATOM     10  C   UNL     1      12.333  14.403  19.530  0.00  0.00    +0.000 A 
ATOM     11  C   UNL     1      11.211  13.674  19.117  0.00  0.00    +0.000 A 
ATOM     12  C   UNL     1      11.397  12.709  18.124  0.00  0.00    +0.000 A 
ATOM     13  C   UNL     1      10.315  12.127  17.477  0.00  0.00    +0.000 A 
ATOM     14  C   UNL     1       9.026  12.459  17.876  0.00  0.00    +0.000 A 
ATOM     15  C   UNL     1       8.817  13.370  18.931  0.00  0.00    +0.000 A 
ATOM     16  C   UNL     1       9.898  14.035  19.573  0.00  0.00    +0.000 A 
ATOM     17  C   UNL     1       9.769  15.152  20.465  0.00  0.00    +0.000 A 
BRANCH   4  19
ATOM     18  C   UNL     1       7.135  15.963  22.902  0.00  0.00    +0.000 C 
ATOM     19  C   UNL     1       8.295  16.442  22.017  0.00  0.00    +0.000 C 
ENDBRANCH   4  19
ENDBRANCH   1   6
BRANCH   3  20
ATOM     20  C   UNL     1       4.386  14.991  18.542  0.00  0.00    +0.000 A 
ATOM     21  S   UNL     1       3.215  15.730  17.451  0.00  0.00    +0.000 S 
ATOM     22  C   UNL     1       2.074  15.543  18.709  0.00  0.00    +0.000 A 
ATOM     23  C   UNL     1       1.101  16.328  19.309  0.00  0.00    +0.000 A 
ATOM     24  C   UNL     1       0.217  15.684  20.167  0.00  0.00    +0.000 A 
ATOM     25  C   UNL     1       0.082  14.289  20.023  0.00  0.00    +0.000 A 
ATOM     26  C   UNL     1      -1.205  13.779  20.163  0.00  0.00    +0.000 A 
ATOM     27  C   UNL     1      -1.552  12.651  19.442  0.00  0.00    +0.000 A 
ATOM     28  C   UNL     1      -0.584  11.971  18.699  0.00  0.00    +0.000 A 
ATOM     29  C   UNL     1       0.770  12.367  18.764  0.00  0.00    +0.000 A 
ATOM     30  C   UNL     1       1.147  13.532  19.481  0.00  0.00    +0.000 A 
ATOM     31  C   UNL     1       2.329  14.246  19.141  0.00  0.00    +0.000 A 
ATOM     32  N   UNL     1       3.710  14.306  19.496  0.00  0.00    +0.000 N 
BRANCH  32  33
ATOM     33  C   UNL     1       4.236  14.524  20.886  0.00  0.00    +0.000 C 
ATOM     34  C   UNL     1       3.452  15.206  21.987  0.00  0.00    +0.000 C 
ENDBRANCH  32  33
ENDBRANCH   3  20
TORSDOF 4
ENDMDL
MODEL 6
REMARK VINA RESULT:      -6.4      4.182      9.186
REMARK  Name = 
REMARK  7 active torsions:
REMARK  status: ('A' for Active; 'I' for Inactive)
REMARK    1  A    between atoms: C_1  and  C_2
REMARK    2  A    between atoms: C_2  and  N_3
REMARK    3  A    between atoms: C_5  and  C_6
REMARK    4  A    between atoms: C_6  and  C_7
REMARK    5  A    between atoms: C_8  and  C_9
REMARK    6  A    between atoms: N_21  and  C_22
REMARK    7  A    between atoms: C_22  and  C_23
REMARK                            x       y       z     vdW  Elec       q    Type
REMARK                         _______ _______ _______ _____ _____    ______ ____
ROOT
ATOM      1  C   UNL     1       7.214  16.471  20.532  0.00  0.00    +0.000 C 
ATOM      2  C   UNL     1       6.488  17.753  20.794  0.00  0.00    +0.000 C 
ATOM      3  C   UNL     1       7.437  15.426  21.344  0.00  0.00    +0.000 C 
ENDROOT
BRANCH   1   6
ATOM      4  N   UNL     1      10.131  16.017  20.040  0.00  0.00    +0.000 N 
ATOM      5  C   UNL     1       9.202  16.342  19.042  0.00  0.00    +0.000 C 
ATOM      6  C   UNL     1       7.870  16.294  19.225  0.00  0.00    +0.000 C 
ATOM      7  S   UNL     1       9.929  16.524  17.412  0.00  0.00    +0.000 S 
ATOM      8  C   UNL     1      11.556  15.700  18.157  0.00  0.00    +0.000 A 
ATOM      9  C   UNL     1      12.332  15.024  17.229  0.00  0.00    +0.000 A 
ATOM     10  C   UNL     1      12.325  13.641  17.287  0.00  0.00    +0.000 A 
ATOM     11  C   UNL     1      11.460  12.981  18.169  0.00  0.00    +0.000 A 
ATOM     12  C   UNL     1      11.139  11.652  17.886  0.00  0.00    +0.000 A 
ATOM     13  C   UNL     1      10.103  11.007  18.548  0.00  0.00    +0.000 A 
ATOM     14  C   UNL     1       9.423  11.675  19.560  0.00  0.00    +0.000 A 
ATOM     15  C   UNL     1       9.786  12.989  19.917  0.00  0.00    +0.000 A 
ATOM     16  C   UNL     1      10.797  13.704  19.218  0.00  0.00    +0.000 A 
ATOM     17  C   UNL     1      11.050  15.112  19.342  0.00  0.00    +0.000 A 
BRANCH   4  19
ATOM     18  C   UNL     1      10.465  18.628  20.365  0.00  0.00    +0.000 C 
ATOM     19  C   UNL     1      10.806  17.177  20.729  0.00  0.00    +0.000 C 
ENDBRANCH   4  19
ENDBRANCH   1   6
BRANCH   3  20
ATOM     20  C   UNL     1       7.059  15.073  22.669  0.00  0.00    +0.000 A 
ATOM     21  S   UNL     1       8.413  14.460  23.617  0.00  0.00    +0.000 S 
ATOM     22  C   UNL     1       7.351  13.236  24.159  0.00  0.00    +0.000 A 
ATOM     23  C   UNL     1       7.401  11.859  24.319  0.00  0.00    +0.000 A 
ATOM     24  C   UNL     1       6.360  11.273  25.030  0.00  0.00    +0.000 A 
ATOM     25  C   UNL     1       5.614  12.108  25.884  0.00  0.00    +0.000 A 
ATOM     26  C   UNL     1       5.233  11.556  27.103  0.00  0.00    +0.000 A 
ATOM     27  C   UNL     1       5.111  12.392  28.198  0.00  0.00    +0.000 A 
ATOM     28  C   UNL     1       5.239  13.774  28.041  0.00  0.00    +0.000 A 
ATOM     29  C   UNL     1       5.385  14.332  26.751  0.00  0.00    +0.000 A 
ATOM     30  C   UNL     1       5.532  13.494  25.616  0.00  0.00    +0.000 A 
ATOM     31  C   UNL     1       6.200  13.959  24.449  0.00  0.00    +0.000 A 
ATOM     32  N   UNL     1       5.910  14.591  23.202  0.00  0.00    +0.000 N 
BRANCH  32  33
ATOM     33  C   UNL     1       4.937  14.077  22.180  0.00  0.00    +0.000 C 
ATOM     34  C   UNL     1       3.631  14.762  21.837  0.00  0.00    +0.000 C 
ENDBRANCH  32  33
ENDBRANCH   3  20
TORSDOF 4
ENDMDL
MODEL 7
REMARK VINA RESULT:      -6.3      1.705      2.143
REMARK  Name = 
REMARK  7 active torsions:
REMARK  status: ('A' for Active; 'I' for Inactive)
REMARK    1  A    between atoms: C_1  and  C_2
REMARK    2  A    between atoms: C_2  and  N_3
REMARK    3  A    between atoms: C_5  and  C_6
REMARK    4  A    between atoms: C_6  and  C_7
REMARK    5  A    between atoms: C_8  and  C_9
REMARK    6  A    between atoms: N_21  and  C_22
REMARK    7  A    between atoms: C_22  and  C_23
REMARK                            x       y       z     vdW  Elec       q    Type
REMARK                         _______ _______ _______ _____ _____    ______ ____
ROOT
ATOM      1  C   UNL     1       3.412  14.461  20.270  0.00  0.00    +0.000 C 
ATOM      2  C   UNL     1       3.049  13.574  19.121  0.00  0.00    +0.000 C 
ATOM      3  C   UNL     1       4.529  15.171  20.491  0.00  0.00    +0.000 C 
ENDROOT
BRANCH   1   6
ATOM      4  N   UNL     1       0.467  13.936  20.205  0.00  0.00    +0.000 N 
ATOM      5  C   UNL     1       1.135  14.555  21.270  0.00  0.00    +0.000 C 
ATOM      6  C   UNL     1       2.474  14.557  21.402  0.00  0.00    +0.000 C 
ATOM      7  S   UNL     1       0.050  15.071  22.601  0.00  0.00    +0.000 S 
ATOM      8  C   UNL     1      -1.350  13.982  21.746  0.00  0.00    +0.000 A 
ATOM      9  C   UNL     1      -2.311  13.496  22.619  0.00  0.00    +0.000 A 
ATOM     10  C   UNL     1      -2.273  12.143  22.910  0.00  0.00    +0.000 A 
ATOM     11  C   UNL     1      -1.220  11.353  22.433  0.00  0.00    +0.000 A 
ATOM     12  C   UNL     1      -0.956  10.156  23.103  0.00  0.00    +0.000 A 
ATOM     13  C   UNL     1       0.213   9.444  22.867  0.00  0.00    +0.000 A 
ATOM     14  C   UNL     1       1.099   9.896  21.896  0.00  0.00    +0.000 A 
ATOM     15  C   UNL     1       0.812  11.058  21.151  0.00  0.00    +0.000 A 
ATOM     16  C   UNL     1      -0.342  11.847  21.410  0.00  0.00    +0.000 A 
ATOM     17  C   UNL     1      -0.578  13.163  20.887  0.00  0.00    +0.000 A 
BRANCH   4  19
ATOM     18  C   UNL     1       0.405  16.311  19.026  0.00  0.00    +0.000 C 
ATOM     19  C   UNL     1      -0.046  14.847  19.117  0.00  0.00    +0.000 C 
ENDBRANCH   4  19
ENDBRANCH   1   6
BRANCH   3  20
ATOM     20  C   UNL     1       5.725  15.431  19.765  0.00  0.00    +0.000 A 
ATOM     21  S   UNL     1       5.534  15.169  18.033  0.00  0.00    +0.000 S 
ATOM     22  C   UNL     1       7.040  14.364  18.089  0.00  0.00    +0.000 A 
ATOM     23  C   UNL     1       7.567  13.180  17.595  0.00  0.00    +0.000 A 
ATOM     24  C   UNL     1       8.945  13.021  17.685  0.00  0.00    +0.000 A 
ATOM     25  C   UNL     1       9.718  14.189  17.836  0.00  0.00    +0.000 A 
ATOM     26  C   UNL     1      10.920  14.224  17.133  0.00  0.00    +0.000 A 
ATOM     27  C   UNL     1      11.389  15.446  16.689  0.00  0.00    +0.000 A 
ATOM     28  C   UNL     1      10.735  16.624  17.059  0.00  0.00    +0.000 A 
ATOM     29  C   UNL     1       9.658  16.582  17.972  0.00  0.00    +0.000 A 
ATOM     30  C   UNL     1       9.146  15.339  18.426  0.00  0.00    +0.000 A 
ATOM     31  C   UNL     1       7.800  15.226  18.872  0.00  0.00    +0.000 A 
ATOM     32  N   UNL     1       7.038  15.301  20.076  0.00  0.00    +0.000 N 
BRANCH  32  33
ATOM     33  C   UNL     1       7.290  14.482  21.310  0.00  0.00    +0.000 C 
ATOM     34  C   UNL     1       8.357  13.413  21.410  0.00  0.00    +0.000 C 
ENDBRANCH  32  33
ENDBRANCH   3  20
TORSDOF 4
ENDMDL
MODEL 8
REMARK VINA RESULT:      -6.3      5.995      8.835
REMARK  Name = 
REMARK  7 active torsions:
REMARK  status: ('A' for Active; 'I' for Inactive)
REMARK    1  A    between atoms: C_1  and  C_2
REMARK    2  A    between atoms: C_2  and  N_3
REMARK    3  A    between atoms: C_5  and  C_6
REMARK    4  A    between atoms: C_6  and  C_7
REMARK    5  A    between atoms: C_8  and  C_9
REMARK    6  A    between atoms: N_21  and  C_22
REMARK    7  A    between atoms: C_22  and  C_23
REMARK                            x       y       z     vdW  Elec       q    Type
REMARK                         _______ _______ _______ _____ _____    ______ ____
ROOT
ATOM      1  C   UNL     1       0.584   9.453  21.186  0.00  0.00    +0.000 C 
ATOM      2  C   UNL     1      -0.444   8.886  22.114  0.00  0.00    +0.000 C 
ATOM      3  C   UNL     1       1.376   8.835  20.297  0.00  0.00    +0.000 C 
ENDROOT
BRANCH   1   6
ATOM      4  N   UNL     1      -0.924  11.651  19.825  0.00  0.00    +0.000 N 
ATOM      5  C   UNL     1       0.326  11.813  20.439  0.00  0.00    +0.000 C 
ATOM      6  C   UNL     1       0.872  10.896  21.259  0.00  0.00    +0.000 C 
ATOM      7  S   UNL     1       0.992  13.471  20.293  0.00  0.00    +0.000 S 
ATOM      8  C   UNL     1      -0.794  14.025  19.675  0.00  0.00    +0.000 A 
ATOM      9  C   UNL     1      -1.105  15.351  19.934  0.00  0.00    +0.000 A 
ATOM     10  C   UNL     1      -2.030  15.599  20.934  0.00  0.00    +0.000 A 
ATOM     11  C   UNL     1      -2.513  14.544  21.718  0.00  0.00    +0.000 A 
ATOM     12  C   UNL     1      -3.050  14.862  22.968  0.00  0.00    +0.000 A 
ATOM     13  C   UNL     1      -3.312  13.875  23.909  0.00  0.00    +0.000 A 
ATOM     14  C   UNL     1      -3.103  12.543  23.572  0.00  0.00    +0.000 A 
ATOM     15  C   UNL     1      -2.639  12.195  22.287  0.00  0.00    +0.000 A 
ATOM     16  C   UNL     1      -2.298  13.181  21.321  0.00  0.00    +0.000 A 
ATOM     17  C   UNL     1      -1.585  12.931  20.100  0.00  0.00    +0.000 A 
BRANCH   4  19
ATOM     18  C   UNL     1      -1.832  10.164  17.825  0.00  0.00    +0.000 C 
ATOM     19  C   UNL     1      -0.907  11.262  18.367  0.00  0.00    +0.000 C 
ENDBRANCH   4  19
ENDBRANCH   1   6
BRANCH   3  20
ATOM     20  C   UNL     1       1.528   7.498  19.832  0.00  0.00    +0.000 A 
ATOM     21  S   UNL     1       2.150   6.418  21.078  0.00  0.00    +0.000 S 
ATOM     22  C   UNL     1       3.191   5.793  19.877  0.00  0.00    +0.000 A 
ATOM     23  C   UNL     1       4.537   5.470  19.781  0.00  0.00    +0.000 A 
ATOM     24  C   UNL     1       4.931   4.751  18.658  0.00  0.00    +0.000 A 
ATOM     25  C   UNL     1       3.930   4.040  17.967  0.00  0.00    +0.000 A 
ATOM     26  C   UNL     1       4.292   2.785  17.483  0.00  0.00    +0.000 A 
ATOM     27  C   UNL     1       3.322   1.803  17.404  0.00  0.00    +0.000 A 
ATOM     28  C   UNL     1       1.988   2.114  17.677  0.00  0.00    +0.000 A 
ATOM     29  C   UNL     1       1.607   3.450  17.931  0.00  0.00    +0.000 A 
ATOM     30  C   UNL     1       2.586   4.471  18.037  0.00  0.00    +0.000 A 
ATOM     31  C   UNL     1       2.332   5.648  18.794  0.00  0.00    +0.000 A 
ATOM     32  N   UNL     1       1.830   6.973  18.620  0.00  0.00    +0.000 N 
BRANCH  32  33
ATOM     33  C   UNL     1       2.368   7.977  17.641  0.00  0.00    +0.000 C 
ATOM     34  C   UNL     1       3.808   8.014  17.174  0.00  0.00    +0.000 C 
ENDBRANCH  32  33
ENDBRANCH   3  20
TORSDOF 4
ENDMDL
MODEL 9
REMARK VINA RESULT:      -6.2      3.361      6.248
REMARK  Name = 
REMARK  7 active torsions:
REMARK  status: ('A' for Active; 'I' for Inactive)
REMARK    1  A    between atoms: C_1  and  C_2
REMARK    2  A    between atoms: C_2  and  N_3
REMARK    3  A    between atoms: C_5  and  C_6
REMARK    4  A    between atoms: C_6  and  C_7
REMARK    5  A    between atoms: C_8  and  C_9
REMARK    6  A    between atoms: N_21  and  C_22
REMARK    7  A    between atoms: C_22  and  C_23
REMARK                            x       y       z     vdW  Elec       q    Type
REMARK                         _______ _______ _______ _____ _____    ______ ____
ROOT
ATOM      1  C   UNL     1      -1.840  13.695  23.450  0.00  0.00    +0.000 C 
ATOM      2  C   UNL     1      -1.645  14.704  24.538  0.00  0.00    +0.000 C 
ATOM      3  C   UNL     1      -1.053  13.392  22.407  0.00  0.00    +0.000 C 
ENDROOT
BRANCH   1   6
ATOM      4  N   UNL     1      -4.325  14.405  21.941  0.00  0.00    +0.000 N 
ATOM      5  C   UNL     1      -4.258  13.417  22.934  0.00  0.00    +0.000 C 
ATOM      6  C   UNL     1      -3.101  12.934  23.420  0.00  0.00    +0.000 C 
ATOM      7  S   UNL     1      -5.833  12.630  23.276  0.00  0.00    +0.000 S 
ATOM      8  C   UNL     1      -6.504  13.491  21.636  0.00  0.00    +0.000 A 
ATOM      9  C   UNL     1      -7.539  12.810  21.015  0.00  0.00    +0.000 A 
ATOM     10  C   UNL     1      -7.244  12.151  19.834  0.00  0.00    +0.000 A 
ATOM     11  C   UNL     1      -5.920  12.083  19.382  0.00  0.00    +0.000 A 
ATOM     12  C   UNL     1      -5.593  11.059  18.491  0.00  0.00    +0.000 A 
ATOM     13  C   UNL     1      -4.270  10.760  18.195  0.00  0.00    +0.000 A 
ATOM     14  C   UNL     1      -3.258  11.541  18.741  0.00  0.00    +0.000 A 
ATOM     15  C   UNL     1      -3.570  12.631  19.579  0.00  0.00    +0.000 A 
ATOM     16  C   UNL     1      -4.909  12.927  19.956  0.00  0.00    +0.000 A 
ATOM     17  C   UNL     1      -5.292  13.842  20.993  0.00  0.00    +0.000 A 
BRANCH   4  19
ATOM     18  C   UNL     1      -4.987  16.092  23.878  0.00  0.00    +0.000 C 
ATOM     19  C   UNL     1      -4.654  15.801  22.408  0.00  0.00    +0.000 C 
ENDBRANCH   4  19
ENDBRANCH   1   6
BRANCH   3  20
ATOM     20  C   UNL     1       0.230  13.805  21.949  0.00  0.00    +0.000 A 
ATOM     21  S   UNL     1       0.314  15.541  21.656  0.00  0.00    +0.000 S 
ATOM     22  C   UNL     1       1.132  15.155  20.206  0.00  0.00    +0.000 A 
ATOM     23  C   UNL     1       1.063  15.547  18.877  0.00  0.00    +0.000 A 
ATOM     24  C   UNL     1       2.102  15.139  18.049  0.00  0.00    +0.000 A 
ATOM     25  C   UNL     1       3.313  14.773  18.669  0.00  0.00    +0.000 A 
ATOM     26  C   UNL     1       4.479  15.170  18.020  0.00  0.00    +0.000 A 
ATOM     27  C   UNL     1       5.597  15.452  18.783  0.00  0.00    +0.000 A 
ATOM     28  C   UNL     1       5.584  15.211  20.159  0.00  0.00    +0.000 A 
ATOM     29  C   UNL     1       4.471  14.580  20.759  0.00  0.00    +0.000 A 
ATOM     30  C   UNL     1       3.306  14.300  20.001  0.00  0.00    +0.000 A 
ATOM     31  C   UNL     1       2.036  14.188  20.632  0.00  0.00    +0.000 A 
ATOM     32  N   UNL     1       1.181  13.197  21.200  0.00  0.00    +0.000 N 
BRANCH  32  33
ATOM     33  C   UNL     1       0.697  11.964  20.490  0.00  0.00    +0.000 C 
ATOM     34  C   UNL     1       0.650  11.822  18.984  0.00  0.00    +0.000 C 
ENDBRANCH  32  33
ENDBRANCH   3  20
TORSDOF 4
ENDMDL
