MODEL 1
REMARK VINA RESULT:      -6.3      0.000      0.000
REMARK  Name = 
REMARK  12 active torsions:
REMARK  status: ('A' for Active; 'I' for Inactive)
REMARK    1  A    between atoms: C_1  and  C_2
REMARK    2  A    between atoms: C_7  and  C_8
REMARK    3  A    between atoms: C_13  and  C_14
REMARK    4  A    between atoms: C_14  and  C_15
REMARK    5  A    between atoms: C_14  and  C_16
REMARK    6  A    between atoms: C_17  and  C_18
REMARK    7  A    between atoms: C_18  and  O_19
REMARK    8  A    between atoms: C_18  and  C_20
REMARK    9  A    between atoms: C_20  and  C_21
REMARK   10  A    between atoms: C_20  and  C_22
REMARK   11  A    between atoms: C_20  and  O_23
REMARK   12  A    between atoms: C_26  and  C_27
REMARK                            x       y       z     vdW  Elec       q    Type
REMARK                         _______ _______ _______ _____ _____    ______ ____
ROOT
ATOM      1  C   UNL     1      -6.407  12.639  16.913  0.00  0.00    +0.000 C 
ATOM      2  C   UNL     1      -6.750  12.474  18.349  0.00  0.00    +0.000 C 
ATOM      3  C   UNL     1      -6.787  11.336  19.062  0.00  0.00    +0.000 C 
ATOM      4  C   UNL     1      -7.063  11.553  20.534  0.00  0.00    +0.000 C 
ATOM      5  O   UNL     1      -7.190  10.587  21.256  0.00  0.00    +0.000 OA
ATOM      6  C   UNL     1      -6.927  13.016  20.963  0.00  0.00    +0.000 C 
ATOM      7  C   UNL     1      -7.140  13.707  22.629  0.00  0.00    +0.000 C 
ATOM      8  C   UNL     1      -6.897  14.910  23.335  0.00  0.00    +0.000 C 
ATOM      9  C   UNL     1      -6.366  16.410  23.033  0.00  0.00    +0.000 C 
ATOM     10  C   UNL     1      -5.498  16.592  21.751  0.00  0.00    +0.000 C 
ATOM     11  C   UNL     1      -4.383  15.414  21.942  0.00  0.00    +0.000 C 
ATOM     12  C   UNL     1      -4.971  14.942  20.698  0.00  0.00    +0.000 C 
ATOM     13  C   UNL     1      -6.719  15.316  20.738  0.00  0.00    +0.000 C 
ATOM     14  C   UNL     1      -6.441  16.549  20.113  0.00  0.00    +0.000 C 
ATOM     15  C   UNL     1      -7.816  17.296  20.054  0.00  0.00    +0.000 C 
ATOM     16  C   UNL     1      -6.444  15.372  18.761  0.00  0.00    +0.000 C 
ATOM     17  C   UNL     1      -6.511  13.621  19.252  0.00  0.00    +0.000 C 
ENDROOT
BRANCH   7  18
ATOM     18  C   UNL     1      -7.601  12.782  23.704  0.00  0.00    +0.000 C 
ATOM     19  O   UNL     1      -7.904  13.157  24.823  0.00  0.00    +0.000 OA
ENDBRANCH   7  18
BRANCH  11  20
ATOM     20  C   UNL     1      -3.940  13.927  22.837  0.00  0.00    +0.000 C 
ATOM     21  C   UNL     1      -3.611  13.904  24.404  0.00  0.00    +0.000 C 
BRANCH  20  22
ATOM     22  C   UNL     1      -3.252  12.628  22.248  0.00  0.00    +0.000 C 
ATOM     23  C   UNL     1      -1.956  12.305  22.521  0.00  0.00    +0.000 C 
BRANCH  23  24
ATOM     24  C   UNL     1      -1.159  11.062  22.214  0.00  0.00    +0.000 C 
BRANCH  24  25
ATOM     25  C   UNL     1      -0.033  11.141  21.114  0.00  0.00    +0.000 C 
ATOM     26  C   UNL     1      -0.499  10.417  19.832  0.00  0.00    +0.000 C 
ATOM     27  C   UNL     1       0.367  12.575  20.754  0.00  0.00    +0.000 C 
BRANCH  25  28
ATOM     28  O   UNL     1       1.159  10.467  21.588  0.00  0.00    +0.000 OA
ATOM     29  H   UNL     1       1.153   9.552  21.259  0.00  0.00    +0.000 HD
ENDBRANCH  25  28
ENDBRANCH  24  25
BRANCH  24  30
ATOM     30  O   UNL     1      -0.489  10.790  23.450  0.00  0.00    +0.000 OA
ATOM     31  H   UNL     1      -1.042  11.177  24.150  0.00  0.00    +0.000 HD
ENDBRANCH  24  30
ENDBRANCH  23  24
ENDBRANCH  20  22
ENDBRANCH  11  20
TORSDOF 7
ENDMDL
MODEL 2
REMARK VINA RESULT:      -6.1      2.239      6.799
REMARK  Name = 
REMARK  12 active torsions:
REMARK  status: ('A' for Active; 'I' for Inactive)
REMARK    1  A    between atoms: C_1  and  C_2
REMARK    2  A    between atoms: C_7  and  C_8
REMARK    3  A    between atoms: C_13  and  C_14
REMARK    4  A    between atoms: C_14  and  C_15
REMARK    5  A    between atoms: C_14  and  C_16
REMARK    6  A    between atoms: C_17  and  C_18
REMARK    7  A    between atoms: C_18  and  O_19
REMARK    8  A    between atoms: C_18  and  C_20
REMARK    9  A    between atoms: C_20  and  C_21
REMARK   10  A    between atoms: C_20  and  C_22
REMARK   11  A    between atoms: C_20  and  O_23
REMARK   12  A    between atoms: C_26  and  C_27
REMARK                            x       y       z     vdW  Elec       q    Type
REMARK                         _______ _______ _______ _____ _____    ______ ____
ROOT
ATOM      1  C   UNL     1      -3.614  16.743  22.042  0.00  0.00    +0.000 C 
ATOM      2  C   UNL     1      -3.105  15.369  22.287  0.00  0.00    +0.000 C 
ATOM      3  C   UNL     1      -3.794  14.298  22.714  0.00  0.00    +0.000 C 
ATOM      4  C   UNL     1      -2.979  13.023  22.739  0.00  0.00    +0.000 C 
ATOM      5  O   UNL     1      -3.484  12.012  23.178  0.00  0.00    +0.000 OA
ATOM      6  C   UNL     1      -1.654  13.142  21.983  0.00  0.00    +0.000 C 
ATOM      7  C   UNL     1      -0.396  11.854  21.741  0.00  0.00    +0.000 C 
ATOM      8  C   UNL     1       0.764  11.614  20.966  0.00  0.00    +0.000 C 
ATOM      9  C   UNL     1       1.700  12.399  19.903  0.00  0.00    +0.000 C 
ATOM     10  C   UNL     1       1.044  13.603  19.161  0.00  0.00    +0.000 C 
ATOM     11  C   UNL     1      -0.337  12.930  18.606  0.00  0.00    +0.000 C 
ATOM     12  C   UNL     1      -0.931  13.956  19.449  0.00  0.00    +0.000 C 
ATOM     13  C   UNL     1       0.116  14.166  20.883  0.00  0.00    +0.000 C 
ATOM     14  C   UNL     1       0.817  15.172  20.190  0.00  0.00    +0.000 C 
ATOM     15  C   UNL     1       1.989  15.584  21.143  0.00  0.00    +0.000 C 
ATOM     16  C   UNL     1      -0.648  16.008  20.796  0.00  0.00    +0.000 C 
ATOM     17  C   UNL     1      -1.919  14.926  21.520  0.00  0.00    +0.000 C 
ENDROOT
BRANCH   7  18
ATOM     18  C   UNL     1      -0.605  10.549  22.434  0.00  0.00    +0.000 C 
ATOM     19  O   UNL     1       0.097  10.160  23.349  0.00  0.00    +0.000 OA
ENDBRANCH   7  18
BRANCH  11  20
ATOM     20  C   UNL     1      -1.453  11.533  18.721  0.00  0.00    +0.000 C 
ATOM     21  C   UNL     1      -1.320  10.219  17.816  0.00  0.00    +0.000 C 
BRANCH  20  22
ATOM     22  C   UNL     1      -2.960  11.555  19.206  0.00  0.00    +0.000 C 
ATOM     23  C   UNL     1      -4.004  11.610  18.332  0.00  0.00    +0.000 C 
BRANCH  23  24
ATOM     24  C   UNL     1      -5.490  11.475  18.552  0.00  0.00    +0.000 C 
BRANCH  24  25
ATOM     25  C   UNL     1      -6.170  12.357  19.667  0.00  0.00    +0.000 C 
ATOM     26  C   UNL     1      -5.607  13.793  19.617  0.00  0.00    +0.000 C 
ATOM     27  C   UNL     1      -7.695  12.419  19.547  0.00  0.00    +0.000 C 
BRANCH  25  28
ATOM     28  O   UNL     1      -5.863  11.811  20.974  0.00  0.00    +0.000 OA
ATOM     29  H   UNL     1      -5.545  12.530  21.546  0.00  0.00    +0.000 HD
ENDBRANCH  25  28
ENDBRANCH  24  25
BRANCH  24  30
ATOM     30  O   UNL     1      -6.046  11.910  17.306  0.00  0.00    +0.000 OA
ATOM     31  H   UNL     1      -5.365  12.460  16.882  0.00  0.00    +0.000 HD
ENDBRANCH  24  30
ENDBRANCH  23  24
ENDBRANCH  20  22
ENDBRANCH  11  20
TORSDOF 7
ENDMDL
MODEL 3
REMARK VINA RESULT:      -6.1      2.846      5.611
REMARK  Name = 
REMARK  12 active torsions:
REMARK  status: ('A' for Active; 'I' for Inactive)
REMARK    1  A    between atoms: C_1  and  C_2
REMARK    2  A    between atoms: C_7  and  C_8
REMARK    3  A    between atoms: C_13  and  C_14
REMARK    4  A    between atoms: C_14  and  C_15
REMARK    5  A    between atoms: C_14  and  C_16
REMARK    6  A    between atoms: C_17  and  C_18
REMARK    7  A    between atoms: C_18  and  O_19
REMARK    8  A    between atoms: C_18  and  C_20
REMARK    9  A    between atoms: C_20  and  C_21
REMARK   10  A    between atoms: C_20  and  C_22
REMARK   11  A    between atoms: C_20  and  O_23
REMARK   12  A    between atoms: C_26  and  C_27
REMARK                            x       y       z     vdW  Elec       q    Type
REMARK                         _______ _______ _______ _____ _____    ______ ____
ROOT
ATOM      1  C   UNL     1      -0.426  10.229  21.807  0.00  0.00    +0.000 C 
ATOM      2  C   UNL     1      -0.754  11.586  21.297  0.00  0.00    +0.000 C 
ATOM      3  C   UNL     1      -0.482  12.099  20.086  0.00  0.00    +0.000 C 
ATOM      4  C   UNL     1      -1.069  13.476  19.867  0.00  0.00    +0.000 C 
ATOM      5  O   UNL     1      -0.822  14.063  18.834  0.00  0.00    +0.000 OA
ATOM      6  C   UNL     1      -2.104  13.865  20.925  0.00  0.00    +0.000 C 
ATOM      7  C   UNL     1      -3.066  15.402  21.023  0.00  0.00    +0.000 C 
ATOM      8  C   UNL     1      -4.176  15.936  21.722  0.00  0.00    +0.000 C 
ATOM      9  C   UNL     1      -5.182  15.504  22.916  0.00  0.00    +0.000 C 
ATOM     10  C   UNL     1      -5.315  13.976  23.190  0.00  0.00    +0.000 C 
ATOM     11  C   UNL     1      -5.623  13.401  21.692  0.00  0.00    +0.000 C 
ATOM     12  C   UNL     1      -4.381  12.684  21.937  0.00  0.00    +0.000 C 
ATOM     13  C   UNL     1      -3.313  13.744  22.903  0.00  0.00    +0.000 C 
ATOM     14  C   UNL     1      -3.850  13.173  24.074  0.00  0.00    +0.000 C 
ATOM     15  C   UNL     1      -3.196  13.969  25.254  0.00  0.00    +0.000 C 
ATOM     16  C   UNL     1      -2.630  11.977  23.531  0.00  0.00    +0.000 C 
ATOM     17  C   UNL     1      -1.924  12.277  21.882  0.00  0.00    +0.000 C 
ENDROOT
BRANCH   7  18
ATOM     18  C   UNL     1      -2.759  16.471  20.029  0.00  0.00    +0.000 C 
ATOM     19  O   UNL     1      -3.459  17.455  19.869  0.00  0.00    +0.000 OA
ENDBRANCH   7  18
BRANCH  11  20
ATOM     20  C   UNL     1      -5.608  13.762  19.938  0.00  0.00    +0.000 C 
ATOM     21  C   UNL     1      -6.234  15.093  19.304  0.00  0.00    +0.000 C 
BRANCH  20  22
ATOM     22  C   UNL     1      -5.564  12.716  18.749  0.00  0.00    +0.000 C 
ATOM     23  C   UNL     1      -4.401  12.144  18.327  0.00  0.00    +0.000 C 
BRANCH  23  24
ATOM     24  C   UNL     1      -4.145  11.025  17.349  0.00  0.00    +0.000 C 
BRANCH  24  25
ATOM     25  C   UNL     1      -2.703  10.884  16.727  0.00  0.00    +0.000 C 
ATOM     26  C   UNL     1      -1.886   9.845  17.525  0.00  0.00    +0.000 C 
ATOM     27  C   UNL     1      -2.715  10.476  15.251  0.00  0.00    +0.000 C 
BRANCH  25  28
ATOM     28  O   UNL     1      -2.008  12.152  16.817  0.00  0.00    +0.000 OA
ATOM     29  H   UNL     1      -2.665  12.864  16.897  0.00  0.00    +0.000 HD
ENDBRANCH  25  28
ENDBRANCH  24  25
BRANCH  24  30
ATOM     30  O   UNL     1      -4.356   9.848  18.136  0.00  0.00    +0.000 OA
ATOM     31  H   UNL     1      -4.974   9.291  17.631  0.00  0.00    +0.000 HD
ENDBRANCH  24  30
ENDBRANCH  23  24
ENDBRANCH  20  22
ENDBRANCH  11  20
TORSDOF 7
ENDMDL
MODEL 4
REMARK VINA RESULT:      -6.1      4.567      7.448
REMARK  Name = 
REMARK  12 active torsions:
REMARK  status: ('A' for Active; 'I' for Inactive)
REMARK    1  A    between atoms: C_1  and  C_2
REMARK    2  A    between atoms: C_7  and  C_8
REMARK    3  A    between atoms: C_13  and  C_14
REMARK    4  A    between atoms: C_14  and  C_15
REMARK    5  A    between atoms: C_14  and  C_16
REMARK    6  A    between atoms: C_17  and  C_18
REMARK    7  A    between atoms: C_18  and  O_19
REMARK    8  A    between atoms: C_18  and  C_20
REMARK    9  A    between atoms: C_20  and  C_21
REMARK   10  A    between atoms: C_20  and  C_22
REMARK   11  A    between atoms: C_20  and  O_23
REMARK   12  A    between atoms: C_26  and  C_27
REMARK                            x       y       z     vdW  Elec       q    Type
REMARK                         _______ _______ _______ _____ _____    ______ ____
ROOT
ATOM      1  C   UNL     1       2.296   7.317  19.388  0.00  0.00    +0.000 C 
ATOM      2  C   UNL     1       1.527   8.170  20.331  0.00  0.00    +0.000 C 
ATOM      3  C   UNL     1       1.810   8.440  21.617  0.00  0.00    +0.000 C 
ATOM      4  C   UNL     1       0.869   9.445  22.245  0.00  0.00    +0.000 C 
ATOM      5  O   UNL     1       0.990   9.705  23.423  0.00  0.00    +0.000 OA
ATOM      6  C   UNL     1       0.002  10.179  21.220  0.00  0.00    +0.000 C 
ATOM      7  C   UNL     1      -1.230  11.476  21.537  0.00  0.00    +0.000 C 
ATOM      8  C   UNL     1      -1.997  12.430  20.825  0.00  0.00    +0.000 C 
ATOM      9  C   UNL     1      -2.287  12.855  19.289  0.00  0.00    +0.000 C 
ATOM     10  C   UNL     1      -1.209  12.441  18.242  0.00  0.00    +0.000 C 
ATOM     11  C   UNL     1       0.157  13.001  18.941  0.00  0.00    +0.000 C 
ATOM     12  C   UNL     1       0.507  11.590  18.905  0.00  0.00    +0.000 C 
ATOM     13  C   UNL     1      -0.987  10.644  19.172  0.00  0.00    +0.000 C 
ATOM     14  C   UNL     1      -1.182  10.609  17.777  0.00  0.00    +0.000 C 
ATOM     15  C   UNL     1      -2.562   9.897  17.575  0.00  0.00    +0.000 C 
ATOM     16  C   UNL     1       0.020   9.313  18.077  0.00  0.00    +0.000 C 
ATOM     17  C   UNL     1       0.703   9.258  19.762  0.00  0.00    +0.000 C 
ENDROOT
BRANCH   7  18
ATOM     18  C   UNL     1      -1.525  11.813  22.960  0.00  0.00    +0.000 C 
ATOM     19  O   UNL     1      -1.144  12.839  23.495  0.00  0.00    +0.000 OA
ENDBRANCH   7  18
BRANCH  11  20
ATOM     20  C   UNL     1       0.900  13.623  20.447  0.00  0.00    +0.000 C 
ATOM     21  C   UNL     1       0.530  15.040  21.095  0.00  0.00    +0.000 C 
BRANCH  20  22
ATOM     22  C   UNL     1       2.329  13.261  21.026  0.00  0.00    +0.000 C 
ATOM     23  C   UNL     1       3.263  14.213  21.306  0.00  0.00    +0.000 C 
BRANCH  23  24
ATOM     24  C   UNL     1       4.597  14.119  22.003  0.00  0.00    +0.000 C 
BRANCH  24  25
ATOM     25  C   UNL     1       5.775  15.038  21.502  0.00  0.00    +0.000 C 
ATOM     26  C   UNL     1       7.117  14.283  21.619  0.00  0.00    +0.000 C 
ATOM     27  C   UNL     1       5.602  15.518  20.059  0.00  0.00    +0.000 C 
BRANCH  25  28
ATOM     28  O   UNL     1       5.862  16.218  22.341  0.00  0.00    +0.000 OA
ATOM     29  H   UNL     1       5.075  16.254  22.911  0.00  0.00    +0.000 HD
ENDBRANCH  25  28
ENDBRANCH  24  25
BRANCH  24  30
ATOM     30  O   UNL     1       4.300  14.544  23.337  0.00  0.00    +0.000 OA
ATOM     31  H   UNL     1       3.353  14.368  23.474  0.00  0.00    +0.000 HD
ENDBRANCH  24  30
ENDBRANCH  23  24
ENDBRANCH  20  22
ENDBRANCH  11  20
TORSDOF 7
ENDMDL
MODEL 5
REMARK VINA RESULT:      -6.1      5.208      7.963
REMARK  Name = 
REMARK  12 active torsions:
REMARK  status: ('A' for Active; 'I' for Inactive)
REMARK    1  A    between atoms: C_1  and  C_2
REMARK    2  A    between atoms: C_7  and  C_8
REMARK    3  A    between atoms: C_13  and  C_14
REMARK    4  A    between atoms: C_14  and  C_15
REMARK    5  A    between atoms: C_14  and  C_16
REMARK    6  A    between atoms: C_17  and  C_18
REMARK    7  A    between atoms: C_18  and  O_19
REMARK    8  A    between atoms: C_18  and  C_20
REMARK    9  A    between atoms: C_20  and  C_21
REMARK   10  A    between atoms: C_20  and  C_22
REMARK   11  A    between atoms: C_20  and  O_23
REMARK   12  A    between atoms: C_26  and  C_27
REMARK                            x       y       z     vdW  Elec       q    Type
REMARK                         _______ _______ _______ _____ _____    ______ ____
ROOT
ATOM      1  C   UNL     1       0.463  18.376  16.063  0.00  0.00    +0.000 C 
ATOM      2  C   UNL     1       0.220  18.019  17.484  0.00  0.00    +0.000 C 
ATOM      3  C   UNL     1      -0.955  17.983  18.136  0.00  0.00    +0.000 C 
ATOM      4  C   UNL     1      -0.846  17.460  19.552  0.00  0.00    +0.000 C 
ATOM      5  O   UNL     1      -1.835  17.455  20.253  0.00  0.00    +0.000 OA
ATOM      6  C   UNL     1       0.498  16.788  19.843  0.00  0.00    +0.000 C 
ATOM      7  C   UNL     1       1.033  16.005  21.392  0.00  0.00    +0.000 C 
ATOM      8  C   UNL     1       2.072  15.173  21.875  0.00  0.00    +0.000 C 
ATOM      9  C   UNL     1       3.445  14.506  21.336  0.00  0.00    +0.000 C 
ATOM     10  C   UNL     1       3.575  14.343  19.791  0.00  0.00    +0.000 C 
ATOM     11  C   UNL     1       2.171  13.594  19.424  0.00  0.00    +0.000 C 
ATOM     12  C   UNL     1       1.976  14.799  18.633  0.00  0.00    +0.000 C 
ATOM     13  C   UNL     1       2.711  16.166  19.521  0.00  0.00    +0.000 C 
ATOM     14  C   UNL     1       3.915  15.933  18.827  0.00  0.00    +0.000 C 
ATOM     15  C   UNL     1       4.943  16.942  19.442  0.00  0.00    +0.000 C 
ATOM     16  C   UNL     1       2.921  16.865  17.663  0.00  0.00    +0.000 C 
ATOM     17  C   UNL     1       1.183  17.109  18.142  0.00  0.00    +0.000 C 
ENDROOT
BRANCH   7  18
ATOM     18  C   UNL     1       0.117  16.104  22.565  0.00  0.00    +0.000 C 
ATOM     19  O   UNL     1      -0.978  15.571  22.603  0.00  0.00    +0.000 OA
ENDBRANCH   7  18
BRANCH  11  20
ATOM     20  C   UNL     1       0.535  13.150  20.002  0.00  0.00    +0.000 C 
ATOM     21  C   UNL     1       0.272  12.189  21.256  0.00  0.00    +0.000 C 
BRANCH  20  22
ATOM     22  C   UNL     1      -0.796  13.092  19.147  0.00  0.00    +0.000 C 
ATOM     23  C   UNL     1      -0.996  12.158  18.175  0.00  0.00    +0.000 C 
BRANCH  23  24
ATOM     24  C   UNL     1      -2.221  11.815  17.366  0.00  0.00    +0.000 C 
BRANCH  24  25
ATOM     25  C   UNL     1      -2.381  10.342  16.828  0.00  0.00    +0.000 C 
ATOM     26  C   UNL     1      -3.450   9.594  17.654  0.00  0.00    +0.000 C 
ATOM     27  C   UNL     1      -2.764  10.274  15.347  0.00  0.00    +0.000 C 
BRANCH  25  28
ATOM     28  O   UNL     1      -1.129   9.628  16.983  0.00  0.00    +0.000 OA
ATOM     29  H   UNL     1      -1.279   8.854  17.552  0.00  0.00    +0.000 HD
ENDBRANCH  25  28
ENDBRANCH  24  25
BRANCH  24  30
ATOM     30  O   UNL     1      -3.293  12.019  18.293  0.00  0.00    +0.000 OA
ATOM     31  H   UNL     1      -3.087  11.472  19.071  0.00  0.00    +0.000 HD
ENDBRANCH  24  30
ENDBRANCH  23  24
ENDBRANCH  20  22
ENDBRANCH  11  20
TORSDOF 7
ENDMDL
MODEL 6
REMARK VINA RESULT:      -6.1      2.920      4.970
REMARK  Name = 
REMARK  12 active torsions:
REMARK  status: ('A' for Active; 'I' for Inactive)
REMARK    1  A    between atoms: C_1  and  C_2
REMARK    2  A    between atoms: C_7  and  C_8
REMARK    3  A    between atoms: C_13  and  C_14
REMARK    4  A    between atoms: C_14  and  C_15
REMARK    5  A    between atoms: C_14  and  C_16
REMARK    6  A    between atoms: C_17  and  C_18
REMARK    7  A    between atoms: C_18  and  O_19
REMARK    8  A    between atoms: C_18  and  C_20
REMARK    9  A    between atoms: C_20  and  C_21
REMARK   10  A    between atoms: C_20  and  C_22
REMARK   11  A    between atoms: C_20  and  O_23
REMARK   12  A    between atoms: C_26  and  C_27
REMARK                            x       y       z     vdW  Elec       q    Type
REMARK                         _______ _______ _______ _____ _____    ______ ____
ROOT
ATOM      1  C   UNL     1      -3.330  11.167  16.518  0.00  0.00    +0.000 C 
ATOM      2  C   UNL     1      -2.641  11.009  17.825  0.00  0.00    +0.000 C 
ATOM      3  C   UNL     1      -1.374  10.624  18.047  0.00  0.00    +0.000 C 
ATOM      4  C   UNL     1      -0.968  10.688  19.504  0.00  0.00    +0.000 C 
ATOM      5  O   UNL     1       0.132  10.293  19.825  0.00  0.00    +0.000 OA
ATOM      6  C   UNL     1      -1.959  11.469  20.370  0.00  0.00    +0.000 C 
ATOM      7  C   UNL     1      -1.845  11.811  22.150  0.00  0.00    +0.000 C 
ATOM      8  C   UNL     1      -2.460  12.625  23.132  0.00  0.00    +0.000 C 
ATOM      9  C   UNL     1      -3.695  13.666  23.248  0.00  0.00    +0.000 C 
ATOM     10  C   UNL     1      -4.171  14.326  21.918  0.00  0.00    +0.000 C 
ATOM     11  C   UNL     1      -2.762  14.883  21.308  0.00  0.00    +0.000 C 
ATOM     12  C   UNL     1      -3.108  13.972  20.229  0.00  0.00    +0.000 C 
ATOM     13  C   UNL     1      -3.929  12.554  20.946  0.00  0.00    +0.000 C 
ATOM     14  C   UNL     1      -5.163  13.208  20.761  0.00  0.00    +0.000 C 
ATOM     15  C   UNL     1      -6.229  12.263  21.411  0.00  0.00    +0.000 C 
ATOM     16  C   UNL     1      -4.792  12.522  19.147  0.00  0.00    +0.000 C 
ATOM     17  C   UNL     1      -3.121  11.827  18.960  0.00  0.00    +0.000 C 
ENDROOT
BRANCH   7  18
ATOM     18  C   UNL     1      -0.718  11.185  22.901  0.00  0.00    +0.000 C 
ATOM     19  O   UNL     1      -0.749  10.041  23.319  0.00  0.00    +0.000 OA
ENDBRANCH   7  18
BRANCH  11  20
ATOM     20  C   UNL     1      -0.975  14.817  21.413  0.00  0.00    +0.000 C 
ATOM     21  C   UNL     1      -0.150  15.239  22.720  0.00  0.00    +0.000 C 
BRANCH  20  22
ATOM     22  C   UNL     1       0.055  14.928  20.216  0.00  0.00    +0.000 C 
ATOM     23  C   UNL     1       0.803  13.867  19.800  0.00  0.00    +0.000 C 
BRANCH  23  24
ATOM     24  C   UNL     1       1.705  13.698  18.603  0.00  0.00    +0.000 C 
BRANCH  24  25
ATOM     25  C   UNL     1       3.078  14.472  18.579  0.00  0.00    +0.000 C 
ATOM     26  C   UNL     1       2.877  15.879  17.976  0.00  0.00    +0.000 C 
ATOM     27  C   UNL     1       3.722  14.612  19.960  0.00  0.00    +0.000 C 
BRANCH  25  28
ATOM     28  O   UNL     1       4.020  13.764  17.734  0.00  0.00    +0.000 OA
ATOM     29  H   UNL     1       4.904  14.149  17.861  0.00  0.00    +0.000 HD
ENDBRANCH  25  28
ENDBRANCH  24  25
BRANCH  24  30
ATOM     30  O   UNL     1       2.034  12.305  18.635  0.00  0.00    +0.000 OA
ATOM     31  H   UNL     1       2.950  12.249  18.958  0.00  0.00    +0.000 HD
ENDBRANCH  24  30
ENDBRANCH  23  24
ENDBRANCH  20  22
ENDBRANCH  11  20
TORSDOF 7
ENDMDL
MODEL 7
REMARK VINA RESULT:      -6.1      2.778      4.487
REMARK  Name = 
REMARK  12 active torsions:
REMARK  status: ('A' for Active; 'I' for Inactive)
REMARK    1  A    between atoms: C_1  and  C_2
REMARK    2  A    between atoms: C_7  and  C_8
REMARK    3  A    between atoms: C_13  and  C_14
REMARK    4  A    between atoms: C_14  and  C_15
REMARK    5  A    between atoms: C_14  and  C_16
REMARK    6  A    between atoms: C_17  and  C_18
REMARK    7  A    between atoms: C_18  and  O_19
REMARK    8  A    between atoms: C_18  and  C_20
REMARK    9  A    between atoms: C_20  and  C_21
REMARK   10  A    between atoms: C_20  and  C_22
REMARK   11  A    between atoms: C_20  and  O_23
REMARK   12  A    between atoms: C_26  and  C_27
REMARK                            x       y       z     vdW  Elec       q    Type
REMARK                         _______ _______ _______ _____ _____    ______ ____
ROOT
ATOM      1  C   UNL     1      -4.707  11.735  16.897  0.00  0.00    +0.000 C 
ATOM      2  C   UNL     1      -3.872  11.687  18.125  0.00  0.00    +0.000 C 
ATOM      3  C   UNL     1      -2.535  11.592  18.210  0.00  0.00    +0.000 C 
ATOM      4  C   UNL     1      -2.010  11.689  19.626  0.00  0.00    +0.000 C 
ATOM      5  O   UNL     1      -0.823  11.541  19.823  0.00  0.00    +0.000 OA
ATOM      6  C   UNL     1      -3.057  12.190  20.623  0.00  0.00    +0.000 C 
ATOM      7  C   UNL     1      -2.844  12.479  22.403  0.00  0.00    +0.000 C 
ATOM      8  C   UNL     1      -3.522  13.094  23.484  0.00  0.00    +0.000 C 
ATOM      9  C   UNL     1      -4.939  13.823  23.772  0.00  0.00    +0.000 C 
ATOM     10  C   UNL     1      -5.681  14.409  22.533  0.00  0.00    +0.000 C 
ATOM     11  C   UNL     1      -4.499  15.294  21.834  0.00  0.00    +0.000 C 
ATOM     12  C   UNL     1      -4.742  14.371  20.736  0.00  0.00    +0.000 C 
ATOM     13  C   UNL     1      -5.150  12.777  21.437  0.00  0.00    +0.000 C 
ATOM     14  C   UNL     1      -6.511  13.141  21.402  0.00  0.00    +0.000 C 
ATOM     15  C   UNL     1      -7.270  11.954  22.086  0.00  0.00    +0.000 C 
ATOM     16  C   UNL     1      -6.162  12.621  19.723  0.00  0.00    +0.000 C 
ATOM     17  C   UNL     1      -4.406  12.330  19.346  0.00  0.00    +0.000 C 
ENDROOT
BRANCH   7  18
ATOM     18  C   UNL     1      -1.536  12.096  23.011  0.00  0.00    +0.000 C 
ATOM     19  O   UNL     1      -0.572  12.840  23.043  0.00  0.00    +0.000 OA
ENDBRANCH   7  18
BRANCH  11  20
ATOM     20  C   UNL     1      -2.741  15.630  21.775  0.00  0.00    +0.000 C 
ATOM     21  C   UNL     1      -1.921  16.265  22.996  0.00  0.00    +0.000 C 
BRANCH  20  22
ATOM     22  C   UNL     1      -1.870  15.933  20.487  0.00  0.00    +0.000 C 
ATOM     23  C   UNL     1      -0.790  15.175  20.146  0.00  0.00    +0.000 C 
BRANCH  23  24
ATOM     24  C   UNL     1       0.068  15.173  18.906  0.00  0.00    +0.000 C 
BRANCH  24  25
ATOM     25  C   UNL     1       1.289  16.167  18.832  0.00  0.00    +0.000 C 
ATOM     26  C   UNL     1       0.900  17.417  18.014  0.00  0.00    +0.000 C 
ATOM     27  C   UNL     1       1.794  16.614  20.207  0.00  0.00    +0.000 C 
BRANCH  25  28
ATOM     28  O   UNL     1       2.398  15.527  18.153  0.00  0.00    +0.000 OA
ATOM     29  H   UNL     1       2.639  16.060  17.377  0.00  0.00    +0.000 HD
ENDBRANCH  25  28
ENDBRANCH  24  25
BRANCH  24  30
ATOM     30  O   UNL     1       0.627  13.855  18.897  0.00  0.00    +0.000 OA
ATOM     31  H   UNL     1       1.066  13.752  18.035  0.00  0.00    +0.000 HD
ENDBRANCH  24  30
ENDBRANCH  23  24
ENDBRANCH  20  22
ENDBRANCH  11  20
TORSDOF 7
ENDMDL
MODEL 8
REMARK VINA RESULT:      -6.0      4.711      8.006
REMARK  Name = 
REMARK  12 active torsions:
REMARK  status: ('A' for Active; 'I' for Inactive)
REMARK    1  A    between atoms: C_1  and  C_2
REMARK    2  A    between atoms: C_7  and  C_8
REMARK    3  A    between atoms: C_13  and  C_14
REMARK    4  A    between atoms: C_14  and  C_15
REMARK    5  A    between atoms: C_14  and  C_16
REMARK    6  A    between atoms: C_17  and  C_18
REMARK    7  A    between atoms: C_18  and  O_19
REMARK    8  A    between atoms: C_18  and  C_20
REMARK    9  A    between atoms: C_20  and  C_21
REMARK   10  A    between atoms: C_20  and  C_22
REMARK   11  A    between atoms: C_20  and  O_23
REMARK   12  A    between atoms: C_26  and  C_27
REMARK                            x       y       z     vdW  Elec       q    Type
REMARK                         _______ _______ _______ _____ _____    ______ ____
ROOT
ATOM      1  C   UNL     1       0.611  18.375  16.086  0.00  0.00    +0.000 C 
ATOM      2  C   UNL     1       0.272  17.862  17.439  0.00  0.00    +0.000 C 
ATOM      3  C   UNL     1      -0.944  17.744  17.996  0.00  0.00    +0.000 C 
ATOM      4  C   UNL     1      -0.928  17.071  19.351  0.00  0.00    +0.000 C 
ATOM      5  O   UNL     1      -1.964  16.980  19.974  0.00  0.00    +0.000 OA
ATOM      6  C   UNL     1       0.403  16.383  19.665  0.00  0.00    +0.000 C 
ATOM      7  C   UNL     1       0.840  15.441  21.155  0.00  0.00    +0.000 C 
ATOM      8  C   UNL     1       1.855  14.570  21.619  0.00  0.00    +0.000 C 
ATOM      9  C   UNL     1       3.275  13.979  21.112  0.00  0.00    +0.000 C 
ATOM     10  C   UNL     1       3.518  13.987  19.573  0.00  0.00    +0.000 C 
ATOM     11  C   UNL     1       2.157  13.270  19.025  0.00  0.00    +0.000 C 
ATOM     12  C   UNL     1       1.997  14.552  18.357  0.00  0.00    +0.000 C 
ATOM     13  C   UNL     1       2.643  15.821  19.439  0.00  0.00    +0.000 C 
ATOM     14  C   UNL     1       3.898  15.676  18.814  0.00  0.00    +0.000 C 
ATOM     15  C   UNL     1       4.862  16.622  19.607  0.00  0.00    +0.000 C 
ATOM     16  C   UNL     1       2.974  16.721  17.688  0.00  0.00    +0.000 C 
ATOM     17  C   UNL     1       1.202  16.895  18.063  0.00  0.00    +0.000 C 
ENDROOT
BRANCH   7  18
ATOM     18  C   UNL     1      -0.160  15.402  22.262  0.00  0.00    +0.000 C 
ATOM     19  O   UNL     1       0.149  15.402  23.440  0.00  0.00    +0.000 OA
ENDBRANCH   7  18
BRANCH  11  20
ATOM     20  C   UNL     1       0.491  12.750  19.431  0.00  0.00    +0.000 C 
ATOM     21  C   UNL     1       0.153  11.690  20.583  0.00  0.00    +0.000 C 
BRANCH  20  22
ATOM     22  C   UNL     1      -0.764  12.732  18.466  0.00  0.00    +0.000 C 
ATOM     23  C   UNL     1      -1.912  12.067  18.779  0.00  0.00    +0.000 C 
BRANCH  23  24
ATOM     24  C   UNL     1      -3.262  12.049  18.108  0.00  0.00    +0.000 C 
BRANCH  24  25
ATOM     25  C   UNL     1      -3.584  10.887  17.093  0.00  0.00    +0.000 C 
ATOM     26  C   UNL     1      -2.778  11.088  15.791  0.00  0.00    +0.000 C 
ATOM     27  C   UNL     1      -3.284   9.492  17.649  0.00  0.00    +0.000 C 
BRANCH  25  28
ATOM     28  O   UNL     1      -4.991  10.919  16.746  0.00  0.00    +0.000 OA
ATOM     29  H   UNL     1      -5.414  11.651  17.227  0.00  0.00    +0.000 HD
ENDBRANCH  25  28
ENDBRANCH  24  25
BRANCH  24  30
ATOM     30  O   UNL     1      -4.170  11.883  19.203  0.00  0.00    +0.000 OA
ATOM     31  H   UNL     1      -3.688  11.379  19.881  0.00  0.00    +0.000 HD
ENDBRANCH  24  30
ENDBRANCH  23  24
ENDBRANCH  20  22
ENDBRANCH  11  20
TORSDOF 7
ENDMDL
MODEL 9
REMARK VINA RESULT:      -6.0      4.357      7.410
REMARK  Name = 
REMARK  12 active torsions:
REMARK  status: ('A' for Active; 'I' for Inactive)
REMARK    1  A    between atoms: C_1  and  C_2
REMARK    2  A    between atoms: C_7  and  C_8
REMARK    3  A    between atoms: C_13  and  C_14
REMARK    4  A    between atoms: C_14  and  C_15
REMARK    5  A    between atoms: C_14  and  C_16
REMARK    6  A    between atoms: C_17  and  C_18
REMARK    7  A    between atoms: C_18  and  O_19
REMARK    8  A    between atoms: C_18  and  C_20
REMARK    9  A    between atoms: C_20  and  C_21
REMARK   10  A    between atoms: C_20  and  C_22
REMARK   11  A    between atoms: C_20  and  O_23
REMARK   12  A    between atoms: C_26  and  C_27
REMARK                            x       y       z     vdW  Elec       q    Type
REMARK                         _______ _______ _______ _____ _____    ______ ____
ROOT
ATOM      1  C   UNL     1       2.264   7.365  19.504  0.00  0.00    +0.000 C 
ATOM      2  C   UNL     1       1.481   8.215  20.437  0.00  0.00    +0.000 C 
ATOM      3  C   UNL     1       1.753   8.497  21.722  0.00  0.00    +0.000 C 
ATOM      4  C   UNL     1       0.799   9.496  22.338  0.00  0.00    +0.000 C 
ATOM      5  O   UNL     1       0.910   9.766  23.516  0.00  0.00    +0.000 OA
ATOM      6  C   UNL     1      -0.071  10.215  21.304  0.00  0.00    +0.000 C 
ATOM      7  C   UNL     1      -1.318  11.501  21.605  0.00  0.00    +0.000 C 
ATOM      8  C   UNL     1      -2.090  12.442  20.882  0.00  0.00    +0.000 C 
ATOM      9  C   UNL     1      -2.375  12.854  19.342  0.00  0.00    +0.000 C 
ATOM     10  C   UNL     1      -1.287  12.444  18.303  0.00  0.00    +0.000 C 
ATOM     11  C   UNL     1       0.068  13.023  19.007  0.00  0.00    +0.000 C 
ATOM     12  C   UNL     1       0.434  11.615  18.982  0.00  0.00    +0.000 C 
ATOM     13  C   UNL     1      -1.052  10.656  19.247  0.00  0.00    +0.000 C 
ATOM     14  C   UNL     1      -1.238  10.610  17.851  0.00  0.00    +0.000 C 
ATOM     15  C   UNL     1      -2.610   9.882  17.646  0.00  0.00    +0.000 C 
ATOM     16  C   UNL     1      -0.025   9.328  18.166  0.00  0.00    +0.000 C 
ATOM     17  C   UNL     1       0.649   9.292  19.856  0.00  0.00    +0.000 C 
ENDROOT
BRANCH   7  18
ATOM     18  C   UNL     1      -1.624  11.844  23.024  0.00  0.00    +0.000 C 
ATOM     19  O   UNL     1      -2.742  11.775  23.501  0.00  0.00    +0.000 OA
ENDBRANCH   7  18
BRANCH  11  20
ATOM     20  C   UNL     1       0.796  13.663  20.513  0.00  0.00    +0.000 C 
ATOM     21  C   UNL     1       0.120  14.808  21.405  0.00  0.00    +0.000 C 
BRANCH  20  22
ATOM     22  C   UNL     1       2.334  13.696  20.890  0.00  0.00    +0.000 C 
ATOM     23  C   UNL     1       3.207  14.567  20.309  0.00  0.00    +0.000 C 
BRANCH  23  24
ATOM     24  C   UNL     1       4.647  14.886  20.622  0.00  0.00    +0.000 C 
BRANCH  24  25
ATOM     25  C   UNL     1       5.586  15.363  19.450  0.00  0.00    +0.000 C 
ATOM     26  C   UNL     1       5.135  14.720  18.121  0.00  0.00    +0.000 C 
ATOM     27  C   UNL     1       5.619  16.884  19.278  0.00  0.00    +0.000 C 
BRANCH  25  28
ATOM     28  O   UNL     1       6.945  14.929  19.708  0.00  0.00    +0.000 OA
ATOM     29  H   UNL     1       7.323  15.486  20.410  0.00  0.00    +0.000 HD
ENDBRANCH  25  28
ENDBRANCH  24  25
BRANCH  24  30
ATOM     30  O   UNL     1       4.548  15.990  21.528  0.00  0.00    +0.000 OA
ATOM     31  H   UNL     1       3.629  16.303  21.476  0.00  0.00    +0.000 HD
ENDBRANCH  24  30
ENDBRANCH  23  24
ENDBRANCH  20  22
ENDBRANCH  11  20
TORSDOF 7
ENDMDL
