MODEL 1
REMARK VINA RESULT:      -8.8      0.000      0.000
REMARK  Name = 
REMARK  12 active torsions:
REMARK  status: ('A' for Active; 'I' for Inactive)
REMARK    1  A    between atoms: C_1  and  C_2
REMARK    2  A    between atoms: C_2  and  C_3
REMARK    3  A    between atoms: C_2  and  C_4
REMARK    4  A    between atoms: C_4  and  C_5
REMARK    5  A    between atoms: C_5  and  N_6
REMARK    6  A    between atoms: C_7  and  C_9
REMARK    7  A    between atoms: C_9  and  C_10
REMARK    8  A    between atoms: C_9  and  N_16
REMARK    9  A    between atoms: N_16  and  C_17
REMARK   10  A    between atoms: C_17  and  C_18
REMARK   11  A    between atoms: C_24  and  C_26
REMARK   12  A    between atoms: C_26  and  N_27
REMARK                            x       y       z     vdW  Elec       q    Type
REMARK                         _______ _______ _______ _____ _____    ______ ____
ROOT
ATOM      1  N   UNL     1       3.648   5.435  17.443  0.00  0.00    +0.000 N 
ATOM      2  C   UNL     1       3.255   6.763  17.797  0.00  0.00    +0.000 C 
ATOM      3  O   UNL     1       4.080   7.681  17.707  0.00  0.00    +0.000 OA
ENDROOT
BRANCH   1   4
ATOM      4  C   UNL     1       5.059   5.106  16.882  0.00  0.00    +0.000 C 
BRANCH   4   5
ATOM      5  C   UNL     1       6.207   5.444  17.872  0.00  0.00    +0.000 A 
ATOM      6  C   UNL     1       7.150   6.433  17.536  0.00  0.00    +0.000 A 
ATOM      7  C   UNL     1       8.144   6.816  18.450  0.00  0.00    +0.000 A 
ATOM      8  C   UNL     1       8.185   6.198  19.680  0.00  0.00    +0.000 A 
ATOM      9  N   UNL     1       7.317   5.226  20.046  0.00  0.00    +0.000 NA
ATOM     10  C   UNL     1       6.348   4.899  19.148  0.00  0.00    +0.000 A 
ENDBRANCH   4   5
BRANCH   4  12
ATOM     11  N   UNL     1       6.021   4.432  14.534  0.00  0.00    +0.000 N 
ATOM     12  C   UNL     1       5.535   5.437  15.360  0.00  0.00    +0.000 C 
ATOM     13  O   UNL     1       5.310   6.553  14.874  0.00  0.00    +0.000 OA
ATOM     14  H   UNL     1       6.110   3.491  14.876  0.00  0.00    +0.000 HD
BRANCH  11  15
ATOM     15  C   UNL     1       6.407   4.686  13.134  0.00  0.00    +0.000 C 
BRANCH  15  16
ATOM     16  C   UNL     1       6.724   3.434  12.282  0.00  0.00    +0.000 C 
BRANCH  16  18
ATOM     17  C   UNL     1       4.385   3.216  11.311  0.00  0.00    +0.000 C 
ATOM     18  C   UNL     1       5.541   2.487  11.995  0.00  0.00    +0.000 C 
ATOM     19  C   UNL     1       5.970   1.300  11.119  0.00  0.00    +0.000 C 
ENDBRANCH  16  18
ENDBRANCH  15  16
ENDBRANCH  11  15
ENDBRANCH   4  12
ENDBRANCH   1   4
BRANCH   1  20
ATOM     20  C   UNL     1       2.688   4.357  17.499  0.00  0.00    +0.000 C 
BRANCH  20  21
ATOM     21  C   UNL     1       2.495   3.785  18.886  0.00  0.00    +0.000 A 
ATOM     22  C   UNL     1       3.523   3.172  19.622  0.00  0.00    +0.000 A 
ATOM     23  C   UNL     1       3.263   2.604  20.871  0.00  0.00    +0.000 A 
ATOM     24  C   UNL     1       1.979   2.652  21.407  0.00  0.00    +0.000 A 
ATOM     25  C   UNL     1       0.958   3.285  20.704  0.00  0.00    +0.000 A 
ATOM     26  C   UNL     1       1.213   3.852  19.456  0.00  0.00    +0.000 A 
ENDBRANCH  20  21
ENDBRANCH   1  20
BRANCH   2  27
ATOM     27  C   UNL     1       1.786   7.118  18.394  0.00  0.00    +0.000 C 
BRANCH  27  28
ATOM     28  N   UNL     1       1.585   8.535  18.770  0.00  0.00    +0.000 N 
ATOM     29  N   UNL     1       1.824   9.402  17.765  0.00  0.00    +0.000 NA
ATOM     30  N   UNL     1       1.502  10.615  18.152  0.00  0.00    +0.000 NA
ATOM     31  C   UNL     1       1.050  10.549  19.428  0.00  0.00    +0.000 A 
ATOM     32  C   UNL     1       0.577  11.617  20.215  0.00  0.00    +0.000 A 
ATOM     33  C   UNL     1       0.140  11.383  21.501  0.00  0.00    +0.000 A 
ATOM     34  C   UNL     1       0.210  10.097  22.024  0.00  0.00    +0.000 A 
ATOM     35  C   UNL     1       0.694   8.984  21.248  0.00  0.00    +0.000 A 
ATOM     36  C   UNL     1       1.099   9.223  19.900  0.00  0.00    +0.000 A 
ENDBRANCH  27  28
ENDBRANCH   2  27
TORSDOF 10
ENDMDL
MODEL 2
REMARK VINA RESULT:      -8.6      1.545      1.942
REMARK  Name = 
REMARK  12 active torsions:
REMARK  status: ('A' for Active; 'I' for Inactive)
REMARK    1  A    between atoms: C_1  and  C_2
REMARK    2  A    between atoms: C_2  and  C_3
REMARK    3  A    between atoms: C_2  and  C_4
REMARK    4  A    between atoms: C_4  and  C_5
REMARK    5  A    between atoms: C_5  and  N_6
REMARK    6  A    between atoms: C_7  and  C_9
REMARK    7  A    between atoms: C_9  and  C_10
REMARK    8  A    between atoms: C_9  and  N_16
REMARK    9  A    between atoms: N_16  and  C_17
REMARK   10  A    between atoms: C_17  and  C_18
REMARK   11  A    between atoms: C_24  and  C_26
REMARK   12  A    between atoms: C_26  and  N_27
REMARK                            x       y       z     vdW  Elec       q    Type
REMARK                         _______ _______ _______ _____ _____    ______ ____
ROOT
ATOM      1  N   UNL     1       5.030   5.875  18.346  0.00  0.00    +0.000 N 
ATOM      2  C   UNL     1       4.033   6.543  17.569  0.00  0.00    +0.000 C 
ATOM      3  O   UNL     1       4.359   7.082  16.504  0.00  0.00    +0.000 OA
ENDROOT
BRANCH   1   4
ATOM      4  C   UNL     1       6.504   5.741  17.872  0.00  0.00    +0.000 C 
BRANCH   4   5
ATOM      5  C   UNL     1       7.328   7.044  18.056  0.00  0.00    +0.000 A 
ATOM      6  C   UNL     1       7.047   8.167  17.256  0.00  0.00    +0.000 A 
ATOM      7  C   UNL     1       7.719   9.382  17.463  0.00  0.00    +0.000 A 
ATOM      8  C   UNL     1       8.669   9.451  18.458  0.00  0.00    +0.000 A 
ATOM      9  N   UNL     1       8.994   8.396  19.241  0.00  0.00    +0.000 NA
ATOM     10  C   UNL     1       8.303   7.242  19.034  0.00  0.00    +0.000 A 
ENDBRANCH   4   5
BRANCH   4  12
ATOM     11  N   UNL     1       6.286   5.253  15.302  0.00  0.00    +0.000 N 
ATOM     12  C   UNL     1       6.954   5.000  16.494  0.00  0.00    +0.000 C 
ATOM     13  O   UNL     1       7.997   4.336  16.464  0.00  0.00    +0.000 OA
ATOM     14  H   UNL     1       5.499   5.877  15.283  0.00  0.00    +0.000 HD
BRANCH  11  15
ATOM     15  C   UNL     1       6.702   4.644  14.026  0.00  0.00    +0.000 C 
BRANCH  15  16
ATOM     16  C   UNL     1       5.767   3.548  13.462  0.00  0.00    +0.000 C 
BRANCH  16  18
ATOM     17  C   UNL     1       6.642   2.156  11.523  0.00  0.00    +0.000 C 
ATOM     18  C   UNL     1       5.787   3.355  11.932  0.00  0.00    +0.000 C 
ATOM     19  C   UNL     1       4.369   3.169  11.370  0.00  0.00    +0.000 C 
ENDBRANCH  16  18
ENDBRANCH  15  16
ENDBRANCH  11  15
ENDBRANCH   4  12
ENDBRANCH   1   4
BRANCH   1  20
ATOM     20  C   UNL     1       4.663   5.202  19.570  0.00  0.00    +0.000 C 
BRANCH  20  21
ATOM     21  C   UNL     1       3.730   4.030  19.365  0.00  0.00    +0.000 A 
ATOM     22  C   UNL     1       3.853   3.118  18.303  0.00  0.00    +0.000 A 
ATOM     23  C   UNL     1       2.918   2.094  18.133  0.00  0.00    +0.000 A 
ATOM     24  C   UNL     1       1.859   1.959  19.025  0.00  0.00    +0.000 A 
ATOM     25  C   UNL     1       1.743   2.834  20.102  0.00  0.00    +0.000 A 
ATOM     26  C   UNL     1       2.673   3.859  20.275  0.00  0.00    +0.000 A 
ENDBRANCH  20  21
ENDBRANCH   1  20
BRANCH   2  27
ATOM     27  C   UNL     1       2.491   6.698  18.058  0.00  0.00    +0.000 C 
BRANCH  27  28
ATOM     28  N   UNL     1       2.116   8.046  18.540  0.00  0.00    +0.000 N 
ATOM     29  N   UNL     1       2.179   8.999  17.588  0.00  0.00    +0.000 NA
ATOM     30  N   UNL     1       1.713  10.127  18.071  0.00  0.00    +0.000 NA
ATOM     31  C   UNL     1       1.344   9.918  19.359  0.00  0.00    +0.000 A 
ATOM     32  C   UNL     1       0.770  10.858  20.238  0.00  0.00    +0.000 A 
ATOM     33  C   UNL     1       0.440  10.485  21.523  0.00  0.00    +0.000 A 
ATOM     34  C   UNL     1       0.716   9.192  21.953  0.00  0.00    +0.000 A 
ATOM     35  C   UNL     1       1.308   8.209  21.080  0.00  0.00    +0.000 A 
ATOM     36  C   UNL     1       1.602   8.587  19.736  0.00  0.00    +0.000 A 
ENDBRANCH  27  28
ENDBRANCH   2  27
TORSDOF 10
ENDMDL
MODEL 3
REMARK VINA RESULT:      -8.2      0.608      1.199
REMARK  Name = 
REMARK  12 active torsions:
REMARK  status: ('A' for Active; 'I' for Inactive)
REMARK    1  A    between atoms: C_1  and  C_2
REMARK    2  A    between atoms: C_2  and  C_3
REMARK    3  A    between atoms: C_2  and  C_4
REMARK    4  A    between atoms: C_4  and  C_5
REMARK    5  A    between atoms: C_5  and  N_6
REMARK    6  A    between atoms: C_7  and  C_9
REMARK    7  A    between atoms: C_9  and  C_10
REMARK    8  A    between atoms: C_9  and  N_16
REMARK    9  A    between atoms: N_16  and  C_17
REMARK   10  A    between atoms: C_17  and  C_18
REMARK   11  A    between atoms: C_24  and  C_26
REMARK   12  A    between atoms: C_26  and  N_27
REMARK                            x       y       z     vdW  Elec       q    Type
REMARK                         _______ _______ _______ _____ _____    ______ ____
ROOT
ATOM      1  N   UNL     1       3.729   5.455  17.343  0.00  0.00    +0.000 N 
ATOM      2  C   UNL     1       3.238   6.747  17.708  0.00  0.00    +0.000 C 
ATOM      3  O   UNL     1       3.998   7.722  17.641  0.00  0.00    +0.000 OA
ENDROOT
BRANCH   1   4
ATOM      4  C   UNL     1       5.167   5.233  16.798  0.00  0.00    +0.000 C 
BRANCH   4   5
ATOM      5  C   UNL     1       6.273   5.728  17.769  0.00  0.00    +0.000 A 
ATOM      6  C   UNL     1       6.503   5.040  18.975  0.00  0.00    +0.000 A 
ATOM      7  C   UNL     1       7.554   5.416  19.827  0.00  0.00    +0.000 A 
ATOM      8  C   UNL     1       8.350   6.479  19.465  0.00  0.00    +0.000 A 
ATOM      9  N   UNL     1       8.160   7.190  18.329  0.00  0.00    +0.000 NA
ATOM     10  C   UNL     1       7.152   6.781  17.511  0.00  0.00    +0.000 A 
ENDBRANCH   4   5
BRANCH   4  12
ATOM     11  N   UNL     1       6.247   4.555  14.504  0.00  0.00    +0.000 N 
ATOM     12  C   UNL     1       5.616   5.533  15.262  0.00  0.00    +0.000 C 
ATOM     13  O   UNL     1       5.247   6.574  14.705  0.00  0.00    +0.000 OA
ATOM     14  H   UNL     1       6.460   3.658  14.905  0.00  0.00    +0.000 HD
BRANCH  11  15
ATOM     15  C   UNL     1       6.616   4.773  13.093  0.00  0.00    +0.000 C 
BRANCH  15  16
ATOM     16  C   UNL     1       6.809   3.497  12.240  0.00  0.00    +0.000 C 
BRANCH  16  18
ATOM     17  C   UNL     1       4.412   3.347  11.409  0.00  0.00    +0.000 C 
ATOM     18  C   UNL     1       5.569   2.597  12.068  0.00  0.00    +0.000 C 
ATOM     19  C   UNL     1       5.891   1.348  11.233  0.00  0.00    +0.000 C 
ENDBRANCH  16  18
ENDBRANCH  15  16
ENDBRANCH  11  15
ENDBRANCH   4  12
ENDBRANCH   1   4
BRANCH   1  20
ATOM     20  C   UNL     1       2.847   4.311  17.373  0.00  0.00    +0.000 C 
BRANCH  20  21
ATOM     21  C   UNL     1       2.612   3.759  18.761  0.00  0.00    +0.000 A 
ATOM     22  C   UNL     1       1.412   3.935  19.472  0.00  0.00    +0.000 A 
ATOM     23  C   UNL     1       1.282   3.455  20.777  0.00  0.00    +0.000 A 
ATOM     24  C   UNL     1       2.339   2.783  21.384  0.00  0.00    +0.000 A 
ATOM     25  C   UNL     1       3.521   2.572  20.680  0.00  0.00    +0.000 A 
ATOM     26  C   UNL     1       3.657   3.050  19.378  0.00  0.00    +0.000 A 
ENDBRANCH  20  21
ENDBRANCH   1  20
BRANCH   2  27
ATOM     27  C   UNL     1       1.740   6.990  18.288  0.00  0.00    +0.000 C 
BRANCH  27  28
ATOM     28  N   UNL     1       1.489   8.340  18.838  0.00  0.00    +0.000 N 
ATOM     29  N   UNL     1       1.503   9.316  17.908  0.00  0.00    +0.000 NA
ATOM     30  N   UNL     1       1.150  10.452  18.464  0.00  0.00    +0.000 NA
ATOM     31  C   UNL     1       0.907  10.225  19.778  0.00  0.00    +0.000 A 
ATOM     32  C   UNL     1       0.478  11.166  20.735  0.00  0.00    +0.000 A 
ATOM     33  C   UNL     1       0.263  10.773  22.038  0.00  0.00    +0.000 A 
ATOM     34  C   UNL     1       0.513   9.456  22.405  0.00  0.00    +0.000 A 
ATOM     35  C   UNL     1       0.958   8.471  21.453  0.00  0.00    +0.000 A 
ATOM     36  C   UNL     1       1.130   8.871  20.094  0.00  0.00    +0.000 A 
ENDBRANCH  27  28
ENDBRANCH   2  27
TORSDOF 10
ENDMDL
MODEL 4
REMARK VINA RESULT:      -8.1      2.490      5.266
REMARK  Name = 
REMARK  12 active torsions:
REMARK  status: ('A' for Active; 'I' for Inactive)
REMARK    1  A    between atoms: C_1  and  C_2
REMARK    2  A    between atoms: C_2  and  C_3
REMARK    3  A    between atoms: C_2  and  C_4
REMARK    4  A    between atoms: C_4  and  C_5
REMARK    5  A    between atoms: C_5  and  N_6
REMARK    6  A    between atoms: C_7  and  C_9
REMARK    7  A    between atoms: C_9  and  C_10
REMARK    8  A    between atoms: C_9  and  N_16
REMARK    9  A    between atoms: N_16  and  C_17
REMARK   10  A    between atoms: C_17  and  C_18
REMARK   11  A    between atoms: C_24  and  C_26
REMARK   12  A    between atoms: C_26  and  N_27
REMARK                            x       y       z     vdW  Elec       q    Type
REMARK                         _______ _______ _______ _____ _____    ______ ____
ROOT
ATOM      1  N   UNL     1       4.517   6.552  18.413  0.00  0.00    +0.000 N 
ATOM      2  C   UNL     1       3.284   7.274  18.353  0.00  0.00    +0.000 C 
ATOM      3  O   UNL     1       3.168   8.202  17.543  0.00  0.00    +0.000 OA
ENDROOT
BRANCH   1   4
ATOM      4  C   UNL     1       5.702   6.844  17.450  0.00  0.00    +0.000 C 
BRANCH   4   5
ATOM      5  C   UNL     1       5.898   5.748  16.369  0.00  0.00    +0.000 A 
ATOM      6  C   UNL     1       5.191   5.829  15.155  0.00  0.00    +0.000 A 
ATOM      7  C   UNL     1       5.417   4.898  14.129  0.00  0.00    +0.000 A 
ATOM      8  C   UNL     1       6.337   3.895  14.337  0.00  0.00    +0.000 A 
ATOM      9  N   UNL     1       7.028   3.756  15.493  0.00  0.00    +0.000 NA
ATOM     10  C   UNL     1       6.807   4.693  16.455  0.00  0.00    +0.000 A 
ENDBRANCH   4   5
BRANCH   4  12
ATOM     11  N   UNL     1       7.492   8.737  17.771  0.00  0.00    +0.000 N 
ATOM     12  C   UNL     1       7.153   7.400  17.935  0.00  0.00    +0.000 C 
ATOM     13  O   UNL     1       7.899   6.673  18.603  0.00  0.00    +0.000 OA
ATOM     14  H   UNL     1       6.854   9.373  17.326  0.00  0.00    +0.000 HD
BRANCH  11  15
ATOM     15  C   UNL     1       8.775   9.285  18.249  0.00  0.00    +0.000 C 
BRANCH  15  16
ATOM     16  C   UNL     1       8.916  10.825  18.191  0.00  0.00    +0.000 C 
BRANCH  16  18
ATOM     17  C   UNL     1      10.534  12.669  17.525  0.00  0.00    +0.000 C 
ATOM     18  C   UNL     1      10.347  11.384  18.331  0.00  0.00    +0.000 C 
ATOM     19  C   UNL     1      10.701  11.661  19.800  0.00  0.00    +0.000 C 
ENDBRANCH  16  18
ENDBRANCH  15  16
ENDBRANCH  11  15
ENDBRANCH   4  12
ENDBRANCH   1   4
BRANCH   1  20
ATOM     20  C   UNL     1       4.659   5.437  19.319  0.00  0.00    +0.000 C 
BRANCH  20  21
ATOM     21  C   UNL     1       4.042   4.154  18.810  0.00  0.00    +0.000 A 
ATOM     22  C   UNL     1       3.139   4.102  17.734  0.00  0.00    +0.000 A 
ATOM     23  C   UNL     1       2.553   2.892  17.354  0.00  0.00    +0.000 A 
ATOM     24  C   UNL     1       2.870   1.719  18.032  0.00  0.00    +0.000 A 
ATOM     25  C   UNL     1       3.788   1.749  19.078  0.00  0.00    +0.000 A 
ATOM     26  C   UNL     1       4.374   2.955  19.462  0.00  0.00    +0.000 A 
ENDBRANCH  20  21
ENDBRANCH   1  20
BRANCH   2  27
ATOM     27  C   UNL     1       2.043   6.983  19.359  0.00  0.00    +0.000 C 
BRANCH  27  28
ATOM     28  N   UNL     1       1.517   8.170  20.069  0.00  0.00    +0.000 N 
ATOM     29  N   UNL     1       1.712   8.135  21.403  0.00  0.00    +0.000 NA
ATOM     30  N   UNL     1       1.328   9.276  21.928  0.00  0.00    +0.000 NA
ATOM     31  C   UNL     1       0.868  10.071  20.930  0.00  0.00    +0.000 A 
ATOM     32  C   UNL     1       0.385  11.388  21.053  0.00  0.00    +0.000 A 
ATOM     33  C   UNL     1      -0.039  12.072  19.934  0.00  0.00    +0.000 A 
ATOM     34  C   UNL     1      -0.024  11.436  18.698  0.00  0.00    +0.000 A 
ATOM     35  C   UNL     1       0.458  10.088  18.540  0.00  0.00    +0.000 A 
ATOM     36  C   UNL     1       0.943   9.402  19.694  0.00  0.00    +0.000 A 
ENDBRANCH  27  28
ENDBRANCH   2  27
TORSDOF 10
ENDMDL
MODEL 5
REMARK VINA RESULT:      -7.9      1.002      1.646
REMARK  Name = 
REMARK  12 active torsions:
REMARK  status: ('A' for Active; 'I' for Inactive)
REMARK    1  A    between atoms: C_1  and  C_2
REMARK    2  A    between atoms: C_2  and  C_3
REMARK    3  A    between atoms: C_2  and  C_4
REMARK    4  A    between atoms: C_4  and  C_5
REMARK    5  A    between atoms: C_5  and  N_6
REMARK    6  A    between atoms: C_7  and  C_9
REMARK    7  A    between atoms: C_9  and  C_10
REMARK    8  A    between atoms: C_9  and  N_16
REMARK    9  A    between atoms: N_16  and  C_17
REMARK   10  A    between atoms: C_17  and  C_18
REMARK   11  A    between atoms: C_24  and  C_26
REMARK   12  A    between atoms: C_26  and  N_27
REMARK                            x       y       z     vdW  Elec       q    Type
REMARK                         _______ _______ _______ _____ _____    ______ ____
ROOT
ATOM      1  N   UNL     1       3.809   4.814  17.354  0.00  0.00    +0.000 N 
ATOM      2  C   UNL     1       3.266   6.112  17.607  0.00  0.00    +0.000 C 
ATOM      3  O   UNL     1       4.000   7.103  17.507  0.00  0.00    +0.000 OA
ENDROOT
BRANCH   1   4
ATOM      4  C   UNL     1       5.277   4.601  16.889  0.00  0.00    +0.000 C 
BRANCH   4   5
ATOM      5  C   UNL     1       6.323   5.173  17.883  0.00  0.00    +0.000 A 
ATOM      6  C   UNL     1       7.166   6.226  17.481  0.00  0.00    +0.000 A 
ATOM      7  C   UNL     1       8.059   6.817  18.389  0.00  0.00    +0.000 A 
ATOM      8  C   UNL     1       8.104   6.338  19.679  0.00  0.00    +0.000 A 
ATOM      9  N   UNL     1       7.333   5.314  20.112  0.00  0.00    +0.000 NA
ATOM     10  C   UNL     1       6.457   4.784  19.216  0.00  0.00    +0.000 A 
ENDBRANCH   4   5
BRANCH   4  12
ATOM     11  N   UNL     1       6.273   3.770  14.607  0.00  0.00    +0.000 N 
ATOM     12  C   UNL     1       5.791   4.832  15.361  0.00  0.00    +0.000 C 
ATOM     13  O   UNL     1       5.600   5.921  14.805  0.00  0.00    +0.000 OA
ATOM     14  H   UNL     1       6.335   2.850  15.006  0.00  0.00    +0.000 HD
BRANCH  11  15
ATOM     15  C   UNL     1       6.694   3.932  13.203  0.00  0.00    +0.000 C 
BRANCH  15  16
ATOM     16  C   UNL     1       5.554   4.102  12.171  0.00  0.00    +0.000 C 
BRANCH  16  18
ATOM     17  C   UNL     1       3.691   3.103  10.759  0.00  0.00    +0.000 C 
ATOM     18  C   UNL     1       4.773   2.824  11.801  0.00  0.00    +0.000 C 
ATOM     19  C   UNL     1       5.708   1.728  11.267  0.00  0.00    +0.000 C 
ENDBRANCH  16  18
ENDBRANCH  15  16
ENDBRANCH  11  15
ENDBRANCH   4  12
ENDBRANCH   1   4
BRANCH   1  20
ATOM     20  C   UNL     1       2.960   3.648  17.423  0.00  0.00    +0.000 C 
BRANCH  20  21
ATOM     21  C   UNL     1       2.535   3.285  18.828  0.00  0.00    +0.000 A 
ATOM     22  C   UNL     1       1.203   3.336  19.273  0.00  0.00    +0.000 A 
ATOM     23  C   UNL     1       0.885   3.051  20.602  0.00  0.00    +0.000 A 
ATOM     24  C   UNL     1       1.888   2.699  21.501  0.00  0.00    +0.000 A 
ATOM     25  C   UNL     1       3.208   2.612  21.067  0.00  0.00    +0.000 A 
ATOM     26  C   UNL     1       3.530   2.897  19.741  0.00  0.00    +0.000 A 
ENDBRANCH  20  21
ENDBRANCH   1  20
BRANCH   2  27
ATOM     27  C   UNL     1       1.737   6.346  18.103  0.00  0.00    +0.000 C 
BRANCH  27  28
ATOM     28  N   UNL     1       1.562   7.395  19.131  0.00  0.00    +0.000 N 
ATOM     29  N   UNL     1       1.790   6.965  20.389  0.00  0.00    +0.000 NA
ATOM     30  N   UNL     1       1.734   7.985  21.214  0.00  0.00    +0.000 NA
ATOM     31  C   UNL     1       1.459   9.100  20.494  0.00  0.00    +0.000 A 
ATOM     32  C   UNL     1       1.338  10.416  20.984  0.00  0.00    +0.000 A 
ATOM     33  C   UNL     1       1.064  11.450  20.116  0.00  0.00    +0.000 A 
ATOM     34  C   UNL     1       0.868  11.178  18.767  0.00  0.00    +0.000 A 
ATOM     35  C   UNL     1       0.979   9.843  18.235  0.00  0.00    +0.000 A 
ATOM     36  C   UNL     1       1.312   8.783  19.130  0.00  0.00    +0.000 A 
ENDBRANCH  27  28
ENDBRANCH   2  27
TORSDOF 10
ENDMDL
MODEL 6
REMARK VINA RESULT:      -7.9      1.633      3.935
REMARK  Name = 
REMARK  12 active torsions:
REMARK  status: ('A' for Active; 'I' for Inactive)
REMARK    1  A    between atoms: C_1  and  C_2
REMARK    2  A    between atoms: C_2  and  C_3
REMARK    3  A    between atoms: C_2  and  C_4
REMARK    4  A    between atoms: C_4  and  C_5
REMARK    5  A    between atoms: C_5  and  N_6
REMARK    6  A    between atoms: C_7  and  C_9
REMARK    7  A    between atoms: C_9  and  C_10
REMARK    8  A    between atoms: C_9  and  N_16
REMARK    9  A    between atoms: N_16  and  C_17
REMARK   10  A    between atoms: C_17  and  C_18
REMARK   11  A    between atoms: C_24  and  C_26
REMARK   12  A    between atoms: C_26  and  N_27
REMARK                            x       y       z     vdW  Elec       q    Type
REMARK                         _______ _______ _______ _____ _____    ______ ____
ROOT
ATOM      1  N   UNL     1       4.108   6.099  16.833  0.00  0.00    +0.000 N 
ATOM      2  C   UNL     1       3.055   6.600  17.661  0.00  0.00    +0.000 C 
ATOM      3  O   UNL     1       2.202   5.815  18.092  0.00  0.00    +0.000 OA
ENDROOT
BRANCH   1   4
ATOM      4  C   UNL     1       4.262   4.588  16.505  0.00  0.00    +0.000 C 
BRANCH   4   5
ATOM      5  C   UNL     1       4.072   3.670  17.743  0.00  0.00    +0.000 A 
ATOM      6  C   UNL     1       3.080   2.671  17.726  0.00  0.00    +0.000 A 
ATOM      7  C   UNL     1       2.947   1.774  18.798  0.00  0.00    +0.000 A 
ATOM      8  C   UNL     1       3.799   1.897  19.873  0.00  0.00    +0.000 A 
ATOM      9  N   UNL     1       4.755   2.852  19.951  0.00  0.00    +0.000 NA
ATOM     10  C   UNL     1       4.877   3.686  18.882  0.00  0.00    +0.000 A 
ENDBRANCH   4   5
BRANCH   4  12
ATOM     11  N   UNL     1       5.735   4.576  14.332  0.00  0.00    +0.000 N 
ATOM     12  C   UNL     1       5.429   3.978  15.547  0.00  0.00    +0.000 C 
ATOM     13  O   UNL     1       6.165   3.077  15.970  0.00  0.00    +0.000 OA
ATOM     14  H   UNL     1       5.219   5.380  14.017  0.00  0.00    +0.000 HD
BRANCH  11  15
ATOM     15  C   UNL     1       6.823   4.085  13.467  0.00  0.00    +0.000 C 
BRANCH  15  16
ATOM     16  C   UNL     1       6.420   3.707  12.021  0.00  0.00    +0.000 C 
BRANCH  16  18
ATOM     17  C   UNL     1       4.123   3.085  11.129  0.00  0.00    +0.000 C 
ATOM     18  C   UNL     1       5.361   2.594  11.877  0.00  0.00    +0.000 C 
ATOM     19  C   UNL     1       5.931   1.368  11.147  0.00  0.00    +0.000 C 
ENDBRANCH  16  18
ENDBRANCH  15  16
ENDBRANCH  11  15
ENDBRANCH   4  12
ENDBRANCH   1   4
BRANCH   1  20
ATOM     20  C   UNL     1       5.139   6.990  16.355  0.00  0.00    +0.000 C 
BRANCH  20  21
ATOM     21  C   UNL     1       6.345   7.070  17.262  0.00  0.00    +0.000 A 
ATOM     22  C   UNL     1       6.735   6.032  18.126  0.00  0.00    +0.000 A 
ATOM     23  C   UNL     1       7.822   6.194  18.988  0.00  0.00    +0.000 A 
ATOM     24  C   UNL     1       8.542   7.385  18.989  0.00  0.00    +0.000 A 
ATOM     25  C   UNL     1       8.188   8.410  18.116  0.00  0.00    +0.000 A 
ATOM     26  C   UNL     1       7.102   8.253  17.255  0.00  0.00    +0.000 A 
ENDBRANCH  20  21
ENDBRANCH   1  20
BRANCH   2  27
ATOM     27  C   UNL     1       2.878   8.178  18.002  0.00  0.00    +0.000 C 
BRANCH  27  28
ATOM     28  N   UNL     1       1.938   8.482  19.104  0.00  0.00    +0.000 N 
ATOM     29  N   UNL     1       2.055   7.654  20.161  0.00  0.00    +0.000 NA
ATOM     30  N   UNL     1       1.275   8.073  21.131  0.00  0.00    +0.000 NA
ATOM     31  C   UNL     1       0.630   9.188  20.706  0.00  0.00    +0.000 A 
ATOM     32  C   UNL     1      -0.280   9.971  21.442  0.00  0.00    +0.000 A 
ATOM     33  C   UNL     1      -0.848  11.088  20.868  0.00  0.00    +0.000 A 
ATOM     34  C   UNL     1      -0.545  11.408  19.549  0.00  0.00    +0.000 A 
ATOM     35  C   UNL     1       0.377  10.624  18.768  0.00  0.00    +0.000 A 
ATOM     36  C   UNL     1       1.000   9.497  19.383  0.00  0.00    +0.000 A 
ENDBRANCH  27  28
ENDBRANCH   2  27
TORSDOF 10
ENDMDL
MODEL 7
REMARK VINA RESULT:      -7.9      2.342      5.147
REMARK  Name = 
REMARK  12 active torsions:
REMARK  status: ('A' for Active; 'I' for Inactive)
REMARK    1  A    between atoms: C_1  and  C_2
REMARK    2  A    between atoms: C_2  and  C_3
REMARK    3  A    between atoms: C_2  and  C_4
REMARK    4  A    between atoms: C_4  and  C_5
REMARK    5  A    between atoms: C_5  and  N_6
REMARK    6  A    between atoms: C_7  and  C_9
REMARK    7  A    between atoms: C_9  and  C_10
REMARK    8  A    between atoms: C_9  and  N_16
REMARK    9  A    between atoms: N_16  and  C_17
REMARK   10  A    between atoms: C_17  and  C_18
REMARK   11  A    between atoms: C_24  and  C_26
REMARK   12  A    between atoms: C_26  and  N_27
REMARK                            x       y       z     vdW  Elec       q    Type
REMARK                         _______ _______ _______ _____ _____    ______ ____
ROOT
ATOM      1  N   UNL     1       4.488   6.725  18.307  0.00  0.00    +0.000 N 
ATOM      2  C   UNL     1       3.297   7.499  18.145  0.00  0.00    +0.000 C 
ATOM      3  O   UNL     1       3.259   8.372  17.269  0.00  0.00    +0.000 OA
ENDROOT
BRANCH   1   4
ATOM      4  C   UNL     1       5.722   6.892  17.377  0.00  0.00    +0.000 C 
BRANCH   4   5
ATOM      5  C   UNL     1       5.860   5.752  16.331  0.00  0.00    +0.000 A 
ATOM      6  C   UNL     1       5.177   5.842  15.105  0.00  0.00    +0.000 A 
ATOM      7  C   UNL     1       5.355   4.867  14.111  0.00  0.00    +0.000 A 
ATOM      8  C   UNL     1       6.203   3.812  14.363  0.00  0.00    +0.000 A 
ATOM      9  N   UNL     1       6.868   3.664  15.533  0.00  0.00    +0.000 NA
ATOM     10  C   UNL     1       6.696   4.643  16.463  0.00  0.00    +0.000 A 
ENDBRANCH   4   5
BRANCH   4  12
ATOM     11  N   UNL     1       7.638   8.649  17.742  0.00  0.00    +0.000 N 
ATOM     12  C   UNL     1       7.199   7.340  17.894  0.00  0.00    +0.000 C 
ATOM     13  O   UNL     1       7.876   6.560  18.576  0.00  0.00    +0.000 OA
ATOM     14  H   UNL     1       7.057   9.330  17.285  0.00  0.00    +0.000 HD
BRANCH  11  15
ATOM     15  C   UNL     1       8.945   9.102  18.250  0.00  0.00    +0.000 C 
BRANCH  15  16
ATOM     16  C   UNL     1       8.988  10.539  18.822  0.00  0.00    +0.000 C 
BRANCH  16  18
ATOM     17  C   UNL     1      10.816  12.052  17.912  0.00  0.00    +0.000 C 
ATOM     18  C   UNL     1      10.390  11.138  19.059  0.00  0.00    +0.000 C 
ATOM     19  C   UNL     1      10.448  11.929  20.375  0.00  0.00    +0.000 C 
ENDBRANCH  16  18
ENDBRANCH  15  16
ENDBRANCH  11  15
ENDBRANCH   4  12
ENDBRANCH   1   4
BRANCH   1  20
ATOM     20  C   UNL     1       4.539   5.672  19.293  0.00  0.00    +0.000 C 
BRANCH  20  21
ATOM     21  C   UNL     1       3.936   4.367  18.825  0.00  0.00    +0.000 A 
ATOM     22  C   UNL     1       4.261   3.119  19.382  0.00  0.00    +0.000 A 
ATOM     23  C   UNL     1       3.718   1.943  18.859  0.00  0.00    +0.000 A 
ATOM     24  C   UNL     1       2.834   1.998  17.785  0.00  0.00    +0.000 A 
ATOM     25  C   UNL     1       2.477   3.230  17.244  0.00  0.00    +0.000 A 
ATOM     26  C   UNL     1       3.018   4.406  17.762  0.00  0.00    +0.000 A 
ENDBRANCH  20  21
ENDBRANCH   1  20
BRANCH   2  27
ATOM     27  C   UNL     1       2.004   7.341  19.116  0.00  0.00    +0.000 C 
BRANCH  27  28
ATOM     28  N   UNL     1       1.359   8.610  19.517  0.00  0.00    +0.000 N 
ATOM     29  N   UNL     1       1.132   9.451  18.488  0.00  0.00    +0.000 NA
ATOM     30  N   UNL     1       0.449  10.488  18.916  0.00  0.00    +0.000 NA
ATOM     31  C   UNL     1       0.228  10.332  20.245  0.00  0.00    +0.000 A 
ATOM     32  C   UNL     1      -0.488  11.202  21.091  0.00  0.00    +0.000 A 
ATOM     33  C   UNL     1      -0.634  10.896  22.427  0.00  0.00    +0.000 A 
ATOM     34  C   UNL     1      -0.035   9.748  22.935  0.00  0.00    +0.000 A 
ATOM     35  C   UNL     1       0.709   8.842  22.097  0.00  0.00    +0.000 A 
ATOM     36  C   UNL     1       0.815   9.139  20.705  0.00  0.00    +0.000 A 
ENDBRANCH  27  28
ENDBRANCH   2  27
TORSDOF 10
ENDMDL
MODEL 8
REMARK VINA RESULT:      -7.8      3.773     10.446
REMARK  Name = 
REMARK  12 active torsions:
REMARK  status: ('A' for Active; 'I' for Inactive)
REMARK    1  A    between atoms: C_1  and  C_2
REMARK    2  A    between atoms: C_2  and  C_3
REMARK    3  A    between atoms: C_2  and  C_4
REMARK    4  A    between atoms: C_4  and  C_5
REMARK    5  A    between atoms: C_5  and  N_6
REMARK    6  A    between atoms: C_7  and  C_9
REMARK    7  A    between atoms: C_9  and  C_10
REMARK    8  A    between atoms: C_9  and  N_16
REMARK    9  A    between atoms: N_16  and  C_17
REMARK   10  A    between atoms: C_17  and  C_18
REMARK   11  A    between atoms: C_24  and  C_26
REMARK   12  A    between atoms: C_26  and  N_27
REMARK                            x       y       z     vdW  Elec       q    Type
REMARK                         _______ _______ _______ _____ _____    ______ ____
ROOT
ATOM      1  N   UNL     1       0.192  10.831  18.992  0.00  0.00    +0.000 N 
ATOM      2  C   UNL     1       1.409  10.380  18.391  0.00  0.00    +0.000 C 
ATOM      3  O   UNL     1       2.400  11.120  18.407  0.00  0.00    +0.000 OA
ENDROOT
BRANCH   1   4
ATOM      4  C   UNL     1       0.082  12.196  19.727  0.00  0.00    +0.000 C 
BRANCH   4   5
ATOM      5  C   UNL     1      -0.752  12.123  21.034  0.00  0.00    +0.000 A 
ATOM      6  C   UNL     1      -1.996  12.777  21.106  0.00  0.00    +0.000 A 
ATOM      7  C   UNL     1      -2.806  12.654  22.246  0.00  0.00    +0.000 A 
ATOM      8  C   UNL     1      -2.356  11.888  23.298  0.00  0.00    +0.000 A 
ATOM      9  N   UNL     1      -1.159  11.256  23.291  0.00  0.00    +0.000 NA
ATOM     10  C   UNL     1      -0.412  11.372  22.159  0.00  0.00    +0.000 A 
ENDBRANCH   4   5
BRANCH   4  12
ATOM     11  N   UNL     1       0.254  14.808  19.525  0.00  0.00    +0.000 N 
ATOM     12  C   UNL     1      -0.199  13.614  18.977  0.00  0.00    +0.000 C 
ATOM     13  O   UNL     1      -0.672  13.623  17.834  0.00  0.00    +0.000 OA
ATOM     14  H   UNL     1       0.739  14.812  20.405  0.00  0.00    +0.000 HD
BRANCH  11  15
ATOM     15  C   UNL     1       0.067  16.103  18.845  0.00  0.00    +0.000 C 
BRANCH  15  16
ATOM     16  C   UNL     1      -1.071  16.997  19.394  0.00  0.00    +0.000 C 
BRANCH  16  18
ATOM     17  C   UNL     1      -1.452  17.548  21.845  0.00  0.00    +0.000 C 
ATOM     18  C   UNL     1      -1.712  16.545  20.722  0.00  0.00    +0.000 C 
ATOM     19  C   UNL     1      -3.228  16.345  20.574  0.00  0.00    +0.000 C 
ENDBRANCH  16  18
ENDBRANCH  15  16
ENDBRANCH  11  15
ENDBRANCH   4  12
ENDBRANCH   1   4
BRANCH   1  20
ATOM     20  C   UNL     1      -0.964   9.966  19.024  0.00  0.00    +0.000 C 
BRANCH  20  21
ATOM     21  C   UNL     1      -1.983  10.270  17.949  0.00  0.00    +0.000 A 
ATOM     22  C   UNL     1      -1.881   9.801  16.628  0.00  0.00    +0.000 A 
ATOM     23  C   UNL     1      -2.823  10.172  15.666  0.00  0.00    +0.000 A 
ATOM     24  C   UNL     1      -3.883  11.004  16.011  0.00  0.00    +0.000 A 
ATOM     25  C   UNL     1      -4.017  11.451  17.323  0.00  0.00    +0.000 A 
ATOM     26  C   UNL     1      -3.078  11.083  18.287  0.00  0.00    +0.000 A 
ENDBRANCH  20  21
ENDBRANCH   1  20
BRANCH   2  27
ATOM     27  C   UNL     1       1.533   8.960  17.613  0.00  0.00    +0.000 C 
BRANCH  27  28
ATOM     28  N   UNL     1       2.300   7.915  18.327  0.00  0.00    +0.000 N 
ATOM     29  N   UNL     1       1.826   7.642  19.560  0.00  0.00    +0.000 NA
ATOM     30  N   UNL     1       2.486   6.625  20.063  0.00  0.00    +0.000 NA
ATOM     31  C   UNL     1       3.410   6.225  19.155  0.00  0.00    +0.000 A 
ATOM     32  C   UNL     1       4.312   5.150  19.282  0.00  0.00    +0.000 A 
ATOM     33  C   UNL     1       5.189   4.863  18.259  0.00  0.00    +0.000 A 
ATOM     34  C   UNL     1       5.202   5.667  17.124  0.00  0.00    +0.000 A 
ATOM     35  C   UNL     1       4.297   6.777  16.967  0.00  0.00    +0.000 A 
ATOM     36  C   UNL     1       3.357   7.039  18.008  0.00  0.00    +0.000 A 
ENDBRANCH  27  28
ENDBRANCH   2  27
TORSDOF 10
ENDMDL
MODEL 9
REMARK VINA RESULT:      -7.8      3.770     10.098
REMARK  Name = 
REMARK  12 active torsions:
REMARK  status: ('A' for Active; 'I' for Inactive)
REMARK    1  A    between atoms: C_1  and  C_2
REMARK    2  A    between atoms: C_2  and  C_3
REMARK    3  A    between atoms: C_2  and  C_4
REMARK    4  A    between atoms: C_4  and  C_5
REMARK    5  A    between atoms: C_5  and  N_6
REMARK    6  A    between atoms: C_7  and  C_9
REMARK    7  A    between atoms: C_9  and  C_10
REMARK    8  A    between atoms: C_9  and  N_16
REMARK    9  A    between atoms: N_16  and  C_17
REMARK   10  A    between atoms: C_17  and  C_18
REMARK   11  A    between atoms: C_24  and  C_26
REMARK   12  A    between atoms: C_26  and  N_27
REMARK                            x       y       z     vdW  Elec       q    Type
REMARK                         _______ _______ _______ _____ _____    ______ ____
ROOT
ATOM      1  N   UNL     1       0.218  10.769  18.974  0.00  0.00    +0.000 N 
ATOM      2  C   UNL     1       1.438  10.320  18.378  0.00  0.00    +0.000 C 
ATOM      3  O   UNL     1       2.427  11.063  18.396  0.00  0.00    +0.000 OA
ENDROOT
BRANCH   1   4
ATOM      4  C   UNL     1       0.102  12.134  19.706  0.00  0.00    +0.000 C 
BRANCH   4   5
ATOM      5  C   UNL     1      -0.718  12.056  21.022  0.00  0.00    +0.000 A 
ATOM      6  C   UNL     1      -1.961  12.711  21.111  0.00  0.00    +0.000 A 
ATOM      7  C   UNL     1      -2.758  12.583  22.259  0.00  0.00    +0.000 A 
ATOM      8  C   UNL     1      -2.298  11.812  23.303  0.00  0.00    +0.000 A 
ATOM      9  N   UNL     1      -1.102  11.179  23.279  0.00  0.00    +0.000 NA
ATOM     10  C   UNL     1      -0.366  11.300  22.141  0.00  0.00    +0.000 A 
ENDBRANCH   4   5
BRANCH   4  12
ATOM     11  N   UNL     1       0.224  14.749  19.510  0.00  0.00    +0.000 N 
ATOM     12  C   UNL     1      -0.201  13.548  18.957  0.00  0.00    +0.000 C 
ATOM     13  O   UNL     1      -0.664  13.550  17.810  0.00  0.00    +0.000 OA
ATOM     14  H   UNL     1       0.701  14.762  20.395  0.00  0.00    +0.000 HD
BRANCH  11  15
ATOM     15  C   UNL     1       0.017  16.041  18.831  0.00  0.00    +0.000 C 
BRANCH  15  16
ATOM     16  C   UNL     1       0.676  17.271  19.500  0.00  0.00    +0.000 C 
BRANCH  16  18
ATOM     17  C   UNL     1       3.086  17.030  20.272  0.00  0.00    +0.000 C 
ATOM     18  C   UNL     1       2.160  17.518  19.159  0.00  0.00    +0.000 C 
ATOM     19  C   UNL     1       2.557  16.830  17.844  0.00  0.00    +0.000 C 
ENDBRANCH  16  18
ENDBRANCH  15  16
ENDBRANCH  11  15
ENDBRANCH   4  12
ENDBRANCH   1   4
BRANCH   1  20
ATOM     20  C   UNL     1      -0.936   9.901  19.002  0.00  0.00    +0.000 C 
BRANCH  20  21
ATOM     21  C   UNL     1      -1.970  10.225  17.948  0.00  0.00    +0.000 A 
ATOM     22  C   UNL     1      -1.876   9.798  16.612  0.00  0.00    +0.000 A 
ATOM     23  C   UNL     1      -2.832  10.188  15.672  0.00  0.00    +0.000 A 
ATOM     24  C   UNL     1      -3.899  10.995  16.053  0.00  0.00    +0.000 A 
ATOM     25  C   UNL     1      -4.024  11.398  17.379  0.00  0.00    +0.000 A 
ATOM     26  C   UNL     1      -3.071  11.013  18.322  0.00  0.00    +0.000 A 
ENDBRANCH  20  21
ENDBRANCH   1  20
BRANCH   2  27
ATOM     27  C   UNL     1       1.568   8.899  17.601  0.00  0.00    +0.000 C 
BRANCH  27  28
ATOM     28  N   UNL     1       2.330   7.855  18.321  0.00  0.00    +0.000 N 
ATOM     29  N   UNL     1       1.843   7.578  19.548  0.00  0.00    +0.000 NA
ATOM     30  N   UNL     1       2.501   6.561  20.057  0.00  0.00    +0.000 NA
ATOM     31  C   UNL     1       3.437   6.168  19.159  0.00  0.00    +0.000 A 
ATOM     32  C   UNL     1       4.341   5.096  19.293  0.00  0.00    +0.000 A 
ATOM     33  C   UNL     1       5.231   4.815  18.279  0.00  0.00    +0.000 A 
ATOM     34  C   UNL     1       5.255   5.621  17.147  0.00  0.00    +0.000 A 
ATOM     35  C   UNL     1       4.348   6.728  16.981  0.00  0.00    +0.000 A 
ATOM     36  C   UNL     1       3.395   6.984  18.013  0.00  0.00    +0.000 A 
ENDBRANCH  27  28
ENDBRANCH   2  27
TORSDOF 10
ENDMDL
