MODEL 1
REMARK VINA RESULT:      -7.3      0.000      0.000
REMARK  Name = 
REMARK  9 active torsions:
REMARK  status: ('A' for Active; 'I' for Inactive)
REMARK    1  A    between atoms: C_1  and  C_2
REMARK    2  A    between atoms: C_6  and  N_7
REMARK    3  A    between atoms: C_11  and  C_13
REMARK    4  A    between atoms: C_13  and  C_14
REMARK    5  A    between atoms: C_15  and  C_16
REMARK    6  A    between atoms: C_16  and  O_18
REMARK    7  A    between atoms: C_19  and  C_20
REMARK    8  A    between atoms: N_22  and  C_23
REMARK    9  A    between atoms: C_26  and  C_27
REMARK                            x       y       z     vdW  Elec       q    Type
REMARK                         _______ _______ _______ _____ _____    ______ ____
ROOT
ATOM      1  N   UNL     1       2.363   6.951  18.859  0.00  0.00    +0.000 N 
ATOM      2  C   UNL     1       2.828   8.056  17.982  0.00  0.00    +0.000 C 
ATOM      3  C   UNL     1       1.719   9.097  17.828  0.00  0.00    +0.000 C 
ATOM      4  N   UNL     1       1.385   9.650  19.139  0.00  0.00    +0.000 N 
ATOM      5  C   UNL     1       1.503  10.985  19.483  0.00  0.00    +0.000 C 
ATOM      6  O   UNL     1       1.266  11.378  20.629  0.00  0.00    +0.000 OA
ATOM      7  C   UNL     1       0.997   8.629  20.131  0.00  0.00    +0.000 C 
ATOM      8  C   UNL     1       2.018   7.454  20.220  0.00  0.00    +0.000 C 
ENDROOT
BRANCH   1  14
ATOM      9  C   UNL     1       3.089   2.079  17.766  0.00  0.00    +0.000 C 
ATOM     10  C   UNL     1       3.554   3.415  18.286  0.00  0.00    +0.000 A 
ATOM     11  C   UNL     1       4.870   3.514  18.754  0.00  0.00    +0.000 A 
ATOM     12  C   UNL     1       5.347   4.717  19.243  0.00  0.00    +0.000 A 
ATOM     13  C   UNL     1       4.505   5.825  19.291  0.00  0.00    +0.000 A 
ATOM     14  C   UNL     1       3.169   5.786  18.836  0.00  0.00    +0.000 A 
ATOM     15  C   UNL     1       2.700   4.557  18.300  0.00  0.00    +0.000 A 
ATOM     16  C   UNL     1       1.325   4.418  17.689  0.00  0.00    +0.000 C 
ENDBRANCH   1  14
BRANCH   5  17
ATOM     17  C   UNL     1       1.924  11.995  18.410  0.00  0.00    +0.000 C 
BRANCH  17  18
ATOM     18  C   UNL     1       1.501  13.437  18.663  0.00  0.00    +0.000 A 
ATOM     19  C   UNL     1       0.202  13.985  18.662  0.00  0.00    +0.000 A 
ATOM     20  C   UNL     1       0.343  15.417  18.748  0.00  0.00    +0.000 A 
ATOM     21  C   UNL     1      -0.674  16.508  18.779  0.00  0.00    +0.000 C 
ATOM     22  C   UNL     1       1.694  15.665  18.857  0.00  0.00    +0.000 A 
ATOM     23  N   UNL     1       2.381  14.484  18.845  0.00  0.00    +0.000 N 
ATOM     24  C   UNL     1       3.818  14.432  19.010  0.00  0.00    +0.000 C 
BRANCH  19  25
ATOM     25  C   UNL     1      -1.031  13.179  18.592  0.00  0.00    +0.000 C 
ATOM     26  O   UNL     1      -1.738  12.956  19.559  0.00  0.00    +0.000 OA
BRANCH  25  27
ATOM     27  O   UNL     1      -1.326  12.678  17.371  0.00  0.00    +0.000 OA
ATOM     28  H   UNL     1      -1.921  13.265  16.875  0.00  0.00    +0.000 HD
ENDBRANCH  25  27
ENDBRANCH  19  25
ENDBRANCH  17  18
ENDBRANCH   5  17
TORSDOF 5
ENDMDL
MODEL 2
REMARK VINA RESULT:      -7.2      3.387      8.906
REMARK  Name = 
REMARK  9 active torsions:
REMARK  status: ('A' for Active; 'I' for Inactive)
REMARK    1  A    between atoms: C_1  and  C_2
REMARK    2  A    between atoms: C_6  and  N_7
REMARK    3  A    between atoms: C_11  and  C_13
REMARK    4  A    between atoms: C_13  and  C_14
REMARK    5  A    between atoms: C_15  and  C_16
REMARK    6  A    between atoms: C_16  and  O_18
REMARK    7  A    between atoms: C_19  and  C_20
REMARK    8  A    between atoms: N_22  and  C_23
REMARK    9  A    between atoms: C_26  and  C_27
REMARK                            x       y       z     vdW  Elec       q    Type
REMARK                         _______ _______ _______ _____ _____    ______ ____
ROOT
ATOM      1  N   UNL     1      -0.713  10.408  19.020  0.00  0.00    +0.000 N 
ATOM      2  C   UNL     1      -0.114   9.751  17.830  0.00  0.00    +0.000 C 
ATOM      3  C   UNL     1       1.395   9.600  18.027  0.00  0.00    +0.000 C 
ATOM      4  N   UNL     1       1.651   8.765  19.199  0.00  0.00    +0.000 N 
ATOM      5  C   UNL     1       2.332   7.561  19.174  0.00  0.00    +0.000 C 
ATOM      6  O   UNL     1       2.459   6.872  20.192  0.00  0.00    +0.000 OA
ATOM      7  C   UNL     1       1.020   9.269  20.434  0.00  0.00    +0.000 C 
ATOM      8  C   UNL     1      -0.493   9.595  20.250  0.00  0.00    +0.000 C 
ENDROOT
BRANCH   1  14
ATOM      9  C   UNL     1      -4.565  13.401  20.312  0.00  0.00    +0.000 C 
ATOM     10  C   UNL     1      -3.920  12.354  19.439  0.00  0.00    +0.000 A 
ATOM     11  C   UNL     1      -4.669  11.837  18.375  0.00  0.00    +0.000 A 
ATOM     12  C   UNL     1      -4.125  10.873  17.543  0.00  0.00    +0.000 A 
ATOM     13  C   UNL     1      -2.838  10.401  17.785  0.00  0.00    +0.000 A 
ATOM     14  C   UNL     1      -2.036  10.883  18.842  0.00  0.00    +0.000 A 
ATOM     15  C   UNL     1      -2.588  11.900  19.666  0.00  0.00    +0.000 A 
ATOM     16  C   UNL     1      -1.793  12.565  20.764  0.00  0.00    +0.000 C 
ENDBRANCH   1  14
BRANCH   5  17
ATOM     17  C   UNL     1       2.953   7.085  17.857  0.00  0.00    +0.000 C 
BRANCH  17  18
ATOM     18  C   UNL     1       3.617   5.713  17.901  0.00  0.00    +0.000 A 
ATOM     19  C   UNL     1       3.022   4.458  18.143  0.00  0.00    +0.000 A 
ATOM     20  C   UNL     1       4.091   3.501  18.284  0.00  0.00    +0.000 A 
ATOM     21  C   UNL     1       4.071   2.034  18.554  0.00  0.00    +0.000 C 
ATOM     22  C   UNL     1       5.261   4.194  18.066  0.00  0.00    +0.000 A 
ATOM     23  N   UNL     1       4.976   5.504  17.800  0.00  0.00    +0.000 N 
ATOM     24  C   UNL     1       6.010   6.461  17.465  0.00  0.00    +0.000 C 
BRANCH  19  25
ATOM     25  C   UNL     1       1.566   4.236  18.216  0.00  0.00    +0.000 C 
ATOM     26  O   UNL     1       0.857   4.130  17.231  0.00  0.00    +0.000 OA
BRANCH  25  27
ATOM     27  O   UNL     1       1.052   4.176  19.465  0.00  0.00    +0.000 OA
ATOM     28  H   UNL     1       0.103   4.388  19.474  0.00  0.00    +0.000 HD
ENDBRANCH  25  27
ENDBRANCH  19  25
ENDBRANCH  17  18
ENDBRANCH   5  17
TORSDOF 5
ENDMDL
MODEL 3
REMARK VINA RESULT:      -7.0      2.676      3.324
REMARK  Name = 
REMARK  9 active torsions:
REMARK  status: ('A' for Active; 'I' for Inactive)
REMARK    1  A    between atoms: C_1  and  C_2
REMARK    2  A    between atoms: C_6  and  N_7
REMARK    3  A    between atoms: C_11  and  C_13
REMARK    4  A    between atoms: C_13  and  C_14
REMARK    5  A    between atoms: C_15  and  C_16
REMARK    6  A    between atoms: C_16  and  O_18
REMARK    7  A    between atoms: C_19  and  C_20
REMARK    8  A    between atoms: N_22  and  C_23
REMARK    9  A    between atoms: C_26  and  C_27
REMARK                            x       y       z     vdW  Elec       q    Type
REMARK                         _______ _______ _______ _____ _____    ______ ____
ROOT
ATOM      1  N   UNL     1       2.127   7.398  18.677  0.00  0.00    +0.000 N 
ATOM      2  C   UNL     1       1.883   8.757  18.129  0.00  0.00    +0.000 C 
ATOM      3  C   UNL     1       0.599   9.333  18.728  0.00  0.00    +0.000 C 
ATOM      4  N   UNL     1       0.741   9.434  20.180  0.00  0.00    +0.000 N 
ATOM      5  C   UNL     1       0.668  10.613  20.898  0.00  0.00    +0.000 C 
ATOM      6  O   UNL     1       0.861  10.638  22.118  0.00  0.00    +0.000 OA
ATOM      7  C   UNL     1       1.082   8.154  20.830  0.00  0.00    +0.000 C 
ATOM      8  C   UNL     1       2.292   7.437  20.159  0.00  0.00    +0.000 C 
ENDROOT
BRANCH   1  14
ATOM      9  C   UNL     1       4.000   2.996  17.071  0.00  0.00    +0.000 C 
ATOM     10  C   UNL     1       4.018   4.501  17.167  0.00  0.00    +0.000 A 
ATOM     11  C   UNL     1       5.048   5.187  16.512  0.00  0.00    +0.000 A 
ATOM     12  C   UNL     1       5.111   6.568  16.569  0.00  0.00    +0.000 A 
ATOM     13  C   UNL     1       4.160   7.273  17.302  0.00  0.00    +0.000 A 
ATOM     14  C   UNL     1       3.101   6.637  17.984  0.00  0.00    +0.000 A 
ATOM     15  C   UNL     1       3.021   5.222  17.887  0.00  0.00    +0.000 A 
ATOM     16  C   UNL     1       1.878   4.437  18.488  0.00  0.00    +0.000 C 
ENDBRANCH   1  14
BRANCH   5  17
ATOM     17  C   UNL     1       0.323  11.912  20.161  0.00  0.00    +0.000 C 
BRANCH  17  18
ATOM     18  C   UNL     1      -1.140  12.335  20.223  0.00  0.00    +0.000 A 
ATOM     19  C   UNL     1      -1.865  12.832  21.326  0.00  0.00    +0.000 A 
ATOM     20  C   UNL     1      -3.251  12.888  20.934  0.00  0.00    +0.000 A 
ATOM     21  C   UNL     1      -4.469  13.321  21.680  0.00  0.00    +0.000 C 
ATOM     22  C   UNL     1      -3.297  12.487  19.618  0.00  0.00    +0.000 A 
ATOM     23  N   UNL     1      -2.035  12.194  19.182  0.00  0.00    +0.000 N 
ATOM     24  C   UNL     1      -1.766  11.806  17.813  0.00  0.00    +0.000 C 
BRANCH  19  25
ATOM     25  C   UNL     1      -1.250  13.214  22.611  0.00  0.00    +0.000 C 
ATOM     26  O   UNL     1      -0.847  14.339  22.849  0.00  0.00    +0.000 OA
BRANCH  25  27
ATOM     27  O   UNL     1      -1.140  12.217  23.518  0.00  0.00    +0.000 OA
ATOM     28  H   UNL     1      -0.638  11.463  23.165  0.00  0.00    +0.000 HD
ENDBRANCH  25  27
ENDBRANCH  19  25
ENDBRANCH  17  18
ENDBRANCH   5  17
TORSDOF 5
ENDMDL
MODEL 4
REMARK VINA RESULT:      -7.0      2.553      3.066
REMARK  Name = 
REMARK  9 active torsions:
REMARK  status: ('A' for Active; 'I' for Inactive)
REMARK    1  A    between atoms: C_1  and  C_2
REMARK    2  A    between atoms: C_6  and  N_7
REMARK    3  A    between atoms: C_11  and  C_13
REMARK    4  A    between atoms: C_13  and  C_14
REMARK    5  A    between atoms: C_15  and  C_16
REMARK    6  A    between atoms: C_16  and  O_18
REMARK    7  A    between atoms: C_19  and  C_20
REMARK    8  A    between atoms: N_22  and  C_23
REMARK    9  A    between atoms: C_26  and  C_27
REMARK                            x       y       z     vdW  Elec       q    Type
REMARK                         _______ _______ _______ _____ _____    ______ ____
ROOT
ATOM      1  N   UNL     1       2.070   7.406  18.795  0.00  0.00    +0.000 N 
ATOM      2  C   UNL     1       1.795   8.783  18.308  0.00  0.00    +0.000 C 
ATOM      3  C   UNL     1       0.497   9.302  18.927  0.00  0.00    +0.000 C 
ATOM      4  N   UNL     1       0.632   9.340  20.382  0.00  0.00    +0.000 N 
ATOM      5  C   UNL     1       0.528  10.484  21.152  0.00  0.00    +0.000 C 
ATOM      6  O   UNL     1       0.717  10.458  22.373  0.00  0.00    +0.000 OA
ATOM      7  C   UNL     1       1.000   8.040  20.976  0.00  0.00    +0.000 C 
ATOM      8  C   UNL     1       2.229   7.383  20.277  0.00  0.00    +0.000 C 
ENDROOT
BRANCH   1  14
ATOM      9  C   UNL     1       4.069   3.123  17.031  0.00  0.00    +0.000 C 
ATOM     10  C   UNL     1       4.042   4.623  17.179  0.00  0.00    +0.000 A 
ATOM     11  C   UNL     1       5.047   5.363  16.544  0.00  0.00    +0.000 A 
ATOM     12  C   UNL     1       5.068   6.743  16.648  0.00  0.00    +0.000 A 
ATOM     13  C   UNL     1       4.099   7.392  17.409  0.00  0.00    +0.000 A 
ATOM     14  C   UNL     1       3.063   6.700  18.073  0.00  0.00    +0.000 A 
ATOM     15  C   UNL     1       3.026   5.288  17.927  0.00  0.00    +0.000 A 
ATOM     16  C   UNL     1       1.911   4.448  18.505  0.00  0.00    +0.000 C 
ENDBRANCH   1  14
BRANCH   5  17
ATOM     17  C   UNL     1       0.156  11.806  20.473  0.00  0.00    +0.000 C 
BRANCH  17  18
ATOM     18  C   UNL     1      -1.293  12.249  20.647  0.00  0.00    +0.000 A 
ATOM     19  C   UNL     1      -2.339  12.218  19.702  0.00  0.00    +0.000 A 
ATOM     20  C   UNL     1      -3.453  12.929  20.278  0.00  0.00    +0.000 A 
ATOM     21  C   UNL     1      -4.815  13.225  19.745  0.00  0.00    +0.000 C 
ATOM     22  C   UNL     1      -3.061  13.301  21.545  0.00  0.00    +0.000 A 
ATOM     23  N   UNL     1      -1.787  12.862  21.779  0.00  0.00    +0.000 N 
ATOM     24  C   UNL     1      -1.134  13.051  23.057  0.00  0.00    +0.000 C 
BRANCH  19  25
ATOM     25  C   UNL     1      -2.245  11.553  18.390  0.00  0.00    +0.000 C 
ATOM     26  O   UNL     1      -2.680  10.435  18.175  0.00  0.00    +0.000 OA
BRANCH  25  27
ATOM     27  O   UNL     1      -1.617  12.263  17.426  0.00  0.00    +0.000 OA
ATOM     28  H   UNL     1      -2.218  12.892  16.991  0.00  0.00    +0.000 HD
ENDBRANCH  25  27
ENDBRANCH  19  25
ENDBRANCH  17  18
ENDBRANCH   5  17
TORSDOF 5
ENDMDL
MODEL 5
REMARK VINA RESULT:      -7.0      1.531      2.287
REMARK  Name = 
REMARK  9 active torsions:
REMARK  status: ('A' for Active; 'I' for Inactive)
REMARK    1  A    between atoms: C_1  and  C_2
REMARK    2  A    between atoms: C_6  and  N_7
REMARK    3  A    between atoms: C_11  and  C_13
REMARK    4  A    between atoms: C_13  and  C_14
REMARK    5  A    between atoms: C_15  and  C_16
REMARK    6  A    between atoms: C_16  and  O_18
REMARK    7  A    between atoms: C_19  and  C_20
REMARK    8  A    between atoms: N_22  and  C_23
REMARK    9  A    between atoms: C_26  and  C_27
REMARK                            x       y       z     vdW  Elec       q    Type
REMARK                         _______ _______ _______ _____ _____    ______ ____
ROOT
ATOM      1  N   UNL     1       2.362   6.944  18.847  0.00  0.00    +0.000 N 
ATOM      2  C   UNL     1       2.821   8.035  17.949  0.00  0.00    +0.000 C 
ATOM      3  C   UNL     1       1.712   9.077  17.793  0.00  0.00    +0.000 C 
ATOM      4  N   UNL     1       1.396   9.650  19.100  0.00  0.00    +0.000 N 
ATOM      5  C   UNL     1       1.522  10.989  19.424  0.00  0.00    +0.000 C 
ATOM      6  O   UNL     1       1.299  11.399  20.568  0.00  0.00    +0.000 OA
ATOM      7  C   UNL     1       1.017   8.645  20.111  0.00  0.00    +0.000 C 
ATOM      8  C   UNL     1       2.034   7.467  20.204  0.00  0.00    +0.000 C 
ENDROOT
BRANCH   1  14
ATOM      9  C   UNL     1       3.060   2.054  17.816  0.00  0.00    +0.000 C 
ATOM     10  C   UNL     1       3.535   3.396  18.312  0.00  0.00    +0.000 A 
ATOM     11  C   UNL     1       4.857   3.498  18.762  0.00  0.00    +0.000 A 
ATOM     12  C   UNL     1       5.344   4.706  19.228  0.00  0.00    +0.000 A 
ATOM     13  C   UNL     1       4.505   5.818  19.270  0.00  0.00    +0.000 A 
ATOM     14  C   UNL     1       3.164   5.776  18.832  0.00  0.00    +0.000 A 
ATOM     15  C   UNL     1       2.686   4.541  18.319  0.00  0.00    +0.000 A 
ATOM     16  C   UNL     1       1.303   4.398  17.727  0.00  0.00    +0.000 C 
ENDBRANCH   1  14
BRANCH   5  17
ATOM     17  C   UNL     1       1.933  11.982  18.332  0.00  0.00    +0.000 C 
BRANCH  17  18
ATOM     18  C   UNL     1       1.352  13.385  18.467  0.00  0.00    +0.000 A 
ATOM     19  C   UNL     1       2.034  14.601  18.678  0.00  0.00    +0.000 A 
ATOM     20  C   UNL     1       1.037  15.608  18.940  0.00  0.00    +0.000 A 
ATOM     21  C   UNL     1       1.161  17.065  19.237  0.00  0.00    +0.000 C 
ATOM     22  C   UNL     1      -0.185  14.983  18.819  0.00  0.00    +0.000 A 
ATOM     23  N   UNL     1       0.002  13.667  18.500  0.00  0.00    +0.000 N 
ATOM     24  C   UNL     1      -1.109  12.775  18.245  0.00  0.00    +0.000 C 
BRANCH  19  25
ATOM     25  C   UNL     1       3.500  14.745  18.616  0.00  0.00    +0.000 C 
ATOM     26  O   UNL     1       4.202  14.852  19.607  0.00  0.00    +0.000 OA
BRANCH  25  27
ATOM     27  O   UNL     1       4.027  14.771  17.372  0.00  0.00    +0.000 OA
ATOM     28  H   UNL     1       3.927  13.915  16.920  0.00  0.00    +0.000 HD
ENDBRANCH  25  27
ENDBRANCH  19  25
ENDBRANCH  17  18
ENDBRANCH   5  17
TORSDOF 5
ENDMDL
MODEL 6
REMARK VINA RESULT:      -6.9      1.340      1.401
REMARK  Name = 
REMARK  9 active torsions:
REMARK  status: ('A' for Active; 'I' for Inactive)
REMARK    1  A    between atoms: C_1  and  C_2
REMARK    2  A    between atoms: C_6  and  N_7
REMARK    3  A    between atoms: C_11  and  C_13
REMARK    4  A    between atoms: C_13  and  C_14
REMARK    5  A    between atoms: C_15  and  C_16
REMARK    6  A    between atoms: C_16  and  O_18
REMARK    7  A    between atoms: C_19  and  C_20
REMARK    8  A    between atoms: N_22  and  C_23
REMARK    9  A    between atoms: C_26  and  C_27
REMARK                            x       y       z     vdW  Elec       q    Type
REMARK                         _______ _______ _______ _____ _____    ______ ____
ROOT
ATOM      1  N   UNL     1       2.218   7.292  18.486  0.00  0.00    +0.000 N 
ATOM      2  C   UNL     1       2.256   8.568  17.724  0.00  0.00    +0.000 C 
ATOM      3  C   UNL     1       1.032   9.415  18.072  0.00  0.00    +0.000 C 
ATOM      4  N   UNL     1       1.044   9.724  19.501  0.00  0.00    +0.000 N 
ATOM      5  C   UNL     1       1.094  11.001  20.028  0.00  0.00    +0.000 C 
ATOM      6  O   UNL     1       1.167  11.193  21.247  0.00  0.00    +0.000 OA
ATOM      7  C   UNL     1       1.104   8.530  20.364  0.00  0.00    +0.000 C 
ATOM      8  C   UNL     1       2.240   7.544  19.956  0.00  0.00    +0.000 C 
ENDROOT
BRANCH   1  14
ATOM      9  C   UNL     1       3.462   2.466  17.702  0.00  0.00    +0.000 C 
ATOM     10  C   UNL     1       3.734   3.946  17.618  0.00  0.00    +0.000 A 
ATOM     11  C   UNL     1       4.939   4.359  17.036  0.00  0.00    +0.000 A 
ATOM     12  C   UNL     1       5.237   5.706  16.934  0.00  0.00    +0.000 A 
ATOM     13  C   UNL     1       4.345   6.651  17.435  0.00  0.00    +0.000 A 
ATOM     14  C   UNL     1       3.117   6.295  18.034  0.00  0.00    +0.000 A 
ATOM     15  C   UNL     1       2.801   4.912  18.098  0.00  0.00    +0.000 A 
ATOM     16  C   UNL     1       1.475   4.413  18.622  0.00  0.00    +0.000 C 
ENDBRANCH   1  14
BRANCH   5  17
ATOM     17  C   UNL     1       1.042  12.202  19.077  0.00  0.00    +0.000 C 
BRANCH  17  18
ATOM     18  C   UNL     1       0.470  13.485  19.669  0.00  0.00    +0.000 A 
ATOM     19  C   UNL     1      -0.876  13.799  19.949  0.00  0.00    +0.000 A 
ATOM     20  C   UNL     1      -0.923  15.196  20.301  0.00  0.00    +0.000 A 
ATOM     21  C   UNL     1      -2.063  16.078  20.685  0.00  0.00    +0.000 C 
ATOM     22  C   UNL     1       0.380  15.644  20.279  0.00  0.00    +0.000 A 
ATOM     23  N   UNL     1       1.213  14.615  19.939  0.00  0.00    +0.000 N 
ATOM     24  C   UNL     1       2.652  14.775  19.900  0.00  0.00    +0.000 C 
BRANCH  19  25
ATOM     25  C   UNL     1      -1.980  12.824  19.881  0.00  0.00    +0.000 C 
ATOM     26  O   UNL     1      -2.419  12.245  20.859  0.00  0.00    +0.000 OA
BRANCH  25  27
ATOM     27  O   UNL     1      -2.472  12.593  18.644  0.00  0.00    +0.000 OA
ATOM     28  H   UNL     1      -1.900  11.994  18.134  0.00  0.00    +0.000 HD
ENDBRANCH  25  27
ENDBRANCH  19  25
ENDBRANCH  17  18
ENDBRANCH   5  17
TORSDOF 5
ENDMDL
MODEL 7
REMARK VINA RESULT:      -6.8      2.123      2.713
REMARK  Name = 
REMARK  9 active torsions:
REMARK  status: ('A' for Active; 'I' for Inactive)
REMARK    1  A    between atoms: C_1  and  C_2
REMARK    2  A    between atoms: C_6  and  N_7
REMARK    3  A    between atoms: C_11  and  C_13
REMARK    4  A    between atoms: C_13  and  C_14
REMARK    5  A    between atoms: C_15  and  C_16
REMARK    6  A    between atoms: C_16  and  O_18
REMARK    7  A    between atoms: C_19  and  C_20
REMARK    8  A    between atoms: N_22  and  C_23
REMARK    9  A    between atoms: C_26  and  C_27
REMARK                            x       y       z     vdW  Elec       q    Type
REMARK                         _______ _______ _______ _____ _____    ______ ____
ROOT
ATOM      1  N   UNL     1       2.214   7.203  18.542  0.00  0.00    +0.000 N 
ATOM      2  C   UNL     1       2.232   8.533  17.880  0.00  0.00    +0.000 C 
ATOM      3  C   UNL     1       1.006   9.341  18.308  0.00  0.00    +0.000 C 
ATOM      4  N   UNL     1       1.036   9.539  19.757  0.00  0.00    +0.000 N 
ATOM      5  C   UNL     1       1.084  10.772  20.381  0.00  0.00    +0.000 C 
ATOM      6  O   UNL     1       1.172  10.870  21.609  0.00  0.00    +0.000 OA
ATOM      7  C   UNL     1       1.116   8.282  20.524  0.00  0.00    +0.000 C 
ATOM      8  C   UNL     1       2.254   7.341  20.026  0.00  0.00    +0.000 C 
ENDROOT
BRANCH   1  14
ATOM      9  C   UNL     1       3.527   2.451  17.465  0.00  0.00    +0.000 C 
ATOM     10  C   UNL     1       3.762   3.940  17.443  0.00  0.00    +0.000 A 
ATOM     11  C   UNL     1       4.932   4.410  16.832  0.00  0.00    +0.000 A 
ATOM     12  C   UNL     1       5.196   5.768  16.785  0.00  0.00    +0.000 A 
ATOM     13  C   UNL     1       4.306   6.665  17.371  0.00  0.00    +0.000 A 
ATOM     14  C   UNL     1       3.114   6.251  18.002  0.00  0.00    +0.000 A 
ATOM     15  C   UNL     1       2.831   4.859  18.011  0.00  0.00    +0.000 A 
ATOM     16  C   UNL     1       1.541   4.303  18.566  0.00  0.00    +0.000 C 
ENDBRANCH   1  14
BRANCH   5  17
ATOM     17  C   UNL     1       1.011  12.042  19.526  0.00  0.00    +0.000 C 
BRANCH  17  18
ATOM     18  C   UNL     1       0.043  13.112  20.019  0.00  0.00    +0.000 A 
ATOM     19  C   UNL     1       0.318  14.251  20.803  0.00  0.00    +0.000 A 
ATOM     20  C   UNL     1      -0.949  14.829  21.173  0.00  0.00    +0.000 A 
ATOM     21  C   UNL     1      -1.283  16.029  21.994  0.00  0.00    +0.000 C 
ATOM     22  C   UNL     1      -1.917  14.064  20.560  0.00  0.00    +0.000 A 
ATOM     23  N   UNL     1      -1.324  13.064  19.841  0.00  0.00    +0.000 N 
ATOM     24  C   UNL     1      -2.094  12.140  19.035  0.00  0.00    +0.000 C 
BRANCH  19  25
ATOM     25  C   UNL     1       1.678  14.713  21.135  0.00  0.00    +0.000 C 
ATOM     26  O   UNL     1       2.179  14.575  22.238  0.00  0.00    +0.000 OA
BRANCH  25  27
ATOM     27  O   UNL     1       2.342  15.328  20.131  0.00  0.00    +0.000 OA
ATOM     28  H   UNL     1       2.689  16.194  20.406  0.00  0.00    +0.000 HD
ENDBRANCH  25  27
ENDBRANCH  19  25
ENDBRANCH  17  18
ENDBRANCH   5  17
TORSDOF 5
ENDMDL
MODEL 8
REMARK VINA RESULT:      -6.8      1.816      2.266
REMARK  Name = 
REMARK  9 active torsions:
REMARK  status: ('A' for Active; 'I' for Inactive)
REMARK    1  A    between atoms: C_1  and  C_2
REMARK    2  A    between atoms: C_6  and  N_7
REMARK    3  A    between atoms: C_11  and  C_13
REMARK    4  A    between atoms: C_13  and  C_14
REMARK    5  A    between atoms: C_15  and  C_16
REMARK    6  A    between atoms: C_16  and  O_18
REMARK    7  A    between atoms: C_19  and  C_20
REMARK    8  A    between atoms: N_22  and  C_23
REMARK    9  A    between atoms: C_26  and  C_27
REMARK                            x       y       z     vdW  Elec       q    Type
REMARK                         _______ _______ _______ _____ _____    ______ ____
ROOT
ATOM      1  N   UNL     1       1.987   7.658  18.599  0.00  0.00    +0.000 N 
ATOM      2  C   UNL     1       1.787   8.963  17.917  0.00  0.00    +0.000 C 
ATOM      3  C   UNL     1       0.499   9.617  18.417  0.00  0.00    +0.000 C 
ATOM      4  N   UNL     1       0.600   9.853  19.856  0.00  0.00    +0.000 N 
ATOM      5  C   UNL     1       0.530  11.097  20.456  0.00  0.00    +0.000 C 
ATOM      6  O   UNL     1       0.687  11.236  21.673  0.00  0.00    +0.000 OA
ATOM      7  C   UNL     1       0.894   8.636  20.636  0.00  0.00    +0.000 C 
ATOM      8  C   UNL     1       2.108   7.836  20.074  0.00  0.00    +0.000 C 
ENDROOT
BRANCH   1  14
ATOM      9  C   UNL     1       3.784   3.090  17.430  0.00  0.00    +0.000 C 
ATOM     10  C   UNL     1       3.846   4.597  17.409  0.00  0.00    +0.000 A 
ATOM     11  C   UNL     1       4.925   5.199  16.748  0.00  0.00    +0.000 A 
ATOM     12  C   UNL     1       5.030   6.577  16.699  0.00  0.00    +0.000 A 
ATOM     13  C   UNL     1       4.071   7.365  17.331  0.00  0.00    +0.000 A 
ATOM     14  C   UNL     1       2.964   6.816  18.013  0.00  0.00    +0.000 A 
ATOM     15  C   UNL     1       2.843   5.401  18.024  0.00  0.00    +0.000 A 
ATOM     16  C   UNL     1       1.651   4.700  18.632  0.00  0.00    +0.000 C 
ENDBRANCH   1  14
BRANCH   5  17
ATOM     17  C   UNL     1       0.235  12.326  19.588  0.00  0.00    +0.000 C 
BRANCH  17  18
ATOM     18  C   UNL     1       1.266  13.446  19.662  0.00  0.00    +0.000 A 
ATOM     19  C   UNL     1       1.244  14.608  20.460  0.00  0.00    +0.000 A 
ATOM     20  C   UNL     1       2.331  15.447  20.020  0.00  0.00    +0.000 A 
ATOM     21  C   UNL     1       2.792  16.788  20.485  0.00  0.00    +0.000 C 
ATOM     22  C   UNL     1       2.988  14.743  19.036  0.00  0.00    +0.000 A 
ATOM     23  N   UNL     1       2.377  13.535  18.849  0.00  0.00    +0.000 N 
ATOM     24  C   UNL     1       2.890  12.551  17.918  0.00  0.00    +0.000 C 
BRANCH  19  25
ATOM     25  C   UNL     1       0.265  14.851  21.535  0.00  0.00    +0.000 C 
ATOM     26  O   UNL     1      -0.628  15.676  21.451  0.00  0.00    +0.000 OA
BRANCH  25  27
ATOM     27  O   UNL     1       0.432  14.103  22.649  0.00  0.00    +0.000 OA
ATOM     28  H   UNL     1      -0.358  13.571  22.847  0.00  0.00    +0.000 HD
ENDBRANCH  25  27
ENDBRANCH  19  25
ENDBRANCH  17  18
ENDBRANCH   5  17
TORSDOF 5
ENDMDL
MODEL 9
REMARK VINA RESULT:      -6.8      3.499      9.048
REMARK  Name = 
REMARK  9 active torsions:
REMARK  status: ('A' for Active; 'I' for Inactive)
REMARK    1  A    between atoms: C_1  and  C_2
REMARK    2  A    between atoms: C_6  and  N_7
REMARK    3  A    between atoms: C_11  and  C_13
REMARK    4  A    between atoms: C_13  and  C_14
REMARK    5  A    between atoms: C_15  and  C_16
REMARK    6  A    between atoms: C_16  and  O_18
REMARK    7  A    between atoms: C_19  and  C_20
REMARK    8  A    between atoms: N_22  and  C_23
REMARK    9  A    between atoms: C_26  and  C_27
REMARK                            x       y       z     vdW  Elec       q    Type
REMARK                         _______ _______ _______ _____ _____    ______ ____
ROOT
ATOM      1  N   UNL     1      -0.218  10.400  19.825  0.00  0.00    +0.000 N 
ATOM      2  C   UNL     1       0.309   9.836  18.556  0.00  0.00    +0.000 C 
ATOM      3  C   UNL     1       1.754   9.378  18.754  0.00  0.00    +0.000 C 
ATOM      4  N   UNL     1       1.800   8.339  19.781  0.00  0.00    +0.000 N 
ATOM      5  C   UNL     1       2.253   7.049  19.575  0.00  0.00    +0.000 C 
ATOM      6  O   UNL     1       2.205   6.198  20.470  0.00  0.00    +0.000 OA
ATOM      7  C   UNL     1       1.212   8.754  21.069  0.00  0.00    +0.000 C 
ATOM      8  C   UNL     1      -0.207   9.379  20.912  0.00  0.00    +0.000 C 
ENDROOT
BRANCH   1  14
ATOM      9  C   UNL     1      -3.411  13.984  21.381  0.00  0.00    +0.000 C 
ATOM     10  C   UNL     1      -2.985  12.896  20.429  0.00  0.00    +0.000 A 
ATOM     11  C   UNL     1      -3.823  12.610  19.343  0.00  0.00    +0.000 A 
ATOM     12  C   UNL     1      -3.479  11.621  18.439  0.00  0.00    +0.000 A 
ATOM     13  C   UNL     1      -2.307  10.892  18.627  0.00  0.00    +0.000 A 
ATOM     14  C   UNL     1      -1.424  11.133  19.702  0.00  0.00    +0.000 A 
ATOM     15  C   UNL     1      -1.766  12.177  20.602  0.00  0.00    +0.000 A 
ATOM     16  C   UNL     1      -0.853  12.597  21.731  0.00  0.00    +0.000 C 
ENDBRANCH   1  14
BRANCH   5  17
ATOM     17  C   UNL     1       2.841   6.676  18.210  0.00  0.00    +0.000 C 
BRANCH  17  18
ATOM     18  C   UNL     1       3.481   5.295  18.125  0.00  0.00    +0.000 A 
ATOM     19  C   UNL     1       2.859   4.032  18.204  0.00  0.00    +0.000 A 
ATOM     20  C   UNL     1       3.907   3.046  18.277  0.00  0.00    +0.000 A 
ATOM     21  C   UNL     1       3.856   1.558  18.381  0.00  0.00    +0.000 C 
ATOM     22  C   UNL     1       5.095   3.736  18.179  0.00  0.00    +0.000 A 
ATOM     23  N   UNL     1       4.840   5.072  18.050  0.00  0.00    +0.000 N 
ATOM     24  C   UNL     1       5.901   6.040  17.861  0.00  0.00    +0.000 C 
BRANCH  19  25
ATOM     25  C   UNL     1       1.399   3.832  18.200  0.00  0.00    +0.000 C 
ATOM     26  O   UNL     1       0.797   3.288  19.109  0.00  0.00    +0.000 OA
BRANCH  25  27
ATOM     27  O   UNL     1       0.757   4.278  17.097  0.00  0.00    +0.000 OA
ATOM     28  H   UNL     1       0.907   3.696  16.332  0.00  0.00    +0.000 HD
ENDBRANCH  25  27
ENDBRANCH  19  25
ENDBRANCH  17  18
ENDBRANCH   5  17
TORSDOF 5
ENDMDL
