MODEL 1
REMARK VINA RESULT:      -7.7      0.000      0.000
REMARK  Name = 
REMARK  8 active torsions:
REMARK  status: ('A' for Active; 'I' for Inactive)
REMARK    1  A    between atoms: N_3  and  C_4
REMARK    2  A    between atoms: C_4  and  C_5
REMARK    3  A    between atoms: N_10  and  C_11
REMARK    4  A    between atoms: C_11  and  C_12
REMARK    5  A    between atoms: N_16  and  C_17
REMARK    6  A    between atoms: C_17  and  C_18
REMARK    7  A    between atoms: C_18  and  C_19
REMARK    8  A    between atoms: C_19  and  C_20
REMARK                            x       y       z     vdW  Elec       q    Type
REMARK                         _______ _______ _______ _____ _____    ______ ____
ROOT
ATOM      1  C   UNL     1       7.799   6.820  17.898  0.00  0.00    +0.000 C 
ENDROOT
BRANCH   1   5
ATOM      2  O   UNL     1       8.904   8.939  19.374  0.00  0.00    +0.000 OA
ATOM      3  C   UNL     1       8.392   9.176  18.281  0.00  0.00    +0.000 C 
ATOM      4  N   UNL     1       8.363  10.420  17.718  0.00  0.00    +0.000 N 
ATOM      5  N   UNL     1       7.822   8.215  17.507  0.00  0.00    +0.000 N 
ATOM      6  H   UNL     1       7.798  10.594  16.904  0.00  0.00    +0.000 HD
ATOM      7  H   UNL     1       7.309   8.468  16.674  0.00  0.00    +0.000 HD
BRANCH   4   8
ATOM      8  C   UNL     1       8.902  11.569  18.418  0.00  0.00    +0.000 C 
BRANCH   8   9
ATOM      9  C   UNL     1      10.176  12.030  17.777  0.00  0.00    +0.000 A 
ATOM     10  C   UNL     1      10.391  13.228  17.053  0.00  0.00    +0.000 A 
ATOM     11  C   UNL     1      11.730  13.223  16.740  0.00  0.00    +0.000 A 
ATOM     12  N   UNL     1      12.231  12.071  17.263  0.00  0.00    +0.000 N 
ATOM     13  N   UNL     1      11.307  11.313  17.883  0.00  0.00    +0.000 NA
ATOM     14  H   UNL     1      13.191  11.741  17.247  0.00  0.00    +0.000 HD
ENDBRANCH   8   9
ENDBRANCH   4   8
ENDBRANCH   1   5
BRANCH   1  15
ATOM     15  C   UNL     1       7.068   6.052  16.846  0.00  0.00    +0.000 A 
ATOM     16  N   UNL     1       7.517   5.886  15.613  0.00  0.00    +0.000 NA
ATOM     17  C   UNL     1       6.551   5.193  14.946  0.00  0.00    +0.000 A 
ATOM     18  C   UNL     1       5.481   4.943  15.762  0.00  0.00    +0.000 A 
ATOM     19  N   UNL     1       5.832   5.454  16.989  0.00  0.00    +0.000 N 
BRANCH  19  20
ATOM     20  C   UNL     1       4.962   5.401  18.149  0.00  0.00    +0.000 C 
BRANCH  20  21
ATOM     21  C   UNL     1       3.984   6.581  18.261  0.00  0.00    +0.000 C 
BRANCH  21  22
ATOM     22  C   UNL     1       2.534   6.244  17.901  0.00  0.00    +0.000 C 
BRANCH  22  23
ATOM     23  C   UNL     1       2.039   5.063  18.708  0.00  0.00    +0.000 A 
ATOM     24  C   UNL     1       1.588   3.894  18.078  0.00  0.00    +0.000 A 
ATOM     25  C   UNL     1       1.097   2.823  18.830  0.00  0.00    +0.000 A 
ATOM     26  C   UNL     1       1.050   2.907  20.220  0.00  0.00    +0.000 A 
ATOM     27  C   UNL     1       1.494   4.062  20.859  0.00  0.00    +0.000 A 
ATOM     28  C   UNL     1       1.982   5.135  20.107  0.00  0.00    +0.000 A 
ENDBRANCH  22  23
ENDBRANCH  21  22
ENDBRANCH  20  21
ENDBRANCH  19  20
ENDBRANCH   1  15
TORSDOF 8
ENDMDL
MODEL 2
REMARK VINA RESULT:      -7.7      3.083      5.922
REMARK  Name = 
REMARK  8 active torsions:
REMARK  status: ('A' for Active; 'I' for Inactive)
REMARK    1  A    between atoms: N_3  and  C_4
REMARK    2  A    between atoms: C_4  and  C_5
REMARK    3  A    between atoms: N_10  and  C_11
REMARK    4  A    between atoms: C_11  and  C_12
REMARK    5  A    between atoms: N_16  and  C_17
REMARK    6  A    between atoms: C_17  and  C_18
REMARK    7  A    between atoms: C_18  and  C_19
REMARK    8  A    between atoms: C_19  and  C_20
REMARK                            x       y       z     vdW  Elec       q    Type
REMARK                         _______ _______ _______ _____ _____    ______ ____
ROOT
ATOM      1  C   UNL     1       3.947   2.074  19.232  0.00  0.00    +0.000 C 
ENDROOT
BRANCH   1   5
ATOM      2  O   UNL     1       4.940   3.476  17.009  0.00  0.00    +0.000 OA
ATOM      3  C   UNL     1       5.455   3.663  18.111  0.00  0.00    +0.000 C 
ATOM      4  N   UNL     1       6.468   4.552  18.328  0.00  0.00    +0.000 N 
ATOM      5  N   UNL     1       5.047   3.018  19.237  0.00  0.00    +0.000 N 
ATOM      6  H   UNL     1       6.960   4.555  19.205  0.00  0.00    +0.000 HD
ATOM      7  H   UNL     1       5.570   3.110  20.096  0.00  0.00    +0.000 HD
BRANCH   4   8
ATOM      8  C   UNL     1       7.045   5.308  17.233  0.00  0.00    +0.000 C 
BRANCH   8   9
ATOM      9  C   UNL     1       7.631   6.595  17.729  0.00  0.00    +0.000 A 
ATOM     10  C   UNL     1       7.520   7.876  17.137  0.00  0.00    +0.000 A 
ATOM     11  C   UNL     1       8.159   8.730  18.005  0.00  0.00    +0.000 A 
ATOM     12  N   UNL     1       8.610   7.953  19.028  0.00  0.00    +0.000 N 
ATOM     13  N   UNL     1       8.322   6.646  18.880  0.00  0.00    +0.000 NA
ATOM     14  H   UNL     1       9.108   8.244  19.862  0.00  0.00    +0.000 HD
ENDBRANCH   8   9
ENDBRANCH   4   8
ENDBRANCH   1   5
BRANCH   1  15
ATOM     15  C   UNL     1       2.830   2.656  20.034  0.00  0.00    +0.000 A 
ATOM     16  N   UNL     1       2.612   2.368  21.307  0.00  0.00    +0.000 NA
ATOM     17  C   UNL     1       1.480   3.039  21.661  0.00  0.00    +0.000 A 
ATOM     18  C   UNL     1       0.974   3.735  20.597  0.00  0.00    +0.000 A 
ATOM     19  N   UNL     1       1.863   3.524  19.570  0.00  0.00    +0.000 N 
BRANCH  19  20
ATOM     20  C   UNL     1       1.692   4.088  18.244  0.00  0.00    +0.000 C 
BRANCH  20  21
ATOM     21  C   UNL     1       2.445   5.408  18.014  0.00  0.00    +0.000 C 
BRANCH  21  22
ATOM     22  C   UNL     1       2.759   6.194  19.292  0.00  0.00    +0.000 C 
BRANCH  22  23
ATOM     23  C   UNL     1       2.143   7.575  19.239  0.00  0.00    +0.000 A 
ATOM     24  C   UNL     1       1.549   8.146  20.375  0.00  0.00    +0.000 A 
ATOM     25  C   UNL     1       0.949   9.406  20.308  0.00  0.00    +0.000 A 
ATOM     26  C   UNL     1       0.932  10.111  19.106  0.00  0.00    +0.000 A 
ATOM     27  C   UNL     1       1.516   9.556  17.970  0.00  0.00    +0.000 A 
ATOM     28  C   UNL     1       2.114   8.293  18.036  0.00  0.00    +0.000 A 
ENDBRANCH  22  23
ENDBRANCH  21  22
ENDBRANCH  20  21
ENDBRANCH  19  20
ENDBRANCH   1  15
TORSDOF 8
ENDMDL
MODEL 3
REMARK VINA RESULT:      -7.6      1.612      2.599
REMARK  Name = 
REMARK  8 active torsions:
REMARK  status: ('A' for Active; 'I' for Inactive)
REMARK    1  A    between atoms: N_3  and  C_4
REMARK    2  A    between atoms: C_4  and  C_5
REMARK    3  A    between atoms: N_10  and  C_11
REMARK    4  A    between atoms: C_11  and  C_12
REMARK    5  A    between atoms: N_16  and  C_17
REMARK    6  A    between atoms: C_17  and  C_18
REMARK    7  A    between atoms: C_18  and  C_19
REMARK    8  A    between atoms: C_19  and  C_20
REMARK                            x       y       z     vdW  Elec       q    Type
REMARK                         _______ _______ _______ _____ _____    ______ ____
ROOT
ATOM      1  C   UNL     1       6.548   6.429  16.885  0.00  0.00    +0.000 C 
ENDROOT
BRANCH   1   5
ATOM      2  O   UNL     1       8.414   7.458  18.715  0.00  0.00    +0.000 OA
ATOM      3  C   UNL     1       7.892   8.221  17.903  0.00  0.00    +0.000 C 
ATOM      4  N   UNL     1       8.199   9.548  17.812  0.00  0.00    +0.000 N 
ATOM      5  N   UNL     1       6.970   7.811  16.991  0.00  0.00    +0.000 N 
ATOM      6  H   UNL     1       7.636  10.160  17.245  0.00  0.00    +0.000 HD
ATOM      7  H   UNL     1       6.480   8.487  16.423  0.00  0.00    +0.000 HD
BRANCH   4   8
ATOM      8  C   UNL     1       9.144  10.160  18.726  0.00  0.00    +0.000 C 
BRANCH   8   9
ATOM      9  C   UNL     1       9.701  11.424  18.143  0.00  0.00    +0.000 A 
ATOM     10  C   UNL     1      11.056  11.711  17.848  0.00  0.00    +0.000 A 
ATOM     11  C   UNL     1      11.040  12.956  17.264  0.00  0.00    +0.000 A 
ATOM     12  N   UNL     1       9.735  13.342  17.243  0.00  0.00    +0.000 N 
ATOM     13  N   UNL     1       8.897  12.439  17.788  0.00  0.00    +0.000 NA
ATOM     14  H   UNL     1       9.340  14.196  16.864  0.00  0.00    +0.000 HD
ENDBRANCH   8   9
ENDBRANCH   4   8
ENDBRANCH   1   5
BRANCH   1  15
ATOM     15  C   UNL     1       5.110   6.349  17.279  0.00  0.00    +0.000 A 
ATOM     16  N   UNL     1       4.334   7.407  17.446  0.00  0.00    +0.000 NA
ATOM     17  C   UNL     1       3.125   6.932  17.860  0.00  0.00    +0.000 A 
ATOM     18  C   UNL     1       3.152   5.569  17.972  0.00  0.00    +0.000 A 
ATOM     19  N   UNL     1       4.407   5.194  17.557  0.00  0.00    +0.000 N 
BRANCH  19  20
ATOM     20  C   UNL     1       4.855   3.814  17.529  0.00  0.00    +0.000 C 
BRANCH  20  21
ATOM     21  C   UNL     1       3.795   2.814  17.040  0.00  0.00    +0.000 C 
BRANCH  21  22
ATOM     22  C   UNL     1       3.469   1.694  18.033  0.00  0.00    +0.000 C 
BRANCH  22  23
ATOM     23  C   UNL     1       2.713   2.235  19.227  0.00  0.00    +0.000 A 
ATOM     24  C   UNL     1       3.332   2.357  20.480  0.00  0.00    +0.000 A 
ATOM     25  C   UNL     1       2.615   2.822  21.586  0.00  0.00    +0.000 A 
ATOM     26  C   UNL     1       1.272   3.171  21.455  0.00  0.00    +0.000 A 
ATOM     27  C   UNL     1       0.645   3.054  20.217  0.00  0.00    +0.000 A 
ATOM     28  C   UNL     1       1.361   2.585  19.111  0.00  0.00    +0.000 A 
ENDBRANCH  22  23
ENDBRANCH  21  22
ENDBRANCH  20  21
ENDBRANCH  19  20
ENDBRANCH   1  15
TORSDOF 8
ENDMDL
MODEL 4
REMARK VINA RESULT:      -7.6      4.026      6.679
REMARK  Name = 
REMARK  8 active torsions:
REMARK  status: ('A' for Active; 'I' for Inactive)
REMARK    1  A    between atoms: N_3  and  C_4
REMARK    2  A    between atoms: C_4  and  C_5
REMARK    3  A    between atoms: N_10  and  C_11
REMARK    4  A    between atoms: C_11  and  C_12
REMARK    5  A    between atoms: N_16  and  C_17
REMARK    6  A    between atoms: C_17  and  C_18
REMARK    7  A    between atoms: C_18  and  C_19
REMARK    8  A    between atoms: C_19  and  C_20
REMARK                            x       y       z     vdW  Elec       q    Type
REMARK                         _______ _______ _______ _____ _____    ______ ____
ROOT
ATOM      1  C   UNL     1       2.081   3.557  17.741  0.00  0.00    +0.000 C 
ENDROOT
BRANCH   1   5
ATOM      2  O   UNL     1       4.121   5.285  16.877  0.00  0.00    +0.000 OA
ATOM      3  C   UNL     1       4.343   4.075  16.924  0.00  0.00    +0.000 C 
ATOM      4  N   UNL     1       5.551   3.520  16.613  0.00  0.00    +0.000 N 
ATOM      5  N   UNL     1       3.411   3.167  17.316  0.00  0.00    +0.000 N 
ATOM      6  H   UNL     1       5.639   2.523  16.512  0.00  0.00    +0.000 HD
ATOM      7  H   UNL     1       3.594   2.177  17.228  0.00  0.00    +0.000 HD
BRANCH   4   8
ATOM      8  C   UNL     1       6.652   4.340  16.149  0.00  0.00    +0.000 C 
BRANCH   8   9
ATOM      9  C   UNL     1       7.258   5.107  17.286  0.00  0.00    +0.000 A 
ATOM     10  C   UNL     1       7.411   6.510  17.392  0.00  0.00    +0.000 A 
ATOM     11  C   UNL     1       7.945   6.720  18.642  0.00  0.00    +0.000 A 
ATOM     12  N   UNL     1       8.086   5.486  19.199  0.00  0.00    +0.000 N 
ATOM     13  N   UNL     1       7.696   4.481  18.391  0.00  0.00    +0.000 NA
ATOM     14  H   UNL     1       8.429   5.251  20.125  0.00  0.00    +0.000 HD
ENDBRANCH   8   9
ENDBRANCH   4   8
ENDBRANCH   1   5
BRANCH   1  15
ATOM     15  C   UNL     1       2.009   3.425  19.227  0.00  0.00    +0.000 A 
ATOM     16  N   UNL     1       1.490   2.378  19.847  0.00  0.00    +0.000 NA
ATOM     17  C   UNL     1       1.551   2.656  21.181  0.00  0.00    +0.000 A 
ATOM     18  C   UNL     1       2.092   3.895  21.394  0.00  0.00    +0.000 A 
ATOM     19  N   UNL     1       2.426   4.366  20.147  0.00  0.00    +0.000 N 
BRANCH  19  20
ATOM     20  C   UNL     1       3.029   5.667  19.925  0.00  0.00    +0.000 C 
BRANCH  20  21
ATOM     21  C   UNL     1       2.071   6.852  20.125  0.00  0.00    +0.000 C 
BRANCH  21  22
ATOM     22  C   UNL     1       2.194   7.956  19.070  0.00  0.00    +0.000 C 
BRANCH  22  23
ATOM     23  C   UNL     1       1.161   9.038  19.300  0.00  0.00    +0.000 A 
ATOM     24  C   UNL     1       0.740   9.372  20.596  0.00  0.00    +0.000 A 
ATOM     25  C   UNL     1      -0.242  10.346  20.797  0.00  0.00    +0.000 A 
ATOM     26  C   UNL     1      -0.817  10.997  19.707  0.00  0.00    +0.000 A 
ATOM     27  C   UNL     1      -0.410  10.674  18.414  0.00  0.00    +0.000 A 
ATOM     28  C   UNL     1       0.571   9.698  18.213  0.00  0.00    +0.000 A 
ENDBRANCH  22  23
ENDBRANCH  21  22
ENDBRANCH  20  21
ENDBRANCH  19  20
ENDBRANCH   1  15
TORSDOF 8
ENDMDL
MODEL 5
REMARK VINA RESULT:      -7.5      1.727      2.064
REMARK  Name = 
REMARK  8 active torsions:
REMARK  status: ('A' for Active; 'I' for Inactive)
REMARK    1  A    between atoms: N_3  and  C_4
REMARK    2  A    between atoms: C_4  and  C_5
REMARK    3  A    between atoms: N_10  and  C_11
REMARK    4  A    between atoms: C_11  and  C_12
REMARK    5  A    between atoms: N_16  and  C_17
REMARK    6  A    between atoms: C_17  and  C_18
REMARK    7  A    between atoms: C_18  and  C_19
REMARK    8  A    between atoms: C_19  and  C_20
REMARK                            x       y       z     vdW  Elec       q    Type
REMARK                         _______ _______ _______ _____ _____    ______ ____
ROOT
ATOM      1  C   UNL     1       7.079   4.762  17.868  0.00  0.00    +0.000 C 
ENDROOT
BRANCH   1   5
ATOM      2  O   UNL     1       6.287   7.444  17.599  0.00  0.00    +0.000 OA
ATOM      3  C   UNL     1       7.458   7.193  17.880  0.00  0.00    +0.000 C 
ATOM      4  N   UNL     1       8.399   8.154  18.110  0.00  0.00    +0.000 N 
ATOM      5  N   UNL     1       7.931   5.925  18.016  0.00  0.00    +0.000 N 
ATOM      6  H   UNL     1       9.372   7.905  18.178  0.00  0.00    +0.000 HD
ATOM      7  H   UNL     1       8.920   5.759  18.130  0.00  0.00    +0.000 HD
BRANCH   4   8
ATOM      8  C   UNL     1       8.076   9.562  17.981  0.00  0.00    +0.000 C 
BRANCH   8   9
ATOM      9  C   UNL     1       9.112  10.407  18.658  0.00  0.00    +0.000 A 
ATOM     10  C   UNL     1      10.086  11.232  18.044  0.00  0.00    +0.000 A 
ATOM     11  C   UNL     1      10.739  11.851  19.083  0.00  0.00    +0.000 A 
ATOM     12  N   UNL     1      10.156  11.385  20.221  0.00  0.00    +0.000 N 
ATOM     13  N   UNL     1       9.176  10.489  19.997  0.00  0.00    +0.000 NA
ATOM     14  H   UNL     1      10.364  11.639  21.181  0.00  0.00    +0.000 HD
ENDBRANCH   8   9
ENDBRANCH   4   8
ENDBRANCH   1   5
BRANCH   1  15
ATOM     15  C   UNL     1       6.718   4.629  16.425  0.00  0.00    +0.000 A 
ATOM     16  N   UNL     1       7.561   4.861  15.432  0.00  0.00    +0.000 NA
ATOM     17  C   UNL     1       6.850   4.696  14.281  0.00  0.00    +0.000 A 
ATOM     18  C   UNL     1       5.547   4.380  14.556  0.00  0.00    +0.000 A 
ATOM     19  N   UNL     1       5.476   4.294  15.926  0.00  0.00    +0.000 N 
BRANCH  19  20
ATOM     20  C   UNL     1       4.251   3.982  16.638  0.00  0.00    +0.000 C 
BRANCH  20  21
ATOM     21  C   UNL     1       3.663   5.158  17.434  0.00  0.00    +0.000 C 
BRANCH  21  22
ATOM     22  C   UNL     1       2.174   5.021  17.769  0.00  0.00    +0.000 C 
BRANCH  22  23
ATOM     23  C   UNL     1       1.984   4.355  19.114  0.00  0.00    +0.000 A 
ATOM     24  C   UNL     1       1.118   3.261  19.264  0.00  0.00    +0.000 A 
ATOM     25  C   UNL     1       0.919   2.676  20.518  0.00  0.00    +0.000 A 
ATOM     26  C   UNL     1       1.582   3.176  21.637  0.00  0.00    +0.000 A 
ATOM     27  C   UNL     1       2.443   4.263  21.503  0.00  0.00    +0.000 A 
ATOM     28  C   UNL     1       2.640   4.850  20.250  0.00  0.00    +0.000 A 
ENDBRANCH  22  23
ENDBRANCH  21  22
ENDBRANCH  20  21
ENDBRANCH  19  20
ENDBRANCH   1  15
TORSDOF 8
ENDMDL
MODEL 6
REMARK VINA RESULT:      -7.3      4.931      7.147
REMARK  Name = 
REMARK  8 active torsions:
REMARK  status: ('A' for Active; 'I' for Inactive)
REMARK    1  A    between atoms: N_3  and  C_4
REMARK    2  A    between atoms: C_4  and  C_5
REMARK    3  A    between atoms: N_10  and  C_11
REMARK    4  A    between atoms: C_11  and  C_12
REMARK    5  A    between atoms: N_16  and  C_17
REMARK    6  A    between atoms: C_17  and  C_18
REMARK    7  A    between atoms: C_18  and  C_19
REMARK    8  A    between atoms: C_19  and  C_20
REMARK                            x       y       z     vdW  Elec       q    Type
REMARK                         _______ _______ _______ _____ _____    ______ ____
ROOT
ATOM      1  C   UNL     1       2.269   3.751  17.866  0.00  0.00    +0.000 C 
ENDROOT
BRANCH   1   5
ATOM      2  O   UNL     1       4.382   5.463  17.163  0.00  0.00    +0.000 OA
ATOM      3  C   UNL     1       4.570   4.247  17.151  0.00  0.00    +0.000 C 
ATOM      4  N   UNL     1       5.773   3.675  16.850  0.00  0.00    +0.000 N 
ATOM      5  N   UNL     1       3.601   3.345  17.463  0.00  0.00    +0.000 N 
ATOM      6  H   UNL     1       5.837   2.682  16.698  0.00  0.00    +0.000 HD
ATOM      7  H   UNL     1       3.761   2.358  17.327  0.00  0.00    +0.000 HD
BRANCH   4   8
ATOM      8  C   UNL     1       6.911   4.487  16.466  0.00  0.00    +0.000 C 
BRANCH   8   9
ATOM      9  C   UNL     1       7.032   4.557  14.974  0.00  0.00    +0.000 A 
ATOM     10  C   UNL     1       6.263   3.856  14.013  0.00  0.00    +0.000 A 
ATOM     11  C   UNL     1       6.702   4.317  12.795  0.00  0.00    +0.000 A 
ATOM     12  N   UNL     1       7.675   5.228  13.069  0.00  0.00    +0.000 N 
ATOM     13  N   UNL     1       7.913   5.382  14.386  0.00  0.00    +0.000 NA
ATOM     14  H   UNL     1       8.210   5.790  12.415  0.00  0.00    +0.000 HD
ENDBRANCH   8   9
ENDBRANCH   4   8
ENDBRANCH   1   5
BRANCH   1  15
ATOM     15  C   UNL     1       2.116   3.466  19.324  0.00  0.00    +0.000 A 
ATOM     16  N   UNL     1       1.781   2.283  19.811  0.00  0.00    +0.000 NA
ATOM     17  C   UNL     1       1.684   2.440  21.161  0.00  0.00    +0.000 A 
ATOM     18  C   UNL     1       1.939   3.736  21.519  0.00  0.00    +0.000 A 
ATOM     19  N   UNL     1       2.259   4.380  20.348  0.00  0.00    +0.000 N 
BRANCH  19  20
ATOM     20  C   UNL     1       2.594   5.791  20.284  0.00  0.00    +0.000 C 
BRANCH  20  21
ATOM     21  C   UNL     1       1.398   6.735  20.481  0.00  0.00    +0.000 C 
BRANCH  21  22
ATOM     22  C   UNL     1       1.688   8.206  20.165  0.00  0.00    +0.000 C 
BRANCH  22  23
ATOM     23  C   UNL     1       0.789   9.117  20.972  0.00  0.00    +0.000 A 
ATOM     24  C   UNL     1       0.179  10.236  20.386  0.00  0.00    +0.000 A 
ATOM     25  C   UNL     1      -0.619  11.094  21.148  0.00  0.00    +0.000 A 
ATOM     26  C   UNL     1      -0.817  10.846  22.505  0.00  0.00    +0.000 A 
ATOM     27  C   UNL     1      -0.216   9.740  23.101  0.00  0.00    +0.000 A 
ATOM     28  C   UNL     1       0.585   8.884  22.339  0.00  0.00    +0.000 A 
ENDBRANCH  22  23
ENDBRANCH  21  22
ENDBRANCH  20  21
ENDBRANCH  19  20
ENDBRANCH   1  15
TORSDOF 8
ENDMDL
MODEL 7
REMARK VINA RESULT:      -7.3      2.775      9.653
REMARK  Name = 
REMARK  8 active torsions:
REMARK  status: ('A' for Active; 'I' for Inactive)
REMARK    1  A    between atoms: N_3  and  C_4
REMARK    2  A    between atoms: C_4  and  C_5
REMARK    3  A    between atoms: N_10  and  C_11
REMARK    4  A    between atoms: C_11  and  C_12
REMARK    5  A    between atoms: N_16  and  C_17
REMARK    6  A    between atoms: C_17  and  C_18
REMARK    7  A    between atoms: C_18  and  C_19
REMARK    8  A    between atoms: C_19  and  C_20
REMARK                            x       y       z     vdW  Elec       q    Type
REMARK                         _______ _______ _______ _____ _____    ______ ____
ROOT
ATOM      1  C   UNL     1       5.415   6.093  16.596  0.00  0.00    +0.000 C 
ENDROOT
BRANCH   1   5
ATOM      2  O   UNL     1       3.055   5.974  18.115  0.00  0.00    +0.000 OA
ATOM      3  C   UNL     1       3.376   5.001  17.434  0.00  0.00    +0.000 C 
ATOM      4  N   UNL     1       2.623   3.866  17.342  0.00  0.00    +0.000 N 
ATOM      5  N   UNL     1       4.507   4.966  16.680  0.00  0.00    +0.000 N 
ATOM      6  H   UNL     1       3.000   3.042  16.904  0.00  0.00    +0.000 HD
ATOM      7  H   UNL     1       4.794   4.109  16.230  0.00  0.00    +0.000 HD
BRANCH   4   8
ATOM      8  C   UNL     1       1.397   3.719  18.102  0.00  0.00    +0.000 C 
BRANCH   8   9
ATOM      9  C   UNL     1       1.697   3.401  19.535  0.00  0.00    +0.000 A 
ATOM     10  C   UNL     1       2.650   2.478  20.031  0.00  0.00    +0.000 A 
ATOM     11  C   UNL     1       2.598   2.607  21.399  0.00  0.00    +0.000 A 
ATOM     12  N   UNL     1       1.654   3.555  21.648  0.00  0.00    +0.000 N 
ATOM     13  N   UNL     1       1.073   4.044  20.536  0.00  0.00    +0.000 NA
ATOM     14  H   UNL     1       1.362   3.928  22.546  0.00  0.00    +0.000 HD
ENDBRANCH   8   9
ENDBRANCH   4   8
ENDBRANCH   1   5
BRANCH   1  15
ATOM     15  C   UNL     1       6.481   5.910  17.626  0.00  0.00    +0.000 A 
ATOM     16  N   UNL     1       6.649   4.797  18.320  0.00  0.00    +0.000 NA
ATOM     17  C   UNL     1       7.669   5.040  19.191  0.00  0.00    +0.000 A 
ATOM     18  C   UNL     1       8.128   6.322  19.055  0.00  0.00    +0.000 A 
ATOM     19  N   UNL     1       7.397   6.862  18.024  0.00  0.00    +0.000 N 
BRANCH  19  20
ATOM     20  C   UNL     1       7.570   8.226  17.558  0.00  0.00    +0.000 C 
BRANCH  20  21
ATOM     21  C   UNL     1       8.580   9.050  18.372  0.00  0.00    +0.000 C 
BRANCH  21  22
ATOM     22  C   UNL     1       8.606  10.544  18.032  0.00  0.00    +0.000 C 
BRANCH  22  23
ATOM     23  C   UNL     1       9.849  11.201  18.591  0.00  0.00    +0.000 A 
ATOM     24  C   UNL     1      10.007  11.394  19.972  0.00  0.00    +0.000 A 
ATOM     25  C   UNL     1      11.140  12.036  20.477  0.00  0.00    +0.000 A 
ATOM     26  C   UNL     1      12.129  12.497  19.610  0.00  0.00    +0.000 A 
ATOM     27  C   UNL     1      11.985  12.315  18.237  0.00  0.00    +0.000 A 
ATOM     28  C   UNL     1      10.850  11.674  17.731  0.00  0.00    +0.000 A 
ENDBRANCH  22  23
ENDBRANCH  21  22
ENDBRANCH  20  21
ENDBRANCH  19  20
ENDBRANCH   1  15
TORSDOF 8
ENDMDL
MODEL 8
REMARK VINA RESULT:      -7.3      4.586      6.645
REMARK  Name = 
REMARK  8 active torsions:
REMARK  status: ('A' for Active; 'I' for Inactive)
REMARK    1  A    between atoms: N_3  and  C_4
REMARK    2  A    between atoms: C_4  and  C_5
REMARK    3  A    between atoms: N_10  and  C_11
REMARK    4  A    between atoms: C_11  and  C_12
REMARK    5  A    between atoms: N_16  and  C_17
REMARK    6  A    between atoms: C_17  and  C_18
REMARK    7  A    between atoms: C_18  and  C_19
REMARK    8  A    between atoms: C_19  and  C_20
REMARK                            x       y       z     vdW  Elec       q    Type
REMARK                         _______ _______ _______ _____ _____    ______ ____
ROOT
ATOM      1  C   UNL     1       4.237   3.050  20.426  0.00  0.00    +0.000 C 
ENDROOT
BRANCH   1   5
ATOM      2  O   UNL     1       5.520   5.252  19.244  0.00  0.00    +0.000 OA
ATOM      3  C   UNL     1       5.624   4.146  18.715  0.00  0.00    +0.000 C 
ATOM      4  N   UNL     1       6.367   3.915  17.593  0.00  0.00    +0.000 N 
ATOM      5  N   UNL     1       5.025   3.030  19.210  0.00  0.00    +0.000 N 
ATOM      6  H   UNL     1       6.294   3.036  17.109  0.00  0.00    +0.000 HD
ATOM      7  H   UNL     1       5.037   2.168  18.684  0.00  0.00    +0.000 HD
BRANCH   4   8
ATOM      8  C   UNL     1       7.052   4.998  16.916  0.00  0.00    +0.000 C 
BRANCH   8   9
ATOM      9  C   UNL     1       7.025   4.795  15.431  0.00  0.00    +0.000 A 
ATOM     10  C   UNL     1       6.220   3.887  14.701  0.00  0.00    +0.000 A 
ATOM     11  C   UNL     1       6.507   4.135  13.379  0.00  0.00    +0.000 A 
ATOM     12  N   UNL     1       7.434   5.131  13.379  0.00  0.00    +0.000 N 
ATOM     13  N   UNL     1       7.785   5.541  14.613  0.00  0.00    +0.000 NA
ATOM     14  H   UNL     1       7.863   5.588  12.581  0.00  0.00    +0.000 HD
ENDBRANCH   8   9
ENDBRANCH   4   8
ENDBRANCH   1   5
BRANCH   1  15
ATOM     15  C   UNL     1       2.794   3.106  20.045  0.00  0.00    +0.000 A 
ATOM     16  N   UNL     1       2.024   2.037  19.924  0.00  0.00    +0.000 NA
ATOM     17  C   UNL     1       0.807   2.487  19.506  0.00  0.00    +0.000 A 
ATOM     18  C   UNL     1       0.823   3.846  19.344  0.00  0.00    +0.000 A 
ATOM     19  N   UNL     1       2.080   4.245  19.732  0.00  0.00    +0.000 N 
BRANCH  19  20
ATOM     20  C   UNL     1       2.517   5.628  19.706  0.00  0.00    +0.000 C 
BRANCH  20  21
ATOM     21  C   UNL     1       2.377   6.311  18.337  0.00  0.00    +0.000 C 
BRANCH  21  22
ATOM     22  C   UNL     1       2.766   7.793  18.320  0.00  0.00    +0.000 C 
BRANCH  22  23
ATOM     23  C   UNL     1       1.637   8.652  18.846  0.00  0.00    +0.000 A 
ATOM     24  C   UNL     1       0.945   9.534  18.002  0.00  0.00    +0.000 A 
ATOM     25  C   UNL     1      -0.071  10.351  18.504  0.00  0.00    +0.000 A 
ATOM     26  C   UNL     1      -0.409  10.300  19.855  0.00  0.00    +0.000 A 
ATOM     27  C   UNL     1       0.271   9.430  20.705  0.00  0.00    +0.000 A 
ATOM     28  C   UNL     1       1.290   8.614  20.204  0.00  0.00    +0.000 A 
ENDBRANCH  22  23
ENDBRANCH  21  22
ENDBRANCH  20  21
ENDBRANCH  19  20
ENDBRANCH   1  15
TORSDOF 8
ENDMDL
MODEL 9
REMARK VINA RESULT:      -7.2      3.744      6.224
REMARK  Name = 
REMARK  8 active torsions:
REMARK  status: ('A' for Active; 'I' for Inactive)
REMARK    1  A    between atoms: N_3  and  C_4
REMARK    2  A    between atoms: C_4  and  C_5
REMARK    3  A    between atoms: N_10  and  C_11
REMARK    4  A    between atoms: C_11  and  C_12
REMARK    5  A    between atoms: N_16  and  C_17
REMARK    6  A    between atoms: C_17  and  C_18
REMARK    7  A    between atoms: C_18  and  C_19
REMARK    8  A    between atoms: C_19  and  C_20
REMARK                            x       y       z     vdW  Elec       q    Type
REMARK                         _______ _______ _______ _____ _____    ______ ____
ROOT
ATOM      1  C   UNL     1       2.909   2.526  17.786  0.00  0.00    +0.000 C 
ENDROOT
BRANCH   1   5
ATOM      2  O   UNL     1       4.155   4.888  16.916  0.00  0.00    +0.000 OA
ATOM      3  C   UNL     1       4.735   3.814  16.757  0.00  0.00    +0.000 C 
ATOM      4  N   UNL     1       5.981   3.706  16.210  0.00  0.00    +0.000 N 
ATOM      5  N   UNL     1       4.200   2.622  17.135  0.00  0.00    +0.000 N 
ATOM      6  H   UNL     1       6.345   2.803  15.955  0.00  0.00    +0.000 HD
ATOM      7  H   UNL     1       4.654   1.757  16.881  0.00  0.00    +0.000 HD
BRANCH   4   8
ATOM      8  C   UNL     1       6.688   4.875  15.726  0.00  0.00    +0.000 C 
BRANCH   8   9
ATOM      9  C   UNL     1       7.164   5.718  16.871  0.00  0.00    +0.000 A 
ATOM     10  C   UNL     1       7.645   5.273  18.126  0.00  0.00    +0.000 A 
ATOM     11  C   UNL     1       8.024   6.415  18.791  0.00  0.00    +0.000 A 
ATOM     12  N   UNL     1       7.758   7.447  17.943  0.00  0.00    +0.000 N 
ATOM     13  N   UNL     1       7.215   7.057  16.774  0.00  0.00    +0.000 NA
ATOM     14  H   UNL     1       7.929   8.436  18.087  0.00  0.00    +0.000 HD
ENDBRANCH   8   9
ENDBRANCH   4   8
ENDBRANCH   1   5
BRANCH   1  15
ATOM     15  C   UNL     1       3.134   2.476  19.261  0.00  0.00    +0.000 A 
ATOM     16  N   UNL     1       4.036   1.701  19.842  0.00  0.00    +0.000 NA
ATOM     17  C   UNL     1       3.894   1.890  21.184  0.00  0.00    +0.000 A 
ATOM     18  C   UNL     1       2.882   2.773  21.446  0.00  0.00    +0.000 A 
ATOM     19  N   UNL     1       2.427   3.180  20.215  0.00  0.00    +0.000 N 
BRANCH  19  20
ATOM     20  C   UNL     1       1.338   4.124  20.043  0.00  0.00    +0.000 C 
BRANCH  20  21
ATOM     21  C   UNL     1       1.643   5.542  20.550  0.00  0.00    +0.000 C 
BRANCH  21  22
ATOM     22  C   UNL     1       2.585   6.351  19.653  0.00  0.00    +0.000 C 
BRANCH  22  23
ATOM     23  C   UNL     1       2.010   7.720  19.363  0.00  0.00    +0.000 A 
ATOM     24  C   UNL     1       2.202   8.338  18.118  0.00  0.00    +0.000 A 
ATOM     25  C   UNL     1       1.700   9.618  17.873  0.00  0.00    +0.000 A 
ATOM     26  C   UNL     1       0.999  10.299  18.867  0.00  0.00    +0.000 A 
ATOM     27  C   UNL     1       0.802   9.698  20.108  0.00  0.00    +0.000 A 
ATOM     28  C   UNL     1       1.307   8.418  20.355  0.00  0.00    +0.000 A 
ENDBRANCH  22  23
ENDBRANCH  21  22
ENDBRANCH  20  21
ENDBRANCH  19  20
ENDBRANCH   1  15
TORSDOF 8
ENDMDL
