MODEL 1
REMARK VINA RESULT:      -7.0      0.000      0.000
REMARK  Name = 
REMARK  6 active torsions:
REMARK  status: ('A' for Active; 'I' for Inactive)
REMARK    1  A    between atoms: C_1  and  O_2
REMARK    2  A    between atoms: O_2  and  C_3
REMARK    3  A    between atoms: C_5  and  O_6
REMARK    4  A    between atoms: O_6  and  C_7
REMARK    5  A    between atoms: C_16  and  O_17
REMARK    6  A    between atoms: C_22  and  C_23
REMARK                            x       y       z     vdW  Elec       q    Type
REMARK                         _______ _______ _______ _____ _____    ______ ____
ROOT
ATOM      1  C   UNL     1       1.771   3.774  19.919  0.00  0.00    +0.000 A 
ATOM      2  C   UNL     1       1.519   5.152  20.060  0.00  0.00    +0.000 A 
ATOM      3  C   UNL     1       2.295   6.092  19.387  0.00  0.00    +0.000 A 
ATOM      4  C   UNL     1       3.333   5.615  18.587  0.00  0.00    +0.000 A 
ATOM      5  C   UNL     1       3.587   4.257  18.385  0.00  0.00    +0.000 A 
ATOM      6  C   UNL     1       2.810   3.327  19.071  0.00  0.00    +0.000 A 
ATOM      7 CL   UNL     1       3.104   1.634  18.858  0.00  0.00    +0.000 Cl
ATOM      8  O   UNL     1       4.604   3.849  17.515  0.00  0.00    +0.000 OA
ATOM      9  C   UNL     1       5.171   5.335  16.647  0.00  0.00    +0.000 C 
ATOM     10  C   UNL     1       4.249   6.449  17.834  0.00  0.00    +0.000 C 
ATOM     11  O   UNL     1       4.398   7.659  17.799  0.00  0.00    +0.000 OA
ATOM     12  C   UNL     1       5.000   5.305  15.137  0.00  0.00    +0.000 C 
ATOM     13  C   UNL     1       5.581   4.317  14.406  0.00  0.00    +0.000 C 
ATOM     14  C   UNL     1       6.937   4.886  14.196  0.00  0.00    +0.000 C 
ATOM     15  O   UNL     1       7.312   5.384  13.139  0.00  0.00    +0.000 OA
ATOM     16  C   UNL     1       7.805   4.768  15.449  0.00  0.00    +0.000 C 
ATOM     17  C   UNL     1       7.112   5.375  16.744  0.00  0.00    +0.000 C 
ATOM     18  C   UNL     1       7.690   4.752  17.986  0.00  0.00    +0.000 C 
ENDROOT
BRANCH   1  20
ATOM     19  C   UNL     1       1.503   2.500  21.919  0.00  0.00    +0.000 C 
ATOM     20  O   UNL     1       1.068   2.813  20.604  0.00  0.00    +0.000 OA
ENDBRANCH   1  20
BRANCH   3  21
ATOM     21  O   UNL     1       2.106   7.445  19.439  0.00  0.00    +0.000 OA
ATOM     22  C   UNL     1       1.537   8.002  20.617  0.00  0.00    +0.000 C 
ENDBRANCH   3  21
BRANCH  12  23
ATOM     23  O   UNL     1       5.159   5.333  16.547  0.00  0.00    +0.000 OA
ATOM     24  H   UNL     1       4.083   6.218  16.477  0.00  0.00    +0.000 HD
ENDBRANCH  12  23
TORSDOF 3
ENDMDL
MODEL 2
REMARK VINA RESULT:      -5.9      2.020      6.356
REMARK  Name = 
REMARK  6 active torsions:
REMARK  status: ('A' for Active; 'I' for Inactive)
REMARK    1  A    between atoms: C_1  and  O_2
REMARK    2  A    between atoms: O_2  and  C_3
REMARK    3  A    between atoms: C_5  and  O_6
REMARK    4  A    between atoms: O_6  and  C_7
REMARK    5  A    between atoms: C_16  and  O_17
REMARK    6  A    between atoms: C_22  and  C_23
REMARK                            x       y       z     vdW  Elec       q    Type
REMARK                         _______ _______ _______ _____ _____    ______ ____
ROOT
ATOM      1  C   UNL     1       6.856   4.843  14.608  0.00  0.00    +0.000 A 
ATOM      2  C   UNL     1       7.670   5.483  15.562  0.00  0.00    +0.000 A 
ATOM      3  C   UNL     1       7.247   5.623  16.881  0.00  0.00    +0.000 A 
ATOM      4  C   UNL     1       5.988   5.121  17.210  0.00  0.00    +0.000 A 
ATOM      5  C   UNL     1       5.170   4.440  16.306  0.00  0.00    +0.000 A 
ATOM      6  C   UNL     1       5.600   4.314  14.987  0.00  0.00    +0.000 A 
ATOM      7 CL   UNL     1       4.608   3.489  13.832  0.00  0.00    +0.000 Cl
ATOM      8  O   UNL     1       3.947   3.904  16.722  0.00  0.00    +0.000 OA
ATOM      9  C   UNL     1       3.904   4.052  18.527  0.00  0.00    +0.000 C 
ATOM     10  C   UNL     1       5.382   5.198  18.525  0.00  0.00    +0.000 C 
ATOM     11  O   UNL     1       5.739   5.761  19.546  0.00  0.00    +0.000 OA
ATOM     12  C   UNL     1       3.795   2.737  19.281  0.00  0.00    +0.000 C 
ATOM     13  C   UNL     1       2.748   1.902  19.045  0.00  0.00    +0.000 C 
ATOM     14  C   UNL     1       1.730   2.464  19.969  0.00  0.00    +0.000 C 
ATOM     15  O   UNL     1       1.423   1.949  21.040  0.00  0.00    +0.000 OA
ATOM     16  C   UNL     1       1.110   3.749  19.421  0.00  0.00    +0.000 C 
ATOM     17  C   UNL     1       2.194   4.838  19.017  0.00  0.00    +0.000 C 
ATOM     18  C   UNL     1       1.626   5.787  17.996  0.00  0.00    +0.000 C 
ENDROOT
BRANCH   1  20
ATOM     19  C   UNL     1       8.188   5.627  12.790  0.00  0.00    +0.000 C 
ATOM     20  O   UNL     1       7.206   4.728  13.284  0.00  0.00    +0.000 OA
ENDBRANCH   1  20
BRANCH   3  21
ATOM     21  O   UNL     1       7.979   6.201  17.880  0.00  0.00    +0.000 OA
ATOM     22  C   UNL     1       8.008   7.620  17.961  0.00  0.00    +0.000 C 
ENDBRANCH   3  21
BRANCH  12  23
ATOM     23  O   UNL     1       3.897   3.966  18.576  0.00  0.00    +0.000 OA
ATOM     24  H   UNL     1       2.520   3.797  18.432  0.00  0.00    +0.000 HD
ENDBRANCH  12  23
TORSDOF 3
ENDMDL
MODEL 3
REMARK VINA RESULT:      -5.7      6.967     11.435
REMARK  Name = 
REMARK  6 active torsions:
REMARK  status: ('A' for Active; 'I' for Inactive)
REMARK    1  A    between atoms: C_1  and  O_2
REMARK    2  A    between atoms: O_2  and  C_3
REMARK    3  A    between atoms: C_5  and  O_6
REMARK    4  A    between atoms: O_6  and  C_7
REMARK    5  A    between atoms: C_16  and  O_17
REMARK    6  A    between atoms: C_22  and  C_23
REMARK                            x       y       z     vdW  Elec       q    Type
REMARK                         _______ _______ _______ _____ _____    ______ ____
ROOT
ATOM      1  C   UNL     1      -2.497  10.237  17.207  0.00  0.00    +0.000 A 
ATOM      2  C   UNL     1      -1.172   9.862  17.500  0.00  0.00    +0.000 A 
ATOM      3  C   UNL     1      -0.508  10.393  18.603  0.00  0.00    +0.000 A 
ATOM      4  C   UNL     1      -1.200  11.314  19.388  0.00  0.00    +0.000 A 
ATOM      5  C   UNL     1      -2.528  11.678  19.159  0.00  0.00    +0.000 A 
ATOM      6  C   UNL     1      -3.179  11.147  18.047  0.00  0.00    +0.000 A 
ATOM      7 CL   UNL     1      -4.822  11.585  17.720  0.00  0.00    +0.000 Cl
ATOM      8  O   UNL     1      -3.182  12.558  20.027  0.00  0.00    +0.000 OA
ATOM      9  C   UNL     1      -2.088  12.787  21.453  0.00  0.00    +0.000 C 
ATOM     10  C   UNL     1      -0.658  11.979  20.558  0.00  0.00    +0.000 C 
ATOM     11  O   UNL     1       0.463  11.983  21.038  0.00  0.00    +0.000 OA
ATOM     12  C   UNL     1      -2.667  12.348  22.788  0.00  0.00    +0.000 C 
ATOM     13  C   UNL     1      -3.828  12.894  23.239  0.00  0.00    +0.000 C 
ATOM     14  C   UNL     1      -3.320  14.116  23.911  0.00  0.00    +0.000 C 
ATOM     15  O   UNL     1      -3.223  14.234  25.129  0.00  0.00    +0.000 OA
ATOM     16  C   UNL     1      -2.944  15.205  22.907  0.00  0.00    +0.000 C 
ATOM     17  C   UNL     1      -1.939  14.697  21.786  0.00  0.00    +0.000 C 
ATOM     18  C   UNL     1      -2.050  15.557  20.557  0.00  0.00    +0.000 C 
ENDROOT
BRANCH   1  20
ATOM     19  C   UNL     1      -2.957  10.469  14.877  0.00  0.00    +0.000 C 
ATOM     20  O   UNL     1      -3.174   9.783  16.101  0.00  0.00    +0.000 OA
ENDBRANCH   1  20
BRANCH   3  21
ATOM     21  O   UNL     1       0.764  10.066  18.983  0.00  0.00    +0.000 OA
ATOM     22  C   UNL     1       1.643   9.528  18.003  0.00  0.00    +0.000 C 
ENDBRANCH   3  21
BRANCH  12  23
ATOM     23  O   UNL     1      -2.126  12.758  21.541  0.00  0.00    +0.000 OA
ATOM     24  H   UNL     1      -3.457  12.668  21.132  0.00  0.00    +0.000 HD
ENDBRANCH  12  23
TORSDOF 3
ENDMDL
MODEL 4
REMARK VINA RESULT:      -5.6      6.626     10.926
REMARK  Name = 
REMARK  6 active torsions:
REMARK  status: ('A' for Active; 'I' for Inactive)
REMARK    1  A    between atoms: C_1  and  O_2
REMARK    2  A    between atoms: O_2  and  C_3
REMARK    3  A    between atoms: C_5  and  O_6
REMARK    4  A    between atoms: O_6  and  C_7
REMARK    5  A    between atoms: C_16  and  O_17
REMARK    6  A    between atoms: C_22  and  C_23
REMARK                            x       y       z     vdW  Elec       q    Type
REMARK                         _______ _______ _______ _____ _____    ______ ____
ROOT
ATOM      1  C   UNL     1      -2.172  10.265  17.581  0.00  0.00    +0.000 A 
ATOM      2  C   UNL     1      -0.837   9.820  17.623  0.00  0.00    +0.000 A 
ATOM      3  C   UNL     1       0.081  10.399  18.496  0.00  0.00    +0.000 A 
ATOM      4  C   UNL     1      -0.371  11.439  19.307  0.00  0.00    +0.000 A 
ATOM      5  C   UNL     1      -1.696  11.879  19.329  0.00  0.00    +0.000 A 
ATOM      6  C   UNL     1      -2.603  11.298  18.445  0.00  0.00    +0.000 A 
ATOM      7 CL   UNL     1      -4.252  11.826  18.431  0.00  0.00    +0.000 Cl
ATOM      8  O   UNL     1      -2.094  12.883  20.218  0.00  0.00    +0.000 OA
ATOM      9  C   UNL     1      -0.703  13.161  21.344  0.00  0.00    +0.000 C 
ATOM     10  C   UNL     1       0.449  12.167  20.256  0.00  0.00    +0.000 C 
ATOM     11  O   UNL     1       1.647  12.130  20.482  0.00  0.00    +0.000 OA
ATOM     12  C   UNL     1      -0.997  12.893  22.811  0.00  0.00    +0.000 C 
ATOM     13  C   UNL     1      -2.000  13.563  23.438  0.00  0.00    +0.000 C 
ATOM     14  C   UNL     1      -1.291  14.801  23.852  0.00  0.00    +0.000 C 
ATOM     15  O   UNL     1      -0.922  15.024  25.001  0.00  0.00    +0.000 OA
ATOM     16  C   UNL     1      -1.088  15.761  22.679  0.00  0.00    +0.000 C 
ATOM     17  C   UNL     1      -0.383  15.076  21.431  0.00  0.00    +0.000 C 
ATOM     18  C   UNL     1      -0.715  15.824  20.168  0.00  0.00    +0.000 C 
ENDROOT
BRANCH   1  20
ATOM     19  C   UNL     1      -3.031  10.212  15.356  0.00  0.00    +0.000 C 
ATOM     20  O   UNL     1      -3.099   9.762  16.700  0.00  0.00    +0.000 OA
ENDBRANCH   1  20
BRANCH   3  21
ATOM     21  O   UNL     1       1.385  10.014  18.628  0.00  0.00    +0.000 OA
ATOM     22  C   UNL     1       1.804   8.819  17.982  0.00  0.00    +0.000 C 
ENDBRANCH   3  21
BRANCH  12  23
ATOM     23  O   UNL     1      -0.723  13.142  21.441  0.00  0.00    +0.000 OA
ATOM     24  H   UNL     1      -1.943  12.492  21.257  0.00  0.00    +0.000 HD
ENDBRANCH  12  23
TORSDOF 3
ENDMDL
MODEL 5
REMARK VINA RESULT:      -5.4      7.666     10.843
REMARK  Name = 
REMARK  6 active torsions:
REMARK  status: ('A' for Active; 'I' for Inactive)
REMARK    1  A    between atoms: C_1  and  O_2
REMARK    2  A    between atoms: O_2  and  C_3
REMARK    3  A    between atoms: C_5  and  O_6
REMARK    4  A    between atoms: O_6  and  C_7
REMARK    5  A    between atoms: C_16  and  O_17
REMARK    6  A    between atoms: C_22  and  C_23
REMARK                            x       y       z     vdW  Elec       q    Type
REMARK                         _______ _______ _______ _____ _____    ______ ____
ROOT
ATOM      1  C   UNL     1      -5.532  12.877  22.256  0.00  0.00    +0.000 A 
ATOM      2  C   UNL     1      -6.294  12.560  21.115  0.00  0.00    +0.000 A 
ATOM      3  C   UNL     1      -5.674  12.230  19.913  0.00  0.00    +0.000 A 
ATOM      4  C   UNL     1      -4.281  12.244  19.883  0.00  0.00    +0.000 A 
ATOM      5  C   UNL     1      -3.488  12.508  21.002  0.00  0.00    +0.000 A 
ATOM      6  C   UNL     1      -4.120  12.845  22.197  0.00  0.00    +0.000 A 
ATOM      7 CL   UNL     1      -3.172  13.194  23.604  0.00  0.00    +0.000 Cl
ATOM      8  O   UNL     1      -2.094  12.438  20.915  0.00  0.00    +0.000 OA
ATOM      9  C   UNL     1      -1.711  11.719  19.297  0.00  0.00    +0.000 C 
ATOM     10  C   UNL     1      -3.474  11.947  18.715  0.00  0.00    +0.000 C 
ATOM     11  O   UNL     1      -3.781  11.740  17.553  0.00  0.00    +0.000 OA
ATOM     12  C   UNL     1      -0.948  10.405  19.339  0.00  0.00    +0.000 C 
ATOM     13  C   UNL     1       0.256  10.337  19.966  0.00  0.00    +0.000 C 
ATOM     14  C   UNL     1       1.163  10.777  18.876  0.00  0.00    +0.000 C 
ATOM     15  O   UNL     1       1.872  10.013  18.227  0.00  0.00    +0.000 OA
ATOM     16  C   UNL     1       1.112  12.291  18.668  0.00  0.00    +0.000 C 
ATOM     17  C   UNL     1      -0.363  12.839  18.454  0.00  0.00    +0.000 C 
ATOM     18  C   UNL     1      -0.438  14.296  18.826  0.00  0.00    +0.000 C 
ENDROOT
BRANCH   1  20
ATOM     19  C   UNL     1      -7.357  12.698  23.783  0.00  0.00    +0.000 C 
ATOM     20  O   UNL     1      -6.098  13.261  23.449  0.00  0.00    +0.000 OA
ENDBRANCH   1  20
BRANCH   3  21
ATOM     21  O   UNL     1      -6.329  11.880  18.765  0.00  0.00    +0.000 OA
ATOM     22  C   UNL     1      -7.338  12.751  18.272  0.00  0.00    +0.000 C 
ENDBRANCH   3  21
BRANCH  12  23
ATOM     23  O   UNL     1      -1.661  11.632  19.300  0.00  0.00    +0.000 OA
ATOM     24  H   UNL     1      -2.750  10.809  19.585  0.00  0.00    +0.000 HD
ENDBRANCH  12  23
TORSDOF 3
ENDMDL
MODEL 6
REMARK VINA RESULT:      -5.3      7.055     11.773
REMARK  Name = 
REMARK  6 active torsions:
REMARK  status: ('A' for Active; 'I' for Inactive)
REMARK    1  A    between atoms: C_1  and  O_2
REMARK    2  A    between atoms: O_2  and  C_3
REMARK    3  A    between atoms: C_5  and  O_6
REMARK    4  A    between atoms: O_6  and  C_7
REMARK    5  A    between atoms: C_16  and  O_17
REMARK    6  A    between atoms: C_22  and  C_23
REMARK                            x       y       z     vdW  Elec       q    Type
REMARK                         _______ _______ _______ _____ _____    ______ ____
ROOT
ATOM      1  C   UNL     1      -0.038   9.577  20.919  0.00  0.00    +0.000 A 
ATOM      2  C   UNL     1      -0.489  10.160  19.720  0.00  0.00    +0.000 A 
ATOM      3  C   UNL     1      -1.222  11.343  19.734  0.00  0.00    +0.000 A 
ATOM      4  C   UNL     1      -1.500  11.913  20.975  0.00  0.00    +0.000 A 
ATOM      5  C   UNL     1      -1.032  11.393  22.184  0.00  0.00    +0.000 A 
ATOM      6  C   UNL     1      -0.307  10.203  22.158  0.00  0.00    +0.000 A 
ATOM      7 CL   UNL     1       0.278   9.518  23.636  0.00  0.00    +0.000 Cl
ATOM      8  O   UNL     1      -1.293  12.055  23.388  0.00  0.00    +0.000 OA
ATOM      9  C   UNL     1      -2.010  13.661  22.953  0.00  0.00    +0.000 C 
ATOM     10  C   UNL     1      -2.265  13.129  21.178  0.00  0.00    +0.000 C 
ATOM     11  O   UNL     1      -2.888  13.829  20.398  0.00  0.00    +0.000 OA
ATOM     12  C   UNL     1      -1.215  14.870  23.416  0.00  0.00    +0.000 C 
ATOM     13  C   UNL     1      -0.940  15.038  24.737  0.00  0.00    +0.000 C 
ATOM     14  C   UNL     1      -2.172  15.729  25.194  0.00  0.00    +0.000 C 
ATOM     15  O   UNL     1      -2.232  16.931  25.431  0.00  0.00    +0.000 OA
ATOM     16  C   UNL     1      -3.348  14.762  25.338  0.00  0.00    +0.000 C 
ATOM     17  C   UNL     1      -3.612  13.906  24.026  0.00  0.00    +0.000 C 
ATOM     18  C   UNL     1      -4.335  12.632  24.372  0.00  0.00    +0.000 C 
ENDROOT
BRANCH   1  20
ATOM     19  C   UNL     1       1.692   8.198  20.023  0.00  0.00    +0.000 C 
ATOM     20  O   UNL     1       0.642   8.383  20.960  0.00  0.00    +0.000 OA
ENDBRANCH   1  20
BRANCH   3  21
ATOM     21  O   UNL     1      -1.676  11.996  18.622  0.00  0.00    +0.000 OA
ATOM     22  C   UNL     1      -2.609  11.329  17.782  0.00  0.00    +0.000 C 
ENDBRANCH   3  21
BRANCH  12  23
ATOM     23  O   UNL     1      -1.957  13.740  22.983  0.00  0.00    +0.000 OA
ATOM     24  H   UNL     1      -0.927  13.040  23.610  0.00  0.00    +0.000 HD
ENDBRANCH  12  23
TORSDOF 3
ENDMDL
MODEL 7
REMARK VINA RESULT:      -5.3      9.967     12.781
REMARK  Name = 
REMARK  6 active torsions:
REMARK  status: ('A' for Active; 'I' for Inactive)
REMARK    1  A    between atoms: C_1  and  O_2
REMARK    2  A    between atoms: O_2  and  C_3
REMARK    3  A    between atoms: C_5  and  O_6
REMARK    4  A    between atoms: O_6  and  C_7
REMARK    5  A    between atoms: C_16  and  O_17
REMARK    6  A    between atoms: C_22  and  C_23
REMARK                            x       y       z     vdW  Elec       q    Type
REMARK                         _______ _______ _______ _____ _____    ______ ____
ROOT
ATOM      1  C   UNL     1      -3.272  11.333  17.273  0.00  0.00    +0.000 A 
ATOM      2  C   UNL     1      -4.622  10.961  17.416  0.00  0.00    +0.000 A 
ATOM      3  C   UNL     1      -5.326  11.263  18.579  0.00  0.00    +0.000 A 
ATOM      4  C   UNL     1      -4.638  11.929  19.592  0.00  0.00    +0.000 A 
ATOM      5  C   UNL     1      -3.314  12.355  19.473  0.00  0.00    +0.000 A 
ATOM      6  C   UNL     1      -2.617  12.040  18.308  0.00  0.00    +0.000 A 
ATOM      7 CL   UNL     1      -0.969  12.538  18.128  0.00  0.00    +0.000 Cl
ATOM      8  O   UNL     1      -2.707  13.078  20.505  0.00  0.00    +0.000 OA
ATOM      9  C   UNL     1      -4.017  13.495  21.686  0.00  0.00    +0.000 C 
ATOM     10  C   UNL     1      -5.207  12.303  20.873  0.00  0.00    +0.000 C 
ATOM     11  O   UNL     1      -6.289  12.056  21.378  0.00  0.00    +0.000 OA
ATOM     12  C   UNL     1      -4.248  14.982  21.895  0.00  0.00    +0.000 C 
ATOM     13  C   UNL     1      -3.229  15.777  22.319  0.00  0.00    +0.000 C 
ATOM     14  C   UNL     1      -3.330  15.599  23.790  0.00  0.00    +0.000 C 
ATOM     15  O   UNL     1      -3.809  16.438  24.547  0.00  0.00    +0.000 OA
ATOM     16  C   UNL     1      -2.760  14.255  24.242  0.00  0.00    +0.000 C 
ATOM     17  C   UNL     1      -3.386  13.020  23.463  0.00  0.00    +0.000 C 
ATOM     18  C   UNL     1      -2.445  11.847  23.500  0.00  0.00    +0.000 C 
ENDROOT
BRANCH   1  20
ATOM     19  C   UNL     1      -3.208  10.477  15.046  0.00  0.00    +0.000 C 
ATOM     20  O   UNL     1      -2.521  11.010  16.168  0.00  0.00    +0.000 OA
ENDBRANCH   1  20
BRANCH   3  21
ATOM     21  O   UNL     1      -6.643  10.969  18.794  0.00  0.00    +0.000 OA
ATOM     22  C   UNL     1      -6.991   9.630  19.121  0.00  0.00    +0.000 C 
ENDBRANCH   3  21
BRANCH  12  23
ATOM     23  O   UNL     1      -4.032  13.593  21.699  0.00  0.00    +0.000 OA
ATOM     24  H   UNL     1      -3.045  13.787  22.665  0.00  0.00    +0.000 HD
ENDBRANCH  12  23
TORSDOF 3
ENDMDL
MODEL 8
REMARK VINA RESULT:      -5.3      7.126     11.740
REMARK  Name = 
REMARK  6 active torsions:
REMARK  status: ('A' for Active; 'I' for Inactive)
REMARK    1  A    between atoms: C_1  and  O_2
REMARK    2  A    between atoms: O_2  and  C_3
REMARK    3  A    between atoms: C_5  and  O_6
REMARK    4  A    between atoms: O_6  and  C_7
REMARK    5  A    between atoms: C_16  and  O_17
REMARK    6  A    between atoms: C_22  and  C_23
REMARK                            x       y       z     vdW  Elec       q    Type
REMARK                         _______ _______ _______ _____ _____    ______ ____
ROOT
ATOM      1  C   UNL     1      -0.105  10.291  19.033  0.00  0.00    +0.000 A 
ATOM      2  C   UNL     1       0.481  10.068  20.293  0.00  0.00    +0.000 A 
ATOM      3  C   UNL     1       0.023  10.744  21.421  0.00  0.00    +0.000 A 
ATOM      4  C   UNL     1      -1.019  11.653  21.248  0.00  0.00    +0.000 A 
ATOM      5  C   UNL     1      -1.657  11.869  20.025  0.00  0.00    +0.000 A 
ATOM      6  C   UNL     1      -1.185  11.194  18.902  0.00  0.00    +0.000 A 
ATOM      7 CL   UNL     1      -1.940  11.446  17.364  0.00  0.00    +0.000 Cl
ATOM      8  O   UNL     1      -2.741  12.748  19.938  0.00  0.00    +0.000 OA
ATOM      9  C   UNL     1      -3.189  13.191  21.637  0.00  0.00    +0.000 C 
ATOM     10  C   UNL     1      -1.604  12.455  22.305  0.00  0.00    +0.000 C 
ATOM     11  O   UNL     1      -1.290  12.603  23.474  0.00  0.00    +0.000 OA
ATOM     12  C   UNL     1      -4.597  12.804  22.055  0.00  0.00    +0.000 C 
ATOM     13  C   UNL     1      -5.667  13.269  21.356  0.00  0.00    +0.000 C 
ATOM     14  C   UNL     1      -5.880  14.583  22.015  0.00  0.00    +0.000 C 
ATOM     15  O   UNL     1      -6.778  14.804  22.822  0.00  0.00    +0.000 OA
ATOM     16  C   UNL     1      -4.855  15.622  21.559  0.00  0.00    +0.000 C 
ATOM     17  C   UNL     1      -3.354  15.126  21.722  0.00  0.00    +0.000 C 
ATOM     18  C   UNL     1      -2.452  15.874  20.777  0.00  0.00    +0.000 C 
ENDROOT
BRANCH   1  20
ATOM     19  C   UNL     1       1.659   9.146  17.903  0.00  0.00    +0.000 C 
ATOM     20  O   UNL     1       0.347   9.689  17.882  0.00  0.00    +0.000 OA
ENDBRANCH   1  20
BRANCH   3  21
ATOM     21  O   UNL     1       0.509  10.570  22.687  0.00  0.00    +0.000 OA
ATOM     22  C   UNL     1       0.106   9.415  23.412  0.00  0.00    +0.000 C 
ENDBRANCH   3  21
BRANCH  12  23
ATOM     23  O   UNL     1      -3.281  13.165  21.664  0.00  0.00    +0.000 OA
ATOM     24  H   UNL     1      -3.644  12.524  20.479  0.00  0.00    +0.000 HD
ENDBRANCH  12  23
TORSDOF 3
ENDMDL
MODEL 9
REMARK VINA RESULT:      -5.3      9.343     11.844
REMARK  Name = 
REMARK  6 active torsions:
REMARK  status: ('A' for Active; 'I' for Inactive)
REMARK    1  A    between atoms: C_1  and  O_2
REMARK    2  A    between atoms: O_2  and  C_3
REMARK    3  A    between atoms: C_5  and  O_6
REMARK    4  A    between atoms: O_6  and  C_7
REMARK    5  A    between atoms: C_16  and  O_17
REMARK    6  A    between atoms: C_22  and  C_23
REMARK                            x       y       z     vdW  Elec       q    Type
REMARK                         _______ _______ _______ _____ _____    ______ ____
ROOT
ATOM      1  C   UNL     1      -3.393  10.529  17.076  0.00  0.00    +0.000 A 
ATOM      2  C   UNL     1      -4.709  11.024  17.145  0.00  0.00    +0.000 A 
ATOM      3  C   UNL     1      -5.090  11.898  18.160  0.00  0.00    +0.000 A 
ATOM      4  C   UNL     1      -4.126  12.247  19.104  0.00  0.00    +0.000 A 
ATOM      5  C   UNL     1      -2.799  11.815  19.046  0.00  0.00    +0.000 A 
ATOM      6  C   UNL     1      -2.432  10.934  18.031  0.00  0.00    +0.000 A 
ATOM      7 CL   UNL     1      -0.800  10.363  17.934  0.00  0.00    +0.000 Cl
ATOM      8  O   UNL     1      -1.868  12.259  19.990  0.00  0.00    +0.000 OA
ATOM      9  C   UNL     1      -2.678  13.571  20.941  0.00  0.00    +0.000 C 
ATOM     10  C   UNL     1      -4.352  13.126  20.235  0.00  0.00    +0.000 C 
ATOM     11  O   UNL     1      -5.370  13.644  20.664  0.00  0.00    +0.000 OA
ATOM     12  C   UNL     1      -2.010  14.933  20.861  0.00  0.00    +0.000 C 
ATOM     13  C   UNL     1      -0.711  15.078  21.239  0.00  0.00    +0.000 C 
ATOM     14  C   UNL     1      -0.868  15.291  22.700  0.00  0.00    +0.000 C 
ATOM     15  O   UNL     1      -0.764  16.385  23.245  0.00  0.00    +0.000 OA
ATOM     16  C   UNL     1      -1.165  13.985  23.437  0.00  0.00    +0.000 C 
ATOM     17  C   UNL     1      -2.401  13.194  22.828  0.00  0.00    +0.000 C 
ATOM     18  C   UNL     1      -2.304  11.731  23.167  0.00  0.00    +0.000 C 
ENDROOT
BRANCH   1  20
ATOM     19  C   UNL     1      -3.041  10.032  14.769  0.00  0.00    +0.000 C 
ATOM     20  O   UNL     1      -2.985   9.623  16.127  0.00  0.00    +0.000 OA
ENDBRANCH   1  20
BRANCH   3  21
ATOM     21  O   UNL     1      -6.333  12.452  18.289  0.00  0.00    +0.000 OA
ATOM     22  C   UNL     1      -6.860  13.190  17.194  0.00  0.00    +0.000 C 
ENDBRANCH   3  21
BRANCH  12  23
ATOM     23  O   UNL     1      -2.634  13.661  20.935  0.00  0.00    +0.000 OA
ATOM     24  H   UNL     1      -2.797  13.854  19.563  0.00  0.00    +0.000 HD
ENDBRANCH  12  23
TORSDOF 3
ENDMDL
