MODEL 1
REMARK VINA RESULT:      -8.4      0.000      0.000
REMARK  Name = 
REMARK  6 active torsions:
REMARK  status: ('A' for Active; 'I' for Inactive)
REMARK    1  A    between atoms: C_1  and  O_2
REMARK    2  A    between atoms: O_2  and  C_3
REMARK    3  A    between atoms: C_6  and  N_7
REMARK    4  A    between atoms: N_10  and  C_11
REMARK    5  A    between atoms: C_14  and  O_15
REMARK    6  A    between atoms: O_15  and  C_16
REMARK                            x       y       z     vdW  Elec       q    Type
REMARK                         _______ _______ _______ _____ _____    ______ ____
ROOT
ATOM      1  N   UNL     1       9.294   9.334  19.114  0.00  0.00    +0.000 N 
ATOM      2  C   UNL     1       8.274   8.785  18.358  0.00  0.00    +0.000 C 
ATOM      3  O   UNL     1       7.470   9.404  17.667  0.00  0.00    +0.000 OA
ATOM      4  N   UNL     1       8.206   7.416  18.478  0.00  0.00    +0.000 N 
ATOM      5  H   UNL     1       9.870   8.688  19.635  0.00  0.00    +0.000 HD
ATOM      6  H   UNL     1       8.832   6.970  19.132  0.00  0.00    +0.000 HD
ENDROOT
BRANCH   1  10
ATOM      7  C   UNL     1      10.269  13.450  19.446  0.00  0.00    +0.000 A 
ATOM      8  C   UNL     1       9.705  12.777  20.525  0.00  0.00    +0.000 A 
ATOM      9  C   UNL     1       9.384  11.420  20.436  0.00  0.00    +0.000 A 
ATOM     10  C   UNL     1       9.604  10.707  19.257  0.00  0.00    +0.000 A 
ATOM     11  C   UNL     1      10.159  11.392  18.164  0.00  0.00    +0.000 A 
ATOM     12  C   UNL     1      10.489  12.758  18.256  0.00  0.00    +0.000 A 
BRANCH   7  14
ATOM     13  C   UNL     1      11.437  15.400  18.786  0.00  0.00    +0.000 C 
ATOM     14  O   UNL     1      10.517  14.774  19.669  0.00  0.00    +0.000 OA
ENDBRANCH   7  14
ENDBRANCH   1  10
BRANCH   4  15
ATOM     15  C   UNL     1       7.073   6.617  18.012  0.00  0.00    +0.000 C 
ATOM     16  C   UNL     1       7.297   6.078  16.592  0.00  0.00    +0.000 C 
ATOM     17  C   UNL     1       6.001   5.470  16.076  0.00  0.00    +0.000 C 
ATOM     18  C   UNL     1       5.625   4.257  16.937  0.00  0.00    +0.000 C 
ATOM     19  C   UNL     1       5.416   4.711  18.394  0.00  0.00    +0.000 C 
ATOM     20  C   UNL     1       6.637   5.476  18.950  0.00  0.00    +0.000 C 
BRANCH  18  21
ATOM     21  O   UNL     1       4.427   3.645  16.435  0.00  0.00    +0.000 OA
BRANCH  21  22
ATOM     22  C   UNL     1       3.442   3.339  17.343  0.00  0.00    +0.000 A 
ATOM     23  C   UNL     1       3.346   2.149  18.076  0.00  0.00    +0.000 A 
ATOM     24  C   UNL     1       2.281   1.935  18.956  0.00  0.00    +0.000 A 
ATOM     25  C   UNL     1       1.313   2.914  19.110  0.00  0.00    +0.000 A 
ATOM     26  F   UNL     1       0.289   2.704  19.948  0.00  0.00    +0.000 F 
ATOM     27  C   UNL     1       1.393   4.108  18.404  0.00  0.00    +0.000 A 
ATOM     28  C   UNL     1       2.458   4.322  17.516  0.00  0.00    +0.000 A 
ENDBRANCH  21  22
ENDBRANCH  18  21
ENDBRANCH   4  15
TORSDOF 5
ENDMDL
MODEL 2
REMARK VINA RESULT:      -8.4      0.443      1.014
REMARK  Name = 
REMARK  6 active torsions:
REMARK  status: ('A' for Active; 'I' for Inactive)
REMARK    1  A    between atoms: C_1  and  O_2
REMARK    2  A    between atoms: O_2  and  C_3
REMARK    3  A    between atoms: C_6  and  N_7
REMARK    4  A    between atoms: N_10  and  C_11
REMARK    5  A    between atoms: C_14  and  O_15
REMARK    6  A    between atoms: O_15  and  C_16
REMARK                            x       y       z     vdW  Elec       q    Type
REMARK                         _______ _______ _______ _____ _____    ______ ____
ROOT
ATOM      1  N   UNL     1       9.317   9.338  19.177  0.00  0.00    +0.000 N 
ATOM      2  C   UNL     1       8.336   8.729  18.415  0.00  0.00    +0.000 C 
ATOM      3  O   UNL     1       7.582   9.286  17.623  0.00  0.00    +0.000 OA
ATOM      4  N   UNL     1       8.242   7.377  18.659  0.00  0.00    +0.000 N 
ATOM      5  H   UNL     1       9.852   8.740  19.790  0.00  0.00    +0.000 HD
ATOM      6  H   UNL     1       8.823   6.990  19.388  0.00  0.00    +0.000 HD
ENDROOT
BRANCH   1  10
ATOM      7  C   UNL     1      10.265  13.469  19.379  0.00  0.00    +0.000 A 
ATOM      8  C   UNL     1      10.097  12.850  18.144  0.00  0.00    +0.000 A 
ATOM      9  C   UNL     1       9.777  11.493  18.059  0.00  0.00    +0.000 A 
ATOM     10  C   UNL     1       9.636  10.716  19.209  0.00  0.00    +0.000 A 
ATOM     11  C   UNL     1       9.822  11.338  20.454  0.00  0.00    +0.000 A 
ATOM     12  C   UNL     1      10.137  12.708  20.540  0.00  0.00    +0.000 A 
BRANCH   7  14
ATOM     13  C   UNL     1       9.655  15.638  18.658  0.00  0.00    +0.000 C 
ATOM     14  O   UNL     1      10.590  14.793  19.313  0.00  0.00    +0.000 OA
ENDBRANCH   7  14
ENDBRANCH   1  10
BRANCH   4  15
ATOM     15  C   UNL     1       7.129   6.546  18.202  0.00  0.00    +0.000 C 
ATOM     16  C   UNL     1       7.239   6.210  16.709  0.00  0.00    +0.000 C 
ATOM     17  C   UNL     1       5.944   5.560  16.244  0.00  0.00    +0.000 C 
ATOM     18  C   UNL     1       5.753   4.221  16.969  0.00  0.00    +0.000 C 
ATOM     19  C   UNL     1       5.667   4.471  18.487  0.00  0.00    +0.000 C 
ATOM     20  C   UNL     1       6.881   5.264  19.019  0.00  0.00    +0.000 C 
BRANCH  18  21
ATOM     21  O   UNL     1       4.556   3.574  16.508  0.00  0.00    +0.000 OA
BRANCH  21  22
ATOM     22  C   UNL     1       3.564   3.342  17.430  0.00  0.00    +0.000 A 
ATOM     23  C   UNL     1       3.320   2.125  18.081  0.00  0.00    +0.000 A 
ATOM     24  C   UNL     1       2.262   1.998  18.985  0.00  0.00    +0.000 A 
ATOM     25  C   UNL     1       1.448   3.089  19.245  0.00  0.00    +0.000 A 
ATOM     26  F   UNL     1       0.430   2.963  20.106  0.00  0.00    +0.000 F 
ATOM     27  C   UNL     1       1.679   4.310  18.623  0.00  0.00    +0.000 A 
ATOM     28  C   UNL     1       2.737   4.438  17.710  0.00  0.00    +0.000 A 
ENDBRANCH  21  22
ENDBRANCH  18  21
ENDBRANCH   4  15
TORSDOF 5
ENDMDL
MODEL 3
REMARK VINA RESULT:      -8.3      0.557      1.083
REMARK  Name = 
REMARK  6 active torsions:
REMARK  status: ('A' for Active; 'I' for Inactive)
REMARK    1  A    between atoms: C_1  and  O_2
REMARK    2  A    between atoms: O_2  and  C_3
REMARK    3  A    between atoms: C_6  and  N_7
REMARK    4  A    between atoms: N_10  and  C_11
REMARK    5  A    between atoms: C_14  and  O_15
REMARK    6  A    between atoms: O_15  and  C_16
REMARK                            x       y       z     vdW  Elec       q    Type
REMARK                         _______ _______ _______ _____ _____    ______ ____
ROOT
ATOM      1  N   UNL     1       9.340   9.468  19.041  0.00  0.00    +0.000 N 
ATOM      2  C   UNL     1       8.359   8.812  18.319  0.00  0.00    +0.000 C 
ATOM      3  O   UNL     1       7.575   9.326  17.527  0.00  0.00    +0.000 OA
ATOM      4  N   UNL     1       8.304   7.466  18.605  0.00  0.00    +0.000 N 
ATOM      5  H   UNL     1       9.902   8.902  19.661  0.00  0.00    +0.000 HD
ATOM      6  H   UNL     1       8.909   7.116  19.333  0.00  0.00    +0.000 HD
ENDROOT
BRANCH   1  10
ATOM      7  C   UNL     1      10.241  13.612  18.899  0.00  0.00    +0.000 A 
ATOM      8  C   UNL     1       9.677  13.059  20.044  0.00  0.00    +0.000 A 
ATOM      9  C   UNL     1       9.381  11.695  20.112  0.00  0.00    +0.000 A 
ATOM     10  C   UNL     1       9.625  10.854  19.025  0.00  0.00    +0.000 A 
ATOM     11  C   UNL     1      10.179  11.417  17.865  0.00  0.00    +0.000 A 
ATOM     12  C   UNL     1      10.485  12.790  17.800  0.00  0.00    +0.000 A 
BRANCH   7  14
ATOM     13  C   UNL     1       9.784  15.757  18.010  0.00  0.00    +0.000 C 
ATOM     14  O   UNL     1      10.463  14.957  18.967  0.00  0.00    +0.000 OA
ENDBRANCH   7  14
ENDBRANCH   1  10
BRANCH   4  15
ATOM     15  C   UNL     1       7.203   6.595  18.198  0.00  0.00    +0.000 C 
ATOM     16  C   UNL     1       7.317   6.178  16.725  0.00  0.00    +0.000 C 
ATOM     17  C   UNL     1       6.031   5.484  16.299  0.00  0.00    +0.000 C 
ATOM     18  C   UNL     1       5.861   4.185  17.098  0.00  0.00    +0.000 C 
ATOM     19  C   UNL     1       5.773   4.517  18.600  0.00  0.00    +0.000 C 
ATOM     20  C   UNL     1       6.975   5.357  19.085  0.00  0.00    +0.000 C 
BRANCH  18  21
ATOM     21  O   UNL     1       4.673   3.495  16.676  0.00  0.00    +0.000 OA
BRANCH  21  22
ATOM     22  C   UNL     1       3.575   3.559  17.501  0.00  0.00    +0.000 A 
ATOM     23  C   UNL     1       2.847   4.716  17.806  0.00  0.00    +0.000 A 
ATOM     24  C   UNL     1       1.758   4.666  18.682  0.00  0.00    +0.000 A 
ATOM     25  C   UNL     1       1.392   3.455  19.250  0.00  0.00    +0.000 A 
ATOM     26  F   UNL     1       0.354   3.410  20.095  0.00  0.00    +0.000 F 
ATOM     27  C   UNL     1       2.091   2.292  18.952  0.00  0.00    +0.000 A 
ATOM     28  C   UNL     1       3.187   2.341  18.077  0.00  0.00    +0.000 A 
ENDBRANCH  21  22
ENDBRANCH  18  21
ENDBRANCH   4  15
TORSDOF 5
ENDMDL
MODEL 4
REMARK VINA RESULT:      -8.0      0.999      1.293
REMARK  Name = 
REMARK  6 active torsions:
REMARK  status: ('A' for Active; 'I' for Inactive)
REMARK    1  A    between atoms: C_1  and  O_2
REMARK    2  A    between atoms: O_2  and  C_3
REMARK    3  A    between atoms: C_6  and  N_7
REMARK    4  A    between atoms: N_10  and  C_11
REMARK    5  A    between atoms: C_14  and  O_15
REMARK    6  A    between atoms: O_15  and  C_16
REMARK                            x       y       z     vdW  Elec       q    Type
REMARK                         _______ _______ _______ _____ _____    ______ ____
ROOT
ATOM      1  N   UNL     1       9.484  10.085  19.696  0.00  0.00    +0.000 N 
ATOM      2  C   UNL     1       8.870   9.364  18.688  0.00  0.00    +0.000 C 
ATOM      3  O   UNL     1       8.454   9.814  17.625  0.00  0.00    +0.000 OA
ATOM      4  N   UNL     1       8.721   8.033  19.006  0.00  0.00    +0.000 N 
ATOM      5  H   UNL     1       9.765   9.568  20.517  0.00  0.00    +0.000 HD
ATOM      6  H   UNL     1       8.996   7.738  19.931  0.00  0.00    +0.000 HD
ENDROOT
BRANCH   1  10
ATOM      7  C   UNL     1      10.338  14.241  19.690  0.00  0.00    +0.000 A 
ATOM      8  C   UNL     1       9.276  13.747  20.441  0.00  0.00    +0.000 A 
ATOM      9  C   UNL     1       8.985  12.381  20.461  0.00  0.00    +0.000 A 
ATOM     10  C   UNL     1       9.740  11.476  19.713  0.00  0.00    +0.000 A 
ATOM     11  C   UNL     1      10.801  11.979  18.944  0.00  0.00    +0.000 A 
ATOM     12  C   UNL     1      11.099  13.355  18.929  0.00  0.00    +0.000 A 
BRANCH   7  14
ATOM     13  C   UNL     1      10.590  16.276  18.508  0.00  0.00    +0.000 C 
ATOM     14  O   UNL     1      10.497  15.595  19.752  0.00  0.00    +0.000 OA
ENDBRANCH   7  14
ENDBRANCH   1  10
BRANCH   4  15
ATOM     15  C   UNL     1       7.875   7.109  18.252  0.00  0.00    +0.000 C 
ATOM     16  C   UNL     1       7.634   5.799  19.015  0.00  0.00    +0.000 C 
ATOM     17  C   UNL     1       6.961   4.796  18.089  0.00  0.00    +0.000 C 
ATOM     18  C   UNL     1       5.574   5.317  17.690  0.00  0.00    +0.000 C 
ATOM     19  C   UNL     1       5.728   6.656  16.945  0.00  0.00    +0.000 C 
ATOM     20  C   UNL     1       6.536   7.690  17.759  0.00  0.00    +0.000 C 
BRANCH  18  21
ATOM     21  O   UNL     1       4.908   4.360  16.851  0.00  0.00    +0.000 OA
BRANCH  21  22
ATOM     22  C   UNL     1       3.787   3.745  17.356  0.00  0.00    +0.000 A 
ATOM     23  C   UNL     1       3.666   2.381  17.652  0.00  0.00    +0.000 A 
ATOM     24  C   UNL     1       2.464   1.859  18.139  0.00  0.00    +0.000 A 
ATOM     25  C   UNL     1       1.381   2.702  18.336  0.00  0.00    +0.000 A 
ATOM     26  F   UNL     1       0.228   2.200  18.794  0.00  0.00    +0.000 F 
ATOM     27  C   UNL     1       1.482   4.061  18.061  0.00  0.00    +0.000 A 
ATOM     28  C   UNL     1       2.686   4.585  17.567  0.00  0.00    +0.000 A 
ENDBRANCH  21  22
ENDBRANCH  18  21
ENDBRANCH   4  15
TORSDOF 5
ENDMDL
MODEL 5
REMARK VINA RESULT:      -7.9      0.794      1.286
REMARK  Name = 
REMARK  6 active torsions:
REMARK  status: ('A' for Active; 'I' for Inactive)
REMARK    1  A    between atoms: C_1  and  O_2
REMARK    2  A    between atoms: O_2  and  C_3
REMARK    3  A    between atoms: C_6  and  N_7
REMARK    4  A    between atoms: N_10  and  C_11
REMARK    5  A    between atoms: C_14  and  O_15
REMARK    6  A    between atoms: O_15  and  C_16
REMARK                            x       y       z     vdW  Elec       q    Type
REMARK                         _______ _______ _______ _____ _____    ______ ____
ROOT
ATOM      1  N   UNL     1       9.142   9.137  19.367  0.00  0.00    +0.000 N 
ATOM      2  C   UNL     1       8.404   8.348  18.502  0.00  0.00    +0.000 C 
ATOM      3  O   UNL     1       7.721   8.745  17.563  0.00  0.00    +0.000 OA
ATOM      4  N   UNL     1       8.472   7.011  18.820  0.00  0.00    +0.000 N 
ATOM      5  H   UNL     1       9.649   8.658  20.097  0.00  0.00    +0.000 HD
ATOM      6  H   UNL     1       8.973   6.752  19.657  0.00  0.00    +0.000 HD
ENDROOT
BRANCH   1  10
ATOM      7  C   UNL     1       9.466  13.365  19.226  0.00  0.00    +0.000 A 
ATOM      8  C   UNL     1       9.329  12.716  20.449  0.00  0.00    +0.000 A 
ATOM      9  C   UNL     1       9.228  11.323  20.515  0.00  0.00    +0.000 A 
ATOM     10  C   UNL     1       9.244  10.548  19.354  0.00  0.00    +0.000 A 
ATOM     11  C   UNL     1       9.367  11.207  18.121  0.00  0.00    +0.000 A 
ATOM     12  C   UNL     1       9.475  12.609  18.055  0.00  0.00    +0.000 A 
BRANCH   7  14
ATOM     13  C   UNL     1       8.579  15.356  20.147  0.00  0.00    +0.000 C 
ATOM     14  O   UNL     1       9.538  14.726  19.310  0.00  0.00    +0.000 OA
ENDBRANCH   7  14
ENDBRANCH   1  10
BRANCH   4  15
ATOM     15  C   UNL     1       7.587   5.996  18.250  0.00  0.00    +0.000 C 
ATOM     16  C   UNL     1       6.274   5.874  19.036  0.00  0.00    +0.000 C 
ATOM     17  C   UNL     1       5.511   4.650  18.550  0.00  0.00    +0.000 C 
ATOM     18  C   UNL     1       5.110   4.846  17.082  0.00  0.00    +0.000 C 
ATOM     19  C   UNL     1       6.380   5.013  16.225  0.00  0.00    +0.000 C 
ATOM     20  C   UNL     1       7.292   6.145  16.745  0.00  0.00    +0.000 C 
BRANCH  18  21
ATOM     21  O   UNL     1       4.350   3.718  16.621  0.00  0.00    +0.000 OA
BRANCH  21  22
ATOM     22  C   UNL     1       3.297   3.300  17.399  0.00  0.00    +0.000 A 
ATOM     23  C   UNL     1       3.201   2.063  18.049  0.00  0.00    +0.000 A 
ATOM     24  C   UNL     1       2.066   1.734  18.797  0.00  0.00    +0.000 A 
ATOM     25  C   UNL     1       1.028   2.646  18.902  0.00  0.00    +0.000 A 
ATOM     26  F   UNL     1      -0.062   2.327  19.612  0.00  0.00    +0.000 F 
ATOM     27  C   UNL     1       1.106   3.885  18.277  0.00  0.00    +0.000 A 
ATOM     28  C   UNL     1       2.242   4.214  17.521  0.00  0.00    +0.000 A 
ENDBRANCH  21  22
ENDBRANCH  18  21
ENDBRANCH   4  15
TORSDOF 5
ENDMDL
MODEL 6
REMARK VINA RESULT:      -7.8      1.093      1.693
REMARK  Name = 
REMARK  6 active torsions:
REMARK  status: ('A' for Active; 'I' for Inactive)
REMARK    1  A    between atoms: C_1  and  O_2
REMARK    2  A    between atoms: O_2  and  C_3
REMARK    3  A    between atoms: C_6  and  N_7
REMARK    4  A    between atoms: N_10  and  C_11
REMARK    5  A    between atoms: C_14  and  O_15
REMARK    6  A    between atoms: O_15  and  C_16
REMARK                            x       y       z     vdW  Elec       q    Type
REMARK                         _______ _______ _______ _____ _____    ______ ____
ROOT
ATOM      1  N   UNL     1       9.557  10.130  19.698  0.00  0.00    +0.000 N 
ATOM      2  C   UNL     1       8.941   9.393  18.702  0.00  0.00    +0.000 C 
ATOM      3  O   UNL     1       8.535   9.823  17.627  0.00  0.00    +0.000 OA
ATOM      4  N   UNL     1       8.777   8.070  19.050  0.00  0.00    +0.000 N 
ATOM      5  H   UNL     1       9.828   9.628  20.532  0.00  0.00    +0.000 HD
ATOM      6  H   UNL     1       9.044   7.794  19.982  0.00  0.00    +0.000 HD
ENDROOT
BRANCH   1  10
ATOM      7  C   UNL     1      10.463  14.274  19.629  0.00  0.00    +0.000 A 
ATOM      8  C   UNL     1       9.238  13.835  20.122  0.00  0.00    +0.000 A 
ATOM      9  C   UNL     1       8.925  12.474  20.159  0.00  0.00    +0.000 A 
ATOM     10  C   UNL     1       9.826  11.518  19.686  0.00  0.00    +0.000 A 
ATOM     11  C   UNL     1      11.054  11.965  19.174  0.00  0.00    +0.000 A 
ATOM     12  C   UNL     1      11.372  13.336  19.143  0.00  0.00    +0.000 A 
BRANCH   7  14
ATOM     13  C   UNL     1       9.438  16.407  19.620  0.00  0.00    +0.000 C 
ATOM     14  O   UNL     1      10.626  15.629  19.638  0.00  0.00    +0.000 OA
ENDBRANCH   7  14
ENDBRANCH   1  10
BRANCH   4  15
ATOM     15  C   UNL     1       7.926   7.138  18.311  0.00  0.00    +0.000 C 
ATOM     16  C   UNL     1       7.695   5.834  19.087  0.00  0.00    +0.000 C 
ATOM     17  C   UNL     1       7.016   4.822  18.176  0.00  0.00    +0.000 C 
ATOM     18  C   UNL     1       5.624   5.336  17.786  0.00  0.00    +0.000 C 
ATOM     19  C   UNL     1       5.768   6.670  17.028  0.00  0.00    +0.000 C 
ATOM     20  C   UNL     1       6.581   7.712  17.826  0.00  0.00    +0.000 C 
BRANCH  18  21
ATOM     21  O   UNL     1       4.952   4.371  16.962  0.00  0.00    +0.000 OA
BRANCH  21  22
ATOM     22  C   UNL     1       3.743   3.890  17.403  0.00  0.00    +0.000 A 
ATOM     23  C   UNL     1       2.587   4.653  17.614  0.00  0.00    +0.000 A 
ATOM     24  C   UNL     1       1.415   4.059  18.093  0.00  0.00    +0.000 A 
ATOM     25  C   UNL     1       1.396   2.698  18.355  0.00  0.00    +0.000 A 
ATOM     26  F   UNL     1       0.275   2.132  18.821  0.00  0.00    +0.000 F 
ATOM     27  C   UNL     1       2.526   1.918  18.141  0.00  0.00    +0.000 A 
ATOM     28  C   UNL     1       3.704   2.514  17.667  0.00  0.00    +0.000 A 
ENDBRANCH  21  22
ENDBRANCH  18  21
ENDBRANCH   4  15
TORSDOF 5
ENDMDL
MODEL 7
REMARK VINA RESULT:      -7.7      0.837      1.486
REMARK  Name = 
REMARK  6 active torsions:
REMARK  status: ('A' for Active; 'I' for Inactive)
REMARK    1  A    between atoms: C_1  and  O_2
REMARK    2  A    between atoms: O_2  and  C_3
REMARK    3  A    between atoms: C_6  and  N_7
REMARK    4  A    between atoms: N_10  and  C_11
REMARK    5  A    between atoms: C_14  and  O_15
REMARK    6  A    between atoms: O_15  and  C_16
REMARK                            x       y       z     vdW  Elec       q    Type
REMARK                         _______ _______ _______ _____ _____    ______ ____
ROOT
ATOM      1  N   UNL     1       9.117   8.998  19.181  0.00  0.00    +0.000 N 
ATOM      2  C   UNL     1       8.274   8.247  18.381  0.00  0.00    +0.000 C 
ATOM      3  O   UNL     1       7.578   8.670  17.464  0.00  0.00    +0.000 OA
ATOM      4  N   UNL     1       8.249   6.919  18.742  0.00  0.00    +0.000 N 
ATOM      5  H   UNL     1       9.620   8.501  19.902  0.00  0.00    +0.000 HD
ATOM      6  H   UNL     1       8.769   6.646  19.563  0.00  0.00    +0.000 HD
ENDROOT
BRANCH   1  10
ATOM      7  C   UNL     1       9.807  13.174  18.886  0.00  0.00    +0.000 A 
ATOM      8  C   UNL     1       9.314  12.630  20.068  0.00  0.00    +0.000 A 
ATOM      9  C   UNL     1       9.088  11.256  20.185  0.00  0.00    +0.000 A 
ATOM     10  C   UNL     1       9.332  10.395  19.115  0.00  0.00    +0.000 A 
ATOM     11  C   UNL     1       9.815  10.949  17.918  0.00  0.00    +0.000 A 
ATOM     12  C   UNL     1      10.050  12.332  17.802  0.00  0.00    +0.000 A 
BRANCH   7  14
ATOM     13  C   UNL     1       9.071  15.281  18.099  0.00  0.00    +0.000 C 
ATOM     14  O   UNL     1       9.965  14.530  18.907  0.00  0.00    +0.000 OA
ENDBRANCH   7  14
ENDBRANCH   1  10
BRANCH   4  15
ATOM     15  C   UNL     1       7.256   5.964  18.251  0.00  0.00    +0.000 C 
ATOM     16  C   UNL     1       5.829   6.520  18.352  0.00  0.00    +0.000 C 
ATOM     17  C   UNL     1       4.835   5.404  18.060  0.00  0.00    +0.000 C 
ATOM     18  C   UNL     1       5.006   4.931  16.611  0.00  0.00    +0.000 C 
ATOM     19  C   UNL     1       6.435   4.387  16.418  0.00  0.00    +0.000 C 
ATOM     20  C   UNL     1       7.512   5.411  16.837  0.00  0.00    +0.000 C 
BRANCH  18  21
ATOM     21  O   UNL     1       4.045   3.908  16.307  0.00  0.00    +0.000 OA
BRANCH  21  22
ATOM     22  C   UNL     1       3.166   3.546  17.300  0.00  0.00    +0.000 A 
ATOM     23  C   UNL     1       2.007   4.245  17.660  0.00  0.00    +0.000 A 
ATOM     24  C   UNL     1       1.198   3.796  18.709  0.00  0.00    +0.000 A 
ATOM     25  C   UNL     1       1.545   2.643  19.396  0.00  0.00    +0.000 A 
ATOM     26  F   UNL     1       0.774   2.218  20.405  0.00  0.00    +0.000 F 
ATOM     27  C   UNL     1       2.683   1.926  19.048  0.00  0.00    +0.000 A 
ATOM     28  C   UNL     1       3.499   2.378  18.000  0.00  0.00    +0.000 A 
ENDBRANCH  21  22
ENDBRANCH  18  21
ENDBRANCH   4  15
TORSDOF 5
ENDMDL
MODEL 8
REMARK VINA RESULT:      -7.4      6.938      8.319
REMARK  Name = 
REMARK  6 active torsions:
REMARK  status: ('A' for Active; 'I' for Inactive)
REMARK    1  A    between atoms: C_1  and  O_2
REMARK    2  A    between atoms: O_2  and  C_3
REMARK    3  A    between atoms: C_6  and  N_7
REMARK    4  A    between atoms: N_10  and  C_11
REMARK    5  A    between atoms: C_14  and  O_15
REMARK    6  A    between atoms: O_15  and  C_16
REMARK                            x       y       z     vdW  Elec       q    Type
REMARK                         _______ _______ _______ _____ _____    ______ ____
ROOT
ATOM      1  N   UNL     1      -0.408  10.097  21.330  0.00  0.00    +0.000 N 
ATOM      2  C   UNL     1       0.695   9.275  21.478  0.00  0.00    +0.000 C 
ATOM      3  O   UNL     1       1.695   9.518  22.146  0.00  0.00    +0.000 OA
ATOM      4  N   UNL     1       0.591   8.115  20.745  0.00  0.00    +0.000 N 
ATOM      5  H   UNL     1      -1.152   9.755  20.738  0.00  0.00    +0.000 HD
ATOM      6  H   UNL     1      -0.210   8.012  20.141  0.00  0.00    +0.000 HD
ENDROOT
BRANCH   1  10
ATOM      7  C   UNL     1      -1.059  13.899  23.096  0.00  0.00    +0.000 A 
ATOM      8  C   UNL     1      -0.121  13.753  22.078  0.00  0.00    +0.000 A 
ATOM      9  C   UNL     1       0.101  12.510  21.480  0.00  0.00    +0.000 A 
ATOM     10  C   UNL     1      -0.598  11.377  21.900  0.00  0.00    +0.000 A 
ATOM     11  C   UNL     1      -1.533  11.524  22.937  0.00  0.00    +0.000 A 
ATOM     12  C   UNL     1      -1.762  12.779  23.535  0.00  0.00    +0.000 A 
BRANCH   7  14
ATOM     13  C   UNL     1      -1.348  15.272  25.002  0.00  0.00    +0.000 C 
ATOM     14  O   UNL     1      -1.161  15.165  23.598  0.00  0.00    +0.000 OA
ENDBRANCH   7  14
ENDBRANCH   1  10
BRANCH   4  15
ATOM     15  C   UNL     1       1.711   7.206  20.503  0.00  0.00    +0.000 C 
ATOM     16  C   UNL     1       1.315   5.739  20.718  0.00  0.00    +0.000 C 
ATOM     17  C   UNL     1       2.567   4.873  20.693  0.00  0.00    +0.000 C 
ATOM     18  C   UNL     1       3.209   4.941  19.301  0.00  0.00    +0.000 C 
ATOM     19  C   UNL     1       3.606   6.397  18.994  0.00  0.00    +0.000 C 
ATOM     20  C   UNL     1       2.418   7.372  19.145  0.00  0.00    +0.000 C 
BRANCH  18  21
ATOM     21  O   UNL     1       4.368   4.093  19.248  0.00  0.00    +0.000 OA
BRANCH  21  22
ATOM     22  C   UNL     1       5.215   4.242  18.176  0.00  0.00    +0.000 A 
ATOM     23  C   UNL     1       6.546   4.672  18.239  0.00  0.00    +0.000 A 
ATOM     24  C   UNL     1       7.309   4.812  17.076  0.00  0.00    +0.000 A 
ATOM     25  C   UNL     1       6.742   4.515  15.846  0.00  0.00    +0.000 A 
ATOM     26  F   UNL     1       7.471   4.656  14.732  0.00  0.00    +0.000 F 
ATOM     27  C   UNL     1       5.428   4.073  15.760  0.00  0.00    +0.000 A 
ATOM     28  C   UNL     1       4.659   3.938  16.926  0.00  0.00    +0.000 A 
ENDBRANCH  21  22
ENDBRANCH  18  21
ENDBRANCH   4  15
TORSDOF 5
ENDMDL
MODEL 9
REMARK VINA RESULT:      -7.4      6.206      7.987
REMARK  Name = 
REMARK  6 active torsions:
REMARK  status: ('A' for Active; 'I' for Inactive)
REMARK    1  A    between atoms: C_1  and  O_2
REMARK    2  A    between atoms: O_2  and  C_3
REMARK    3  A    between atoms: C_6  and  N_7
REMARK    4  A    between atoms: N_10  and  C_11
REMARK    5  A    between atoms: C_14  and  O_15
REMARK    6  A    between atoms: O_15  and  C_16
REMARK                            x       y       z     vdW  Elec       q    Type
REMARK                         _______ _______ _______ _____ _____    ______ ____
ROOT
ATOM      1  N   UNL     1       1.442   7.473  21.047  0.00  0.00    +0.000 N 
ATOM      2  C   UNL     1       2.340   7.034  20.090  0.00  0.00    +0.000 C 
ATOM      3  O   UNL     1       2.681   7.645  19.082  0.00  0.00    +0.000 OA
ATOM      4  N   UNL     1       2.818   5.771  20.355  0.00  0.00    +0.000 N 
ATOM      5  H   UNL     1       1.261   6.847  21.819  0.00  0.00    +0.000 HD
ATOM      6  H   UNL     1       2.432   5.279  21.147  0.00  0.00    +0.000 HD
ENDROOT
BRANCH   1  10
ATOM      7  C   UNL     1      -0.714  11.125  21.156  0.00  0.00    +0.000 A 
ATOM      8  C   UNL     1      -0.239  10.631  19.945  0.00  0.00    +0.000 A 
ATOM      9  C   UNL     1       0.466   9.426  19.890  0.00  0.00    +0.000 A 
ATOM     10  C   UNL     1       0.730   8.695  21.049  0.00  0.00    +0.000 A 
ATOM     11  C   UNL     1       0.264   9.205  22.271  0.00  0.00    +0.000 A 
ATOM     12  C   UNL     1      -0.453  10.415  22.327  0.00  0.00    +0.000 A 
BRANCH   7  14
ATOM     13  C   UNL     1      -2.072  12.742  22.225  0.00  0.00    +0.000 C 
ATOM     14  O   UNL     1      -1.371  12.318  21.064  0.00  0.00    +0.000 OA
ENDBRANCH   7  14
ENDBRANCH   1  10
BRANCH   4  15
ATOM     15  C   UNL     1       3.559   4.965  19.386  0.00  0.00    +0.000 C 
ATOM     16  C   UNL     1       2.827   4.870  18.040  0.00  0.00    +0.000 C 
ATOM     17  C   UNL     1       3.516   3.831  17.166  0.00  0.00    +0.000 C 
ATOM     18  C   UNL     1       4.941   4.299  16.842  0.00  0.00    +0.000 C 
ATOM     19  C   UNL     1       5.737   4.453  18.153  0.00  0.00    +0.000 C 
ATOM     20  C   UNL     1       5.026   5.379  19.164  0.00  0.00    +0.000 C 
BRANCH  18  21
ATOM     21  O   UNL     1       5.590   3.350  15.981  0.00  0.00    +0.000 OA
BRANCH  21  22
ATOM     22  C   UNL     1       6.059   3.806  14.772  0.00  0.00    +0.000 A 
ATOM     23  C   UNL     1       5.638   3.364  13.512  0.00  0.00    +0.000 A 
ATOM     24  C   UNL     1       6.207   3.883  12.345  0.00  0.00    +0.000 A 
ATOM     25  C   UNL     1       7.194   4.852  12.437  0.00  0.00    +0.000 A 
ATOM     26  F   UNL     1       7.743   5.343  11.319  0.00  0.00    +0.000 F 
ATOM     27  C   UNL     1       7.618   5.317  13.676  0.00  0.00    +0.000 A 
ATOM     28  C   UNL     1       7.052   4.792  14.848  0.00  0.00    +0.000 A 
ENDBRANCH  21  22
ENDBRANCH  18  21
ENDBRANCH   4  15
TORSDOF 5
ENDMDL
