MODEL 1
REMARK VINA RESULT:      -7.7      0.000      0.000
REMARK  Name = 
REMARK  2 active torsions:
REMARK  status: ('A' for Active; 'I' for Inactive)
REMARK    1  A    between atoms: C_2  and  C_16
REMARK    2  A    between atoms: C_6  and  N_7
REMARK                            x       y       z     vdW  Elec       q    Type
REMARK                         _______ _______ _______ _____ _____    ______ ____
ROOT
ATOM      1  O   UNL     1       1.710   8.811  18.779  0.00  0.00    +0.000 OA
ATOM      2  C   UNL     1       1.583   8.403  19.929  0.00  0.00    +0.000 C 
ATOM      3  N   UNL     1       2.008   7.173  20.395  0.00  0.00    +0.000 N 
ATOM      4  C   UNL     1       2.573   6.223  19.541  0.00  0.00    +0.000 A 
ATOM      5  C   UNL     1       3.665   6.540  18.760  0.00  0.00    +0.000 A 
ATOM      6  C   UNL     1       4.198   5.554  17.959  0.00  0.00    +0.000 A 
ATOM      7  N   UNL     1       3.600   4.348  17.913  0.00  0.00    +0.000 NA
ATOM      8  C   UNL     1       2.545   4.140  18.709  0.00  0.00    +0.000 A 
ATOM      9  N   UNL     1       2.020   5.010  19.578  0.00  0.00    +0.000 NA
ATOM     10  H   UNL     1       1.508   6.809  21.197  0.00  0.00    +0.000 HD
ENDROOT
BRANCH   6  11
ATOM     11  N   UNL     1       5.375   5.722  17.253  0.00  0.00    +0.000 N 
ATOM     12  C   UNL     1       5.520   5.398  15.825  0.00  0.00    +0.000 C 
ATOM     13  C   UNL     1       6.502   4.229  15.643  0.00  0.00    +0.000 C 
ATOM     14  O   UNL     1       7.762   4.485  16.284  0.00  0.00    +0.000 OA
ATOM     15  C   UNL     1       7.567   4.683  17.695  0.00  0.00    +0.000 C 
ATOM     16  C   UNL     1       6.648   5.881  17.968  0.00  0.00    +0.000 C 
ENDBRANCH   6  11
BRANCH   2  17
ATOM     17  C   UNL     1       0.875   9.234  20.938  0.00  0.00    +0.000 A 
ATOM     18  C   UNL     1       1.130   9.044  22.289  0.00  0.00    +0.000 A 
ATOM     19  N   UNL     1       0.453   9.717  23.255  0.00  0.00    +0.000 NA
ATOM     20  C   UNL     1      -0.491  10.577  22.807  0.00  0.00    +0.000 A 
ATOM     21  C   UNL     1      -0.733  10.780  21.455  0.00  0.00    +0.000 A 
ATOM     22  N   UNL     1      -0.050  10.128  20.484  0.00  0.00    +0.000 NA
ENDBRANCH   2  17
TORSDOF 2
ENDMDL
MODEL 2
REMARK VINA RESULT:      -7.7      0.917      1.440
REMARK  Name = 
REMARK  2 active torsions:
REMARK  status: ('A' for Active; 'I' for Inactive)
REMARK    1  A    between atoms: C_2  and  C_16
REMARK    2  A    between atoms: C_6  and  N_7
REMARK                            x       y       z     vdW  Elec       q    Type
REMARK                         _______ _______ _______ _____ _____    ______ ____
ROOT
ATOM      1  O   UNL     1       2.122   8.045  18.666  0.00  0.00    +0.000 OA
ATOM      2  C   UNL     1       1.898   7.832  19.853  0.00  0.00    +0.000 C 
ATOM      3  N   UNL     1       2.232   6.679  20.538  0.00  0.00    +0.000 N 
ATOM      4  C   UNL     1       2.807   5.584  19.889  0.00  0.00    +0.000 A 
ATOM      5  C   UNL     1       3.964   5.732  19.152  0.00  0.00    +0.000 A 
ATOM      6  C   UNL     1       4.503   4.611  18.559  0.00  0.00    +0.000 A 
ATOM      7  N   UNL     1       3.852   3.436  18.659  0.00  0.00    +0.000 NA
ATOM      8  C   UNL     1       2.737   3.397  19.397  0.00  0.00    +0.000 A 
ATOM      9  N   UNL     1       2.197   4.414  20.076  0.00  0.00    +0.000 NA
ATOM     10  H   UNL     1       1.662   6.466  21.347  0.00  0.00    +0.000 HD
ENDROOT
BRANCH   6  11
ATOM     11  N   UNL     1       5.732   4.620  17.925  0.00  0.00    +0.000 N 
ATOM     12  C   UNL     1       6.898   5.365  18.423  0.00  0.00    +0.000 C 
ATOM     13  C   UNL     1       7.270   6.488  17.441  0.00  0.00    +0.000 C 
ATOM     14  O   UNL     1       7.458   5.991  16.107  0.00  0.00    +0.000 OA
ATOM     15  C   UNL     1       6.248   5.373  15.635  0.00  0.00    +0.000 C 
ATOM     16  C   UNL     1       5.842   4.190  16.524  0.00  0.00    +0.000 C 
ENDBRANCH   6  11
BRANCH   2  17
ATOM     17  C   UNL     1       1.164   8.840  20.663  0.00  0.00    +0.000 A 
ATOM     18  C   UNL     1       1.325   8.867  22.041  0.00  0.00    +0.000 A 
ATOM     19  N   UNL     1       0.618   9.711  22.835  0.00  0.00    +0.000 NA
ATOM     20  C   UNL     1      -0.259  10.514  22.190  0.00  0.00    +0.000 A 
ATOM     21  C   UNL     1      -0.407  10.499  20.810  0.00  0.00    +0.000 A 
ATOM     22  N   UNL     1       0.308   9.675  20.007  0.00  0.00    +0.000 NA
ENDBRANCH   2  17
TORSDOF 2
ENDMDL
MODEL 3
REMARK VINA RESULT:      -7.5      1.123      1.846
REMARK  Name = 
REMARK  2 active torsions:
REMARK  status: ('A' for Active; 'I' for Inactive)
REMARK    1  A    between atoms: C_2  and  C_16
REMARK    2  A    between atoms: C_6  and  N_7
REMARK                            x       y       z     vdW  Elec       q    Type
REMARK                         _______ _______ _______ _____ _____    ______ ____
ROOT
ATOM      1  O   UNL     1       2.156   7.827  18.557  0.00  0.00    +0.000 OA
ATOM      2  C   UNL     1       1.978   7.653  19.758  0.00  0.00    +0.000 C 
ATOM      3  N   UNL     1       2.403   6.555  20.481  0.00  0.00    +0.000 N 
ATOM      4  C   UNL     1       3.030   5.471  19.862  0.00  0.00    +0.000 A 
ATOM      5  C   UNL     1       4.155   5.658  19.086  0.00  0.00    +0.000 A 
ATOM      6  C   UNL     1       4.748   4.548  18.525  0.00  0.00    +0.000 A 
ATOM      7  N   UNL     1       4.178   3.340  18.694  0.00  0.00    +0.000 NA
ATOM      8  C   UNL     1       3.087   3.263  19.467  0.00  0.00    +0.000 A 
ATOM      9  N   UNL     1       2.501   4.274  20.117  0.00  0.00    +0.000 NA
ATOM     10  H   UNL     1       1.870   6.343  21.316  0.00  0.00    +0.000 HD
ENDROOT
BRANCH   6  11
ATOM     11  N   UNL     1       5.957   4.606  17.855  0.00  0.00    +0.000 N 
ATOM     12  C   UNL     1       7.087   5.443  18.287  0.00  0.00    +0.000 C 
ATOM     13  C   UNL     1       7.359   6.543  17.248  0.00  0.00    +0.000 C 
ATOM     14  O   UNL     1       7.543   6.002  15.931  0.00  0.00    +0.000 OA
ATOM     15  C   UNL     1       6.361   5.290  15.521  0.00  0.00    +0.000 C 
ATOM     16  C   UNL     1       6.056   4.124  16.471  0.00  0.00    +0.000 C 
ENDBRANCH   6  11
BRANCH   2  17
ATOM     17  C   UNL     1       1.203   8.648  20.546  0.00  0.00    +0.000 A 
ATOM     18  C   UNL     1       0.642   9.746  19.908  0.00  0.00    +0.000 A 
ATOM     19  N   UNL     1      -0.004  10.726  20.590  0.00  0.00    +0.000 NA
ATOM     20  C   UNL     1      -0.053  10.561  21.932  0.00  0.00    +0.000 A 
ATOM     21  C   UNL     1       0.493   9.454  22.567  0.00  0.00    +0.000 A 
ATOM     22  N   UNL     1       1.122   8.461  21.894  0.00  0.00    +0.000 NA
ENDBRANCH   2  17
TORSDOF 2
ENDMDL
MODEL 4
REMARK VINA RESULT:      -7.3      0.616      1.053
REMARK  Name = 
REMARK  2 active torsions:
REMARK  status: ('A' for Active; 'I' for Inactive)
REMARK    1  A    between atoms: C_2  and  C_16
REMARK    2  A    between atoms: C_6  and  N_7
REMARK                            x       y       z     vdW  Elec       q    Type
REMARK                         _______ _______ _______ _____ _____    ______ ____
ROOT
ATOM      1  O   UNL     1       1.693   8.755  18.759  0.00  0.00    +0.000 OA
ATOM      2  C   UNL     1       1.521   8.306  19.888  0.00  0.00    +0.000 C 
ATOM      3  N   UNL     1       1.939   7.065  20.330  0.00  0.00    +0.000 N 
ATOM      4  C   UNL     1       2.550   6.150  19.468  0.00  0.00    +0.000 A 
ATOM      5  C   UNL     1       3.671   6.504  18.746  0.00  0.00    +0.000 A 
ATOM      6  C   UNL     1       4.248   5.551  17.936  0.00  0.00    +0.000 A 
ATOM      7  N   UNL     1       3.665   4.343  17.822  0.00  0.00    +0.000 NA
ATOM      8  C   UNL     1       2.579   4.097  18.565  0.00  0.00    +0.000 A 
ATOM      9  N   UNL     1       2.009   4.932  19.439  0.00  0.00    +0.000 NA
ATOM     10  H   UNL     1       1.409   6.667  21.095  0.00  0.00    +0.000 HD
ENDROOT
BRANCH   6  11
ATOM     11  N   UNL     1       5.452   5.754  17.286  0.00  0.00    +0.000 N 
ATOM     12  C   UNL     1       5.645   5.539  15.844  0.00  0.00    +0.000 C 
ATOM     13  C   UNL     1       6.618   4.373  15.607  0.00  0.00    +0.000 C 
ATOM     14  O   UNL     1       7.857   4.559  16.310  0.00  0.00    +0.000 OA
ATOM     15  C   UNL     1       7.612   4.650  17.724  0.00  0.00    +0.000 C 
ATOM     16  C   UNL     1       6.700   5.838  18.057  0.00  0.00    +0.000 C 
ENDBRANCH   6  11
BRANCH   2  17
ATOM     17  C   UNL     1       0.762   9.095  20.894  0.00  0.00    +0.000 A 
ATOM     18  C   UNL     1       0.031  10.204  20.491  0.00  0.00    +0.000 A 
ATOM     19  N   UNL     1      -0.612  11.007  21.377  0.00  0.00    +0.000 NA
ATOM     20  C   UNL     1      -0.481  10.656  22.677  0.00  0.00    +0.000 A 
ATOM     21  C   UNL     1       0.237   9.537  23.078  0.00  0.00    +0.000 A 
ATOM     22  N   UNL     1       0.865   8.718  22.200  0.00  0.00    +0.000 NA
ENDBRANCH   2  17
TORSDOF 2
ENDMDL
MODEL 5
REMARK VINA RESULT:      -7.3      0.712      1.015
REMARK  Name = 
REMARK  2 active torsions:
REMARK  status: ('A' for Active; 'I' for Inactive)
REMARK    1  A    between atoms: C_2  and  C_16
REMARK    2  A    between atoms: C_6  and  N_7
REMARK                            x       y       z     vdW  Elec       q    Type
REMARK                         _______ _______ _______ _____ _____    ______ ____
ROOT
ATOM      1  O   UNL     1       1.566   8.676  18.760  0.00  0.00    +0.000 OA
ATOM      2  C   UNL     1       1.492   8.326  19.933  0.00  0.00    +0.000 C 
ATOM      3  N   UNL     1       1.913   7.109  20.435  0.00  0.00    +0.000 N 
ATOM      4  C   UNL     1       2.406   6.105  19.597  0.00  0.00    +0.000 A 
ATOM      5  C   UNL     1       3.461   6.355  18.744  0.00  0.00    +0.000 A 
ATOM      6  C   UNL     1       3.924   5.319  17.964  0.00  0.00    +0.000 A 
ATOM      7  N   UNL     1       3.295   4.129  18.008  0.00  0.00    +0.000 NA
ATOM      8  C   UNL     1       2.281   3.986  18.870  0.00  0.00    +0.000 A 
ATOM      9  N   UNL     1       1.827   4.910  19.723  0.00  0.00    +0.000 NA
ATOM     10  H   UNL     1       1.449   6.795  21.278  0.00  0.00    +0.000 HD
ENDROOT
BRANCH   6  11
ATOM     11  N   UNL     1       5.064   5.422  17.188  0.00  0.00    +0.000 N 
ATOM     12  C   UNL     1       6.052   4.341  17.047  0.00  0.00    +0.000 C 
ATOM     13  C   UNL     1       7.393   4.764  17.669  0.00  0.00    +0.000 C 
ATOM     14  O   UNL     1       7.859   6.014  17.135  0.00  0.00    +0.000 OA
ATOM     15  C   UNL     1       6.900   7.052  17.403  0.00  0.00    +0.000 C 
ATOM     16  C   UNL     1       5.545   6.740  16.754  0.00  0.00    +0.000 C 
ENDBRANCH   6  11
BRANCH   2  17
ATOM     17  C   UNL     1       0.862   9.222  20.938  0.00  0.00    +0.000 A 
ATOM     18  C   UNL     1       1.099   9.017  22.291  0.00  0.00    +0.000 A 
ATOM     19  N   UNL     1       0.486   9.752  23.252  0.00  0.00    +0.000 NA
ATOM     20  C   UNL     1      -0.378  10.691  22.800  0.00  0.00    +0.000 A 
ATOM     21  C   UNL     1      -0.601  10.908  21.448  0.00  0.00    +0.000 A 
ATOM     22  N   UNL     1       0.021  10.192  20.480  0.00  0.00    +0.000 NA
ENDBRANCH   2  17
TORSDOF 2
ENDMDL
MODEL 6
REMARK VINA RESULT:      -7.1      1.154      1.249
REMARK  Name = 
REMARK  2 active torsions:
REMARK  status: ('A' for Active; 'I' for Inactive)
REMARK    1  A    between atoms: C_2  and  C_16
REMARK    2  A    between atoms: C_6  and  N_7
REMARK                            x       y       z     vdW  Elec       q    Type
REMARK                         _______ _______ _______ _____ _____    ______ ____
ROOT
ATOM      1  O   UNL     1       1.799   9.289  17.483  0.00  0.00    +0.000 OA
ATOM      2  C   UNL     1       1.563   9.057  18.665  0.00  0.00    +0.000 C 
ATOM      3  N   UNL     1       1.910   7.903  19.340  0.00  0.00    +0.000 N 
ATOM      4  C   UNL     1       2.515   6.827  18.686  0.00  0.00    +0.000 A 
ATOM      5  C   UNL     1       3.678   7.006  17.966  0.00  0.00    +0.000 A 
ATOM      6  C   UNL     1       4.246   5.903  17.367  0.00  0.00    +0.000 A 
ATOM      7  N   UNL     1       3.618   4.715  17.444  0.00  0.00    +0.000 NA
ATOM      8  C   UNL     1       2.493   4.645  18.166  0.00  0.00    +0.000 A 
ATOM      9  N   UNL     1       1.925   5.643  18.850  0.00  0.00    +0.000 NA
ATOM     10  H   UNL     1       1.333   7.669  20.139  0.00  0.00    +0.000 HD
ENDROOT
BRANCH   6  11
ATOM     11  N   UNL     1       5.483   5.944  16.749  0.00  0.00    +0.000 N 
ATOM     12  C   UNL     1       5.713   5.520  15.359  0.00  0.00    +0.000 C 
ATOM     13  C   UNL     1       6.617   4.277  15.326  0.00  0.00    +0.000 C 
ATOM     14  O   UNL     1       7.840   4.486  16.051  0.00  0.00    +0.000 OA
ATOM     15  C   UNL     1       7.552   4.787  17.428  0.00  0.00    +0.000 C 
ATOM     16  C   UNL     1       6.706   6.061  17.555  0.00  0.00    +0.000 C 
ENDBRANCH   6  11
BRANCH   2  17
ATOM     17  C   UNL     1       0.799  10.041  19.477  0.00  0.00    +0.000 A 
ATOM     18  C   UNL     1       1.143  10.254  20.805  0.00  0.00    +0.000 A 
ATOM     19  N   UNL     1       0.429  11.078  21.613  0.00  0.00    +0.000 NA
ATOM     20  C   UNL     1      -0.644  11.667  21.037  0.00  0.00    +0.000 A 
ATOM     21  C   UNL     1      -0.977  11.467  19.704  0.00  0.00    +0.000 A 
ATOM     22  N   UNL     1      -0.260  10.662  18.884  0.00  0.00    +0.000 NA
ENDBRANCH   2  17
TORSDOF 2
ENDMDL
MODEL 7
REMARK VINA RESULT:      -7.1      1.021      1.247
REMARK  Name = 
REMARK  2 active torsions:
REMARK  status: ('A' for Active; 'I' for Inactive)
REMARK    1  A    between atoms: C_2  and  C_16
REMARK    2  A    between atoms: C_6  and  N_7
REMARK                            x       y       z     vdW  Elec       q    Type
REMARK                         _______ _______ _______ _____ _____    ______ ____
ROOT
ATOM      1  O   UNL     1       1.309   8.803  19.122  0.00  0.00    +0.000 OA
ATOM      2  C   UNL     1       1.193   8.540  20.314  0.00  0.00    +0.000 C 
ATOM      3  N   UNL     1       1.601   7.367  20.920  0.00  0.00    +0.000 N 
ATOM      4  C   UNL     1       2.133   6.309  20.179  0.00  0.00    +0.000 A 
ATOM      5  C   UNL     1       3.219   6.506  19.351  0.00  0.00    +0.000 A 
ATOM      6  C   UNL     1       3.720   5.420  18.668  0.00  0.00    +0.000 A 
ATOM      7  N   UNL     1       3.097   4.230  18.775  0.00  0.00    +0.000 NA
ATOM      8  C   UNL     1       2.051   4.141  19.606  0.00  0.00    +0.000 A 
ATOM      9  N   UNL     1       1.558   5.121  20.370  0.00  0.00    +0.000 NA
ATOM     10  H   UNL     1       1.108   7.112  21.766  0.00  0.00    +0.000 HD
ENDROOT
BRANCH   6  11
ATOM     11  N   UNL     1       4.888   5.475  17.930  0.00  0.00    +0.000 N 
ATOM     12  C   UNL     1       5.289   6.643  17.129  0.00  0.00    +0.000 C 
ATOM     13  C   UNL     1       5.295   6.283  15.634  0.00  0.00    +0.000 C 
ATOM     14  O   UNL     1       6.099   5.124  15.366  0.00  0.00    +0.000 OA
ATOM     15  C   UNL     1       5.589   3.991  16.091  0.00  0.00    +0.000 C 
ATOM     16  C   UNL     1       5.615   4.241  17.605  0.00  0.00    +0.000 C 
ENDBRANCH   6  11
BRANCH   2  17
ATOM     17  C   UNL     1       0.518   9.502  21.225  0.00  0.00    +0.000 A 
ATOM     18  C   UNL     1       0.558   9.297  22.598  0.00  0.00    +0.000 A 
ATOM     19  N   UNL     1      -0.108  10.096  23.469  0.00  0.00    +0.000 NA
ATOM     20  C   UNL     1      -0.820  11.099  22.904  0.00  0.00    +0.000 A 
ATOM     21  C   UNL     1      -0.846  11.314  21.533  0.00  0.00    +0.000 A 
ATOM     22  N   UNL     1      -0.169  10.534  20.657  0.00  0.00    +0.000 NA
ENDBRANCH   2  17
TORSDOF 2
ENDMDL
MODEL 8
REMARK VINA RESULT:      -6.9      1.458      2.040
REMARK  Name = 
REMARK  2 active torsions:
REMARK  status: ('A' for Active; 'I' for Inactive)
REMARK    1  A    between atoms: C_2  and  C_16
REMARK    2  A    between atoms: C_6  and  N_7
REMARK                            x       y       z     vdW  Elec       q    Type
REMARK                         _______ _______ _______ _____ _____    ______ ____
ROOT
ATOM      1  O   UNL     1       2.148   8.557  17.363  0.00  0.00    +0.000 OA
ATOM      2  C   UNL     1       1.890   8.656  18.559  0.00  0.00    +0.000 C 
ATOM      3  N   UNL     1       2.113   7.679  19.511  0.00  0.00    +0.000 N 
ATOM      4  C   UNL     1       2.601   6.417  19.163  0.00  0.00    +0.000 A 
ATOM      5  C   UNL     1       3.777   6.289  18.452  0.00  0.00    +0.000 A 
ATOM      6  C   UNL     1       4.225   5.019  18.163  0.00  0.00    +0.000 A 
ATOM      7  N   UNL     1       3.474   3.959  18.519  0.00  0.00    +0.000 NA
ATOM      8  C   UNL     1       2.349   4.189  19.207  0.00  0.00    +0.000 A 
ATOM      9  N   UNL     1       1.890   5.380  19.603  0.00  0.00    +0.000 NA
ATOM     10  H   UNL     1       1.516   7.715  20.328  0.00  0.00    +0.000 HD
ENDROOT
BRANCH   6  11
ATOM     11  N   UNL     1       5.459   4.776  17.587  0.00  0.00    +0.000 N 
ATOM     12  C   UNL     1       6.714   5.371  18.072  0.00  0.00    +0.000 C 
ATOM     13  C   UNL     1       7.291   6.325  17.015  0.00  0.00    +0.000 C 
ATOM     14  O   UNL     1       7.439   5.684  15.739  0.00  0.00    +0.000 OA
ATOM     15  C   UNL     1       6.161   5.223  15.267  0.00  0.00    +0.000 C 
ATOM     16  C   UNL     1       5.542   4.206  16.236  0.00  0.00    +0.000 C 
ENDBRANCH   6  11
BRANCH   2  17
ATOM     17  C   UNL     1       1.234   9.885  19.078  0.00  0.00    +0.000 A 
ATOM     18  C   UNL     1       0.239   9.782  20.040  0.00  0.00    +0.000 A 
ATOM     19  N   UNL     1      -0.448  10.863  20.489  0.00  0.00    +0.000 NA
ATOM     20  C   UNL     1      -0.102  12.044  19.924  0.00  0.00    +0.000 A 
ATOM     21  C   UNL     1       0.905  12.148  18.975  0.00  0.00    +0.000 A 
ATOM     22  N   UNL     1       1.610  11.078  18.535  0.00  0.00    +0.000 NA
ENDBRANCH   2  17
TORSDOF 2
ENDMDL
MODEL 9
REMARK VINA RESULT:      -6.8      1.844      7.730
REMARK  Name = 
REMARK  2 active torsions:
REMARK  status: ('A' for Active; 'I' for Inactive)
REMARK    1  A    between atoms: C_2  and  C_16
REMARK    2  A    between atoms: C_6  and  N_7
REMARK                            x       y       z     vdW  Elec       q    Type
REMARK                         _______ _______ _______ _____ _____    ______ ____
ROOT
ATOM      1  O   UNL     1       5.511   6.467  18.216  0.00  0.00    +0.000 OA
ATOM      2  C   UNL     1       4.913   5.759  17.411  0.00  0.00    +0.000 C 
ATOM      3  N   UNL     1       3.601   5.342  17.529  0.00  0.00    +0.000 N 
ATOM      4  C   UNL     1       2.839   5.642  18.661  0.00  0.00    +0.000 A 
ATOM      5  C   UNL     1       2.682   6.947  19.079  0.00  0.00    +0.000 A 
ATOM      6  C   UNL     1       1.894   7.184  20.183  0.00  0.00    +0.000 A 
ATOM      7  N   UNL     1       1.366   6.142  20.852  0.00  0.00    +0.000 NA
ATOM      8  C   UNL     1       1.576   4.912  20.366  0.00  0.00    +0.000 A 
ATOM      9  N   UNL     1       2.252   4.602  19.255  0.00  0.00    +0.000 NA
ATOM     10  H   UNL     1       3.367   4.481  17.051  0.00  0.00    +0.000 HD
ENDROOT
BRANCH   6  11
ATOM     11  N   UNL     1       1.553   8.460  20.597  0.00  0.00    +0.000 N 
ATOM     12  C   UNL     1       1.267   8.812  21.996  0.00  0.00    +0.000 C 
ATOM     13  C   UNL     1      -0.206   9.222  22.149  0.00  0.00    +0.000 C 
ATOM     14  O   UNL     1      -0.570  10.264  21.231  0.00  0.00    +0.000 OA
ATOM     15  C   UNL     1      -0.373   9.819  19.877  0.00  0.00    +0.000 C 
ATOM     16  C   UNL     1       1.094   9.454  19.618  0.00  0.00    +0.000 C 
ENDBRANCH   6  11
BRANCH   2  17
ATOM     17  C   UNL     1       5.622   5.234  16.215  0.00  0.00    +0.000 A 
ATOM     18  C   UNL     1       6.935   5.612  15.969  0.00  0.00    +0.000 A 
ATOM     19  N   UNL     1       7.601   5.229  14.850  0.00  0.00    +0.000 NA
ATOM     20  C   UNL     1       6.893   4.461  13.990  0.00  0.00    +0.000 A 
ATOM     21  C   UNL     1       5.587   4.068  14.245  0.00  0.00    +0.000 A 
ATOM     22  N   UNL     1       4.919   4.429  15.367  0.00  0.00    +0.000 NA
ENDBRANCH   2  17
TORSDOF 2
ENDMDL
