MODEL 1
REMARK VINA RESULT:      -8.3      0.000      0.000
REMARK  Name = 
REMARK  7 active torsions:
REMARK  status: ('A' for Active; 'I' for Inactive)
REMARK    1  A    between atoms: C_1  and  O_2
REMARK    2  A    between atoms: O_2  and  C_3
REMARK    3  A    between atoms: C_9  and  C_10
REMARK    4  A    between atoms: N_13  and  C_14
REMARK    5  A    between atoms: C_19  and  C_20
REMARK    6  A    between atoms: C_20  and  S_21
REMARK    7  A    between atoms: S_21  and  C_22
REMARK                            x       y       z     vdW  Elec       q    Type
REMARK                         _______ _______ _______ _____ _____    ______ ____
ROOT
ATOM      1  C   UNL     1       3.454   6.576  18.259  0.00  0.00    +0.000 A 
ATOM      2  N   UNL     1       3.007   7.787  17.805  0.00  0.00    +0.000 NA
ATOM      3  C   UNL     1       2.151   8.480  18.586  0.00  0.00    +0.000 A 
ATOM      4  N   UNL     1       1.696   9.726  18.148  0.00  0.00    +0.000 N 
ATOM      5  N   UNL     1       1.744   8.040  19.789  0.00  0.00    +0.000 NA
ATOM      6  C   UNL     1       2.209   6.861  20.217  0.00  0.00    +0.000 A 
ATOM      7  C   UNL     1       3.082   6.093  19.501  0.00  0.00    +0.000 A 
ATOM      8  F   UNL     1       3.578   4.974  20.046  0.00  0.00    +0.000 F 
ATOM      9  H   UNL     1       1.978   9.906  17.194  0.00  0.00    +0.000 HD
ENDROOT
BRANCH   1  16
ATOM     10  C   UNL     1       4.285   4.548  16.929  0.00  0.00    +0.000 A 
ATOM     11  C   UNL     1       5.314   3.908  16.223  0.00  0.00    +0.000 A 
ATOM     12  C   UNL     1       6.491   4.590  15.945  0.00  0.00    +0.000 A 
ATOM     13  F   UNL     1       7.472   3.965  15.282  0.00  0.00    +0.000 F 
ATOM     14  C   UNL     1       6.656   5.909  16.332  0.00  0.00    +0.000 A 
ATOM     15  C   UNL     1       5.639   6.547  17.046  0.00  0.00    +0.000 A 
ATOM     16  C   UNL     1       4.442   5.880  17.392  0.00  0.00    +0.000 A 
BRANCH  10  18
ATOM     17  C   UNL     1       3.095   2.631  17.660  0.00  0.00    +0.000 C 
ATOM     18  O   UNL     1       3.062   3.945  17.109  0.00  0.00    +0.000 OA
ENDBRANCH  10  18
ENDBRANCH   1  16
BRANCH   4  19
ATOM     19  C   UNL     1       0.430  10.291  18.439  0.00  0.00    +0.000 A 
ATOM     20  C   UNL     1       0.295  11.366  19.325  0.00  0.00    +0.000 A 
ATOM     21  C   UNL     1      -0.959  11.887  19.623  0.00  0.00    +0.000 A 
ATOM     22  F   UNL     1      -1.048  12.921  20.473  0.00  0.00    +0.000 F 
ATOM     23  C   UNL     1      -2.102  11.361  19.044  0.00  0.00    +0.000 A 
ATOM     24  C   UNL     1      -2.004  10.291  18.148  0.00  0.00    +0.000 A 
ATOM     25  C   UNL     1      -0.734   9.750  17.869  0.00  0.00    +0.000 A 
BRANCH  24  26
ATOM     26  C   UNL     1      -3.251   9.771  17.478  0.00  0.00    +0.000 C 
BRANCH  26  27
ATOM     27  S   UNL     1      -3.755  10.807  16.144  0.00  0.00    +0.000 S 
ATOM     28  C   UNL     1      -5.001  11.932  16.669  0.00  0.00    +0.000 C 
ATOM     29  N   UNL     1      -2.554  11.581  15.528  0.00  0.00    +0.000 NA
ATOM     30  N   UNL     1      -4.358   9.911  15.019  0.00  0.00    +0.000 NA
ATOM     31  H   UNL     1      -2.077  12.110  16.265  0.00  0.00    +0.000 HD
ATOM     32  H   UNL     1      -5.180   9.421  15.383  0.00  0.00    +0.000 HD
ENDBRANCH  26  27
ENDBRANCH  24  26
ENDBRANCH   4  19
TORSDOF 5
ENDMDL
MODEL 2
REMARK VINA RESULT:      -8.3      2.503      3.423
REMARK  Name = 
REMARK  7 active torsions:
REMARK  status: ('A' for Active; 'I' for Inactive)
REMARK    1  A    between atoms: C_1  and  O_2
REMARK    2  A    between atoms: O_2  and  C_3
REMARK    3  A    between atoms: C_9  and  C_10
REMARK    4  A    between atoms: N_13  and  C_14
REMARK    5  A    between atoms: C_19  and  C_20
REMARK    6  A    between atoms: C_20  and  S_21
REMARK    7  A    between atoms: S_21  and  C_22
REMARK                            x       y       z     vdW  Elec       q    Type
REMARK                         _______ _______ _______ _____ _____    ______ ____
ROOT
ATOM      1  C   UNL     1       2.819   6.786  18.481  0.00  0.00    +0.000 A 
ATOM      2  N   UNL     1       2.364   7.960  17.946  0.00  0.00    +0.000 NA
ATOM      3  C   UNL     1       1.638   8.778  18.737  0.00  0.00    +0.000 A 
ATOM      4  N   UNL     1       1.179   9.990  18.215  0.00  0.00    +0.000 N 
ATOM      5  N   UNL     1       1.367   8.497  20.023  0.00  0.00    +0.000 NA
ATOM      6  C   UNL     1       1.837   7.350  20.526  0.00  0.00    +0.000 A 
ATOM      7  C   UNL     1       2.584   6.463  19.806  0.00  0.00    +0.000 A 
ATOM      8  F   UNL     1       3.102   5.388  20.416  0.00  0.00    +0.000 F 
ATOM      9  H   UNL     1       1.347  10.049  17.219  0.00  0.00    +0.000 HD
ENDROOT
BRANCH   1  16
ATOM     10  C   UNL     1       3.427   4.572  17.342  0.00  0.00    +0.000 A 
ATOM     11  C   UNL     1       4.337   3.810  16.595  0.00  0.00    +0.000 A 
ATOM     12  C   UNL     1       5.472   4.410  16.065  0.00  0.00    +0.000 A 
ATOM     13  F   UNL     1       6.341   3.670  15.365  0.00  0.00    +0.000 F 
ATOM     14  C   UNL     1       5.706   5.764  16.240  0.00  0.00    +0.000 A 
ATOM     15  C   UNL     1       4.809   6.524  16.993  0.00  0.00    +0.000 A 
ATOM     16  C   UNL     1       3.665   5.948  17.590  0.00  0.00    +0.000 A 
BRANCH  10  18
ATOM     17  C   UNL     1       2.221   2.624  17.958  0.00  0.00    +0.000 C 
ATOM     18  O   UNL     1       2.235   4.037  17.771  0.00  0.00    +0.000 OA
ENDBRANCH  10  18
ENDBRANCH   1  16
BRANCH   4  19
ATOM     19  C   UNL     1      -0.019  10.649  18.585  0.00  0.00    +0.000 A 
ATOM     20  C   UNL     1      -1.247  10.317  18.003  0.00  0.00    +0.000 A 
ATOM     21  C   UNL     1      -2.407  10.997  18.355  0.00  0.00    +0.000 A 
ATOM     22  F   UNL     1      -3.567  10.646  17.779  0.00  0.00    +0.000 F 
ATOM     23  C   UNL     1      -2.376  12.012  19.297  0.00  0.00    +0.000 A 
ATOM     24  C   UNL     1      -1.166  12.365  19.905  0.00  0.00    +0.000 A 
ATOM     25  C   UNL     1       0.010  11.691  19.526  0.00  0.00    +0.000 A 
BRANCH  24  26
ATOM     26  C   UNL     1      -1.160  13.430  20.975  0.00  0.00    +0.000 C 
BRANCH  26  27
ATOM     27  S   UNL     1      -1.324  12.735  22.587  0.00  0.00    +0.000 S 
ATOM     28  C   UNL     1      -3.009  12.366  22.934  0.00  0.00    +0.000 C 
ATOM     29  N   UNL     1      -0.446  11.463  22.760  0.00  0.00    +0.000 NA
ATOM     30  N   UNL     1      -0.836  13.784  23.632  0.00  0.00    +0.000 NA
ATOM     31  H   UNL     1      -0.678  10.787  22.026  0.00  0.00    +0.000 HD
ATOM     32  H   UNL     1      -1.426  14.619  23.572  0.00  0.00    +0.000 HD
ENDBRANCH  26  27
ENDBRANCH  24  26
ENDBRANCH   4  19
TORSDOF 5
ENDMDL
MODEL 3
REMARK VINA RESULT:      -8.2      1.251      2.022
REMARK  Name = 
REMARK  7 active torsions:
REMARK  status: ('A' for Active; 'I' for Inactive)
REMARK    1  A    between atoms: C_1  and  O_2
REMARK    2  A    between atoms: O_2  and  C_3
REMARK    3  A    between atoms: C_9  and  C_10
REMARK    4  A    between atoms: N_13  and  C_14
REMARK    5  A    between atoms: C_19  and  C_20
REMARK    6  A    between atoms: C_20  and  S_21
REMARK    7  A    between atoms: S_21  and  C_22
REMARK                            x       y       z     vdW  Elec       q    Type
REMARK                         _______ _______ _______ _____ _____    ______ ____
ROOT
ATOM      1  C   UNL     1       3.590   6.404  18.187  0.00  0.00    +0.000 A 
ATOM      2  N   UNL     1       3.136   7.623  17.761  0.00  0.00    +0.000 NA
ATOM      3  C   UNL     1       2.289   8.300  18.565  0.00  0.00    +0.000 A 
ATOM      4  N   UNL     1       1.828   9.554  18.157  0.00  0.00    +0.000 N 
ATOM      5  N   UNL     1       1.898   7.838  19.765  0.00  0.00    +0.000 NA
ATOM      6  C   UNL     1       2.369   6.652  20.165  0.00  0.00    +0.000 A 
ATOM      7  C   UNL     1       3.233   5.898  19.423  0.00  0.00    +0.000 A 
ATOM      8  F   UNL     1       3.736   4.770  19.942  0.00  0.00    +0.000 F 
ATOM      9  H   UNL     1       2.098   9.753  17.202  0.00  0.00    +0.000 HD
ENDROOT
BRANCH   1  16
ATOM     10  C   UNL     1       5.811   6.290  16.912  0.00  0.00    +0.000 A 
ATOM     11  C   UNL     1       6.627   5.653  15.965  0.00  0.00    +0.000 A 
ATOM     12  C   UNL     1       6.232   4.442  15.413  0.00  0.00    +0.000 A 
ATOM     13  F   UNL     1       7.012   3.850  14.500  0.00  0.00    +0.000 F 
ATOM     14  C   UNL     1       5.051   3.835  15.806  0.00  0.00    +0.000 A 
ATOM     15  C   UNL     1       4.229   4.470  16.739  0.00  0.00    +0.000 A 
ATOM     16  C   UNL     1       4.567   5.725  17.294  0.00  0.00    +0.000 A 
BRANCH  10  18
ATOM     17  C   UNL     1       7.624   7.712  17.473  0.00  0.00    +0.000 C 
ATOM     18  O   UNL     1       6.232   7.423  17.568  0.00  0.00    +0.000 OA
ENDBRANCH  10  18
ENDBRANCH   1  16
BRANCH   4  19
ATOM     19  C   UNL     1       0.566  10.113  18.474  0.00  0.00    +0.000 A 
ATOM     20  C   UNL     1       0.429  11.105  19.451  0.00  0.00    +0.000 A 
ATOM     21  C   UNL     1      -0.822  11.618  19.772  0.00  0.00    +0.000 A 
ATOM     22  F   UNL     1      -0.912  12.573  20.711  0.00  0.00    +0.000 F 
ATOM     23  C   UNL     1      -1.960  11.168  19.125  0.00  0.00    +0.000 A 
ATOM     24  C   UNL     1      -1.861  10.183  18.137  0.00  0.00    +0.000 A 
ATOM     25  C   UNL     1      -0.594   9.647  17.834  0.00  0.00    +0.000 A 
BRANCH  24  26
ATOM     26  C   UNL     1      -3.102   9.748  17.398  0.00  0.00    +0.000 C 
BRANCH  26  27
ATOM     27  S   UNL     1      -3.474  10.830  16.057  0.00  0.00    +0.000 S 
ATOM     28  C   UNL     1      -3.780   9.912  14.587  0.00  0.00    +0.000 C 
ATOM     29  N   UNL     1      -4.683  11.754  16.378  0.00  0.00    +0.000 NA
ATOM     30  N   UNL     1      -2.240  11.748  15.803  0.00  0.00    +0.000 NA
ATOM     31  H   UNL     1      -5.490  11.180  16.641  0.00  0.00    +0.000 HD
ATOM     32  H   UNL     1      -1.435  11.169  15.546  0.00  0.00    +0.000 HD
ENDBRANCH  26  27
ENDBRANCH  24  26
ENDBRANCH   4  19
TORSDOF 5
ENDMDL
MODEL 4
REMARK VINA RESULT:      -8.1      3.872      9.302
REMARK  Name = 
REMARK  7 active torsions:
REMARK  status: ('A' for Active; 'I' for Inactive)
REMARK    1  A    between atoms: C_1  and  O_2
REMARK    2  A    between atoms: O_2  and  C_3
REMARK    3  A    between atoms: C_9  and  C_10
REMARK    4  A    between atoms: N_13  and  C_14
REMARK    5  A    between atoms: C_19  and  C_20
REMARK    6  A    between atoms: C_20  and  S_21
REMARK    7  A    between atoms: S_21  and  C_22
REMARK                            x       y       z     vdW  Elec       q    Type
REMARK                         _______ _______ _______ _____ _____    ______ ____
ROOT
ATOM      1  C   UNL     1       0.536  10.185  19.724  0.00  0.00    +0.000 A 
ATOM      2  N   UNL     1       0.842   8.911  20.119  0.00  0.00    +0.000 NA
ATOM      3  C   UNL     1       1.753   8.225  19.397  0.00  0.00    +0.000 A 
ATOM      4  N   UNL     1       2.092   6.930  19.795  0.00  0.00    +0.000 N 
ATOM      5  N   UNL     1       2.380   8.748  18.329  0.00  0.00    +0.000 NA
ATOM      6  C   UNL     1       2.075  10.000  17.974  0.00  0.00    +0.000 A 
ATOM      7  C   UNL     1       1.172  10.774  18.645  0.00  0.00    +0.000 A 
ATOM      8  F   UNL     1       1.000  12.052  18.284  0.00  0.00    +0.000 F 
ATOM      9  H   UNL     1       1.488   6.602  20.537  0.00  0.00    +0.000 HD
ENDROOT
BRANCH   1  16
ATOM     10  C   UNL     1      -1.603  11.547  20.099  0.00  0.00    +0.000 A 
ATOM     11  C   UNL     1      -2.399  12.334  20.944  0.00  0.00    +0.000 A 
ATOM     12  C   UNL     1      -2.052  12.485  22.280  0.00  0.00    +0.000 A 
ATOM     13  F   UNL     1      -2.812  13.250  23.074  0.00  0.00    +0.000 F 
ATOM     14  C   UNL     1      -0.942  11.843  22.802  0.00  0.00    +0.000 A 
ATOM     15  C   UNL     1      -0.139  11.067  21.962  0.00  0.00    +0.000 A 
ATOM     16  C   UNL     1      -0.427  10.921  20.586  0.00  0.00    +0.000 A 
BRANCH  10  18
ATOM     17  C   UNL     1      -3.325  11.638  18.470  0.00  0.00    +0.000 C 
ATOM     18  O   UNL     1      -1.988  11.276  18.807  0.00  0.00    +0.000 OA
ENDBRANCH  10  18
ENDBRANCH   1  16
BRANCH   4  19
ATOM     19  C   UNL     1       2.483   5.877  18.932  0.00  0.00    +0.000 A 
ATOM     20  C   UNL     1       1.779   4.668  18.886  0.00  0.00    +0.000 A 
ATOM     21  C   UNL     1       2.197   3.634  18.057  0.00  0.00    +0.000 A 
ATOM     22  F   UNL     1       1.492   2.492  18.036  0.00  0.00    +0.000 F 
ATOM     23  C   UNL     1       3.314   3.778  17.251  0.00  0.00    +0.000 A 
ATOM     24  C   UNL     1       4.038   4.974  17.266  0.00  0.00    +0.000 A 
ATOM     25  C   UNL     1       3.626   6.010  18.127  0.00  0.00    +0.000 A 
BRANCH  24  26
ATOM     26  C   UNL     1       5.216   5.138  16.337  0.00  0.00    +0.000 C 
BRANCH  26  27
ATOM     27  S   UNL     1       6.747   5.087  17.210  0.00  0.00    +0.000 S 
ATOM     28  C   UNL     1       7.271   6.711  17.636  0.00  0.00    +0.000 C 
ATOM     29  N   UNL     1       6.657   4.198  18.482  0.00  0.00    +0.000 NA
ATOM     30  N   UNL     1       7.828   4.460  16.278  0.00  0.00    +0.000 NA
ATOM     31  H   UNL     1       5.889   4.528  19.075  0.00  0.00    +0.000 HD
ATOM     32  H   UNL     1       7.942   5.051  15.448  0.00  0.00    +0.000 HD
ENDBRANCH  26  27
ENDBRANCH  24  26
ENDBRANCH   4  19
TORSDOF 5
ENDMDL
MODEL 5
REMARK VINA RESULT:      -8.0      4.135      9.431
REMARK  Name = 
REMARK  7 active torsions:
REMARK  status: ('A' for Active; 'I' for Inactive)
REMARK    1  A    between atoms: C_1  and  O_2
REMARK    2  A    between atoms: O_2  and  C_3
REMARK    3  A    between atoms: C_9  and  C_10
REMARK    4  A    between atoms: N_13  and  C_14
REMARK    5  A    between atoms: C_19  and  C_20
REMARK    6  A    between atoms: C_20  and  S_21
REMARK    7  A    between atoms: S_21  and  C_22
REMARK                            x       y       z     vdW  Elec       q    Type
REMARK                         _______ _______ _______ _____ _____    ______ ____
ROOT
ATOM      1  C   UNL     1       0.164  10.795  20.367  0.00  0.00    +0.000 A 
ATOM      2  N   UNL     1       0.830   9.741  20.930  0.00  0.00    +0.000 NA
ATOM      3  C   UNL     1       1.347   8.804  20.108  0.00  0.00    +0.000 A 
ATOM      4  N   UNL     1       2.045   7.729  20.662  0.00  0.00    +0.000 N 
ATOM      5  N   UNL     1       1.252   8.879  18.769  0.00  0.00    +0.000 NA
ATOM      6  C   UNL     1       0.610   9.928  18.243  0.00  0.00    +0.000 A 
ATOM      7  C   UNL     1       0.061  10.927  18.994  0.00  0.00    +0.000 A 
ATOM      8  F   UNL     1      -0.475  11.993  18.384  0.00  0.00    +0.000 F 
ATOM      9  H   UNL     1       1.963   7.718  21.670  0.00  0.00    +0.000 HD
ENDROOT
BRANCH   1  16
ATOM     10  C   UNL     1       0.259  13.112  21.460  0.00  0.00    +0.000 A 
ATOM     11  C   UNL     1      -0.179  13.993  22.459  0.00  0.00    +0.000 A 
ATOM     12  C   UNL     1      -1.222  13.625  23.298  0.00  0.00    +0.000 A 
ATOM     13  F   UNL     1      -1.623  14.468  24.257  0.00  0.00    +0.000 F 
ATOM     14  C   UNL     1      -1.861  12.406  23.144  0.00  0.00    +0.000 A 
ATOM     15  C   UNL     1      -1.421  11.520  22.158  0.00  0.00    +0.000 A 
ATOM     16  C   UNL     1      -0.333  11.832  21.311  0.00  0.00    +0.000 A 
BRANCH  10  18
ATOM     17  C   UNL     1       1.550  14.878  20.544  0.00  0.00    +0.000 C 
ATOM     18  O   UNL     1       1.202  13.497  20.535  0.00  0.00    +0.000 OA
ENDBRANCH  10  18
ENDBRANCH   1  16
BRANCH   4  19
ATOM     19  C   UNL     1       2.110   6.421  20.125  0.00  0.00    +0.000 A 
ATOM     20  C   UNL     1       1.420   5.354  20.712  0.00  0.00    +0.000 A 
ATOM     21  C   UNL     1       1.522   4.069  20.190  0.00  0.00    +0.000 A 
ATOM     22  F   UNL     1       0.841   3.073  20.776  0.00  0.00    +0.000 F 
ATOM     23  C   UNL     1       2.300   3.818  19.072  0.00  0.00    +0.000 A 
ATOM     24  C   UNL     1       2.998   4.862  18.455  0.00  0.00    +0.000 A 
ATOM     25  C   UNL     1       2.912   6.156  19.003  0.00  0.00    +0.000 A 
BRANCH  24  26
ATOM     26  C   UNL     1       3.791   4.582  17.202  0.00  0.00    +0.000 C 
BRANCH  26  27
ATOM     27  S   UNL     1       5.523   4.541  17.523  0.00  0.00    +0.000 S 
ATOM     28  C   UNL     1       6.203   6.163  17.466  0.00  0.00    +0.000 C 
ATOM     29  N   UNL     1       5.842   3.870  18.889  0.00  0.00    +0.000 NA
ATOM     30  N   UNL     1       6.214   3.690  16.413  0.00  0.00    +0.000 NA
ATOM     31  H   UNL     1       5.327   4.351  19.633  0.00  0.00    +0.000 HD
ATOM     32  H   UNL     1       6.058   4.134  15.503  0.00  0.00    +0.000 HD
ENDBRANCH  26  27
ENDBRANCH  24  26
ENDBRANCH   4  19
TORSDOF 5
ENDMDL
MODEL 6
REMARK VINA RESULT:      -8.0      2.244      3.000
REMARK  Name = 
REMARK  7 active torsions:
REMARK  status: ('A' for Active; 'I' for Inactive)
REMARK    1  A    between atoms: C_1  and  O_2
REMARK    2  A    between atoms: O_2  and  C_3
REMARK    3  A    between atoms: C_9  and  C_10
REMARK    4  A    between atoms: N_13  and  C_14
REMARK    5  A    between atoms: C_19  and  C_20
REMARK    6  A    between atoms: C_20  and  S_21
REMARK    7  A    between atoms: S_21  and  C_22
REMARK                            x       y       z     vdW  Elec       q    Type
REMARK                         _______ _______ _______ _____ _____    ______ ____
ROOT
ATOM      1  C   UNL     1       3.141   6.759  18.281  0.00  0.00    +0.000 A 
ATOM      2  N   UNL     1       2.640   7.920  17.757  0.00  0.00    +0.000 NA
ATOM      3  C   UNL     1       1.837   8.673  18.537  0.00  0.00    +0.000 A 
ATOM      4  N   UNL     1       1.329   9.870  18.026  0.00  0.00    +0.000 N 
ATOM      5  N   UNL     1       1.531   8.341  19.803  0.00  0.00    +0.000 NA
ATOM      6  C   UNL     1       2.047   7.210  20.297  0.00  0.00    +0.000 A 
ATOM      7  C   UNL     1       2.873   6.388  19.586  0.00  0.00    +0.000 A 
ATOM      8  F   UNL     1       3.427   5.327  20.190  0.00  0.00    +0.000 F 
ATOM      9  H   UNL     1       1.534   9.966  17.040  0.00  0.00    +0.000 HD
ENDROOT
BRANCH   1  16
ATOM     10  C   UNL     1       3.873   4.639  17.041  0.00  0.00    +0.000 A 
ATOM     11  C   UNL     1       4.852   3.940  16.318  0.00  0.00    +0.000 A 
ATOM     12  C   UNL     1       6.017   4.587  15.928  0.00  0.00    +0.000 A 
ATOM     13  F   UNL     1       6.951   3.908  15.251  0.00  0.00    +0.000 F 
ATOM     14  C   UNL     1       6.216   5.927  16.217  0.00  0.00    +0.000 A 
ATOM     15  C   UNL     1       5.249   6.624  16.946  0.00  0.00    +0.000 A 
ATOM     16  C   UNL     1       4.069   5.995  17.405  0.00  0.00    +0.000 A 
BRANCH  10  18
ATOM     17  C   UNL     1       2.699   2.696  17.731  0.00  0.00    +0.000 C 
ATOM     18  O   UNL     1       2.658   4.064  17.331  0.00  0.00    +0.000 OA
ENDBRANCH  10  18
ENDBRANCH   1  16
BRANCH   4  19
ATOM     19  C   UNL     1       0.082  10.449  18.363  0.00  0.00    +0.000 A 
ATOM     20  C   UNL     1      -1.105  10.044  17.742  0.00  0.00    +0.000 A 
ATOM     21  C   UNL     1      -2.316  10.647  18.062  0.00  0.00    +0.000 A 
ATOM     22  F   UNL     1      -3.433  10.227  17.450  0.00  0.00    +0.000 F 
ATOM     23  C   UNL     1      -2.378  11.655  19.010  0.00  0.00    +0.000 A 
ATOM     24  C   UNL     1      -1.212  12.081  19.656  0.00  0.00    +0.000 A 
ATOM     25  C   UNL     1       0.016  11.485  19.309  0.00  0.00    +0.000 A 
BRANCH  24  26
ATOM     26  C   UNL     1      -1.305  13.137  20.730  0.00  0.00    +0.000 C 
BRANCH  26  27
ATOM     27  S   UNL     1      -0.963  14.745  20.094  0.00  0.00    +0.000 S 
ATOM     28  C   UNL     1       0.313  15.520  21.023  0.00  0.00    +0.000 C 
ATOM     29  N   UNL     1      -0.584  14.702  18.586  0.00  0.00    +0.000 NA
ATOM     30  N   UNL     1      -2.251  15.615  20.226  0.00  0.00    +0.000 NA
ATOM     31  H   UNL     1       0.205  14.062  18.452  0.00  0.00    +0.000 HD
ATOM     32  H   UNL     1      -2.501  15.698  21.215  0.00  0.00    +0.000 HD
ENDBRANCH  26  27
ENDBRANCH  24  26
ENDBRANCH   4  19
TORSDOF 5
ENDMDL
MODEL 7
REMARK VINA RESULT:      -7.9      2.681      3.732
REMARK  Name = 
REMARK  7 active torsions:
REMARK  status: ('A' for Active; 'I' for Inactive)
REMARK    1  A    between atoms: C_1  and  O_2
REMARK    2  A    between atoms: O_2  and  C_3
REMARK    3  A    between atoms: C_9  and  C_10
REMARK    4  A    between atoms: N_13  and  C_14
REMARK    5  A    between atoms: C_19  and  C_20
REMARK    6  A    between atoms: C_20  and  S_21
REMARK    7  A    between atoms: S_21  and  C_22
REMARK                            x       y       z     vdW  Elec       q    Type
REMARK                         _______ _______ _______ _____ _____    ______ ____
ROOT
ATOM      1  C   UNL     1       3.731   6.289  17.901  0.00  0.00    +0.000 A 
ATOM      2  N   UNL     1       3.315   7.536  17.522  0.00  0.00    +0.000 NA
ATOM      3  C   UNL     1       2.514   8.221  18.365  0.00  0.00    +0.000 A 
ATOM      4  N   UNL     1       2.092   9.503  18.005  0.00  0.00    +0.000 N 
ATOM      5  N   UNL     1       2.133   7.739  19.561  0.00  0.00    +0.000 NA
ATOM      6  C   UNL     1       2.567   6.524  19.915  0.00  0.00    +0.000 A 
ATOM      7  C   UNL     1       3.383   5.760  19.131  0.00  0.00    +0.000 A 
ATOM      8  F   UNL     1       3.854   4.599  19.605  0.00  0.00    +0.000 F 
ATOM      9  H   UNL     1       2.348   9.719  17.050  0.00  0.00    +0.000 HD
ENDROOT
BRANCH   1  16
ATOM     10  C   UNL     1       5.863   6.174  16.484  0.00  0.00    +0.000 A 
ATOM     11  C   UNL     1       6.628   5.523  15.504  0.00  0.00    +0.000 A 
ATOM     12  C   UNL     1       6.221   4.288  15.017  0.00  0.00    +0.000 A 
ATOM     13  F   UNL     1       6.950   3.682  14.072  0.00  0.00    +0.000 F 
ATOM     14  C   UNL     1       5.081   3.672  15.506  0.00  0.00    +0.000 A 
ATOM     15  C   UNL     1       4.311   4.322  16.474  0.00  0.00    +0.000 A 
ATOM     16  C   UNL     1       4.660   5.600  16.966  0.00  0.00    +0.000 A 
BRANCH  10  18
ATOM     17  C   UNL     1       7.492   7.219  17.855  0.00  0.00    +0.000 C 
ATOM     18  O   UNL     1       6.305   7.335  17.076  0.00  0.00    +0.000 OA
ENDBRANCH  10  18
ENDBRANCH   1  16
BRANCH   4  19
ATOM     19  C   UNL     1       0.861  10.100  18.368  0.00  0.00    +0.000 A 
ATOM     20  C   UNL     1      -0.357   9.635  17.859  0.00  0.00    +0.000 A 
ATOM     21  C   UNL     1      -1.553  10.256  18.201  0.00  0.00    +0.000 A 
ATOM     22  F   UNL     1      -2.701   9.777  17.697  0.00  0.00    +0.000 F 
ATOM     23  C   UNL     1      -1.569  11.341  19.061  0.00  0.00    +0.000 A 
ATOM     24  C   UNL     1      -0.371  11.828  19.594  0.00  0.00    +0.000 A 
ATOM     25  C   UNL     1       0.840  11.213  19.224  0.00  0.00    +0.000 A 
BRANCH  24  26
ATOM     26  C   UNL     1      -0.411  12.972  20.578  0.00  0.00    +0.000 C 
BRANCH  26  27
ATOM     27  S   UNL     1      -0.842  12.423  22.197  0.00  0.00    +0.000 S 
ATOM     28  C   UNL     1      -2.587  12.254  22.350  0.00  0.00    +0.000 C 
ATOM     29  N   UNL     1      -0.136  11.087  22.562  0.00  0.00    +0.000 NA
ATOM     30  N   UNL     1      -0.371  13.496  23.226  0.00  0.00    +0.000 NA
ATOM     31  H   UNL     1      -0.351  10.383  21.849  0.00  0.00    +0.000 HD
ATOM     32  H   UNL     1      -0.854  14.379  23.038  0.00  0.00    +0.000 HD
ENDBRANCH  26  27
ENDBRANCH  24  26
ENDBRANCH   4  19
TORSDOF 5
ENDMDL
MODEL 8
REMARK VINA RESULT:      -7.9      3.962      9.208
REMARK  Name = 
REMARK  7 active torsions:
REMARK  status: ('A' for Active; 'I' for Inactive)
REMARK    1  A    between atoms: C_1  and  O_2
REMARK    2  A    between atoms: O_2  and  C_3
REMARK    3  A    between atoms: C_9  and  C_10
REMARK    4  A    between atoms: N_13  and  C_14
REMARK    5  A    between atoms: C_19  and  C_20
REMARK    6  A    between atoms: C_20  and  S_21
REMARK    7  A    between atoms: S_21  and  C_22
REMARK                            x       y       z     vdW  Elec       q    Type
REMARK                         _______ _______ _______ _____ _____    ______ ____
ROOT
ATOM      1  C   UNL     1       0.604  10.245  19.652  0.00  0.00    +0.000 A 
ATOM      2  N   UNL     1       0.856   8.962  20.057  0.00  0.00    +0.000 NA
ATOM      3  C   UNL     1       1.768   8.247  19.366  0.00  0.00    +0.000 A 
ATOM      4  N   UNL     1       2.052   6.942  19.774  0.00  0.00    +0.000 N 
ATOM      5  N   UNL     1       2.448   8.749  18.320  0.00  0.00    +0.000 NA
ATOM      6  C   UNL     1       2.195  10.010  17.955  0.00  0.00    +0.000 A 
ATOM      7  C   UNL     1       1.295  10.813  18.596  0.00  0.00    +0.000 A 
ATOM      8  F   UNL     1       1.176  12.096  18.229  0.00  0.00    +0.000 F 
ATOM      9  H   UNL     1       1.413   6.634  20.495  0.00  0.00    +0.000 HD
ENDROOT
BRANCH   1  16
ATOM     10  C   UNL     1      -0.388  10.978  21.899  0.00  0.00    +0.000 A 
ATOM     11  C   UNL     1      -1.407  11.622  22.615  0.00  0.00    +0.000 A 
ATOM     12  C   UNL     1      -2.392  12.327  21.935  0.00  0.00    +0.000 A 
ATOM     13  F   UNL     1      -3.368  12.927  22.628  0.00  0.00    +0.000 F 
ATOM     14  C   UNL     1      -2.367  12.429  20.554  0.00  0.00    +0.000 A 
ATOM     15  C   UNL     1      -1.360  11.779  19.836  0.00  0.00    +0.000 A 
ATOM     16  C   UNL     1      -0.363  11.012  20.481  0.00  0.00    +0.000 A 
BRANCH  10  18
ATOM     17  C   UNL     1       0.328   9.337  23.455  0.00  0.00    +0.000 C 
ATOM     18  O   UNL     1       0.669  10.381  22.546  0.00  0.00    +0.000 OA
ENDBRANCH  10  18
ENDBRANCH   1  16
BRANCH   4  19
ATOM     19  C   UNL     1       2.439   5.876  18.924  0.00  0.00    +0.000 A 
ATOM     20  C   UNL     1       1.719   4.677  18.880  0.00  0.00    +0.000 A 
ATOM     21  C   UNL     1       2.132   3.630  18.065  0.00  0.00    +0.000 A 
ATOM     22  F   UNL     1       1.412   2.498  18.046  0.00  0.00    +0.000 F 
ATOM     23  C   UNL     1       3.260   3.752  17.271  0.00  0.00    +0.000 A 
ATOM     24  C   UNL     1       4.000   4.939  17.284  0.00  0.00    +0.000 A 
ATOM     25  C   UNL     1       3.592   5.987  18.131  0.00  0.00    +0.000 A 
BRANCH  24  26
ATOM     26  C   UNL     1       5.190   5.079  16.366  0.00  0.00    +0.000 C 
BRANCH  26  27
ATOM     27  S   UNL     1       6.707   5.089  17.264  0.00  0.00    +0.000 S 
ATOM     28  C   UNL     1       7.161   6.733  17.695  0.00  0.00    +0.000 C 
ATOM     29  N   UNL     1       6.631   4.199  18.536  0.00  0.00    +0.000 NA
ATOM     30  N   UNL     1       7.827   4.503  16.351  0.00  0.00    +0.000 NA
ATOM     31  H   UNL     1       5.842   4.500  19.116  0.00  0.00    +0.000 HD
ATOM     32  H   UNL     1       7.931   5.096  15.522  0.00  0.00    +0.000 HD
ENDBRANCH  26  27
ENDBRANCH  24  26
ENDBRANCH   4  19
TORSDOF 5
ENDMDL
MODEL 9
REMARK VINA RESULT:      -7.9      2.434      3.246
REMARK  Name = 
REMARK  7 active torsions:
REMARK  status: ('A' for Active; 'I' for Inactive)
REMARK    1  A    between atoms: C_1  and  O_2
REMARK    2  A    between atoms: O_2  and  C_3
REMARK    3  A    between atoms: C_9  and  C_10
REMARK    4  A    between atoms: N_13  and  C_14
REMARK    5  A    between atoms: C_19  and  C_20
REMARK    6  A    between atoms: C_20  and  S_21
REMARK    7  A    between atoms: S_21  and  C_22
REMARK                            x       y       z     vdW  Elec       q    Type
REMARK                         _______ _______ _______ _____ _____    ______ ____
ROOT
ATOM      1  C   UNL     1       3.601   5.075  18.308  0.00  0.00    +0.000 A 
ATOM      2  N   UNL     1       3.595   6.341  18.828  0.00  0.00    +0.000 NA
ATOM      3  C   UNL     1       2.633   6.655  19.722  0.00  0.00    +0.000 A 
ATOM      4  N   UNL     1       2.620   7.936  20.277  0.00  0.00    +0.000 N 
ATOM      5  N   UNL     1       1.705   5.774  20.132  0.00  0.00    +0.000 NA
ATOM      6  C   UNL     1       1.743   4.538  19.621  0.00  0.00    +0.000 A 
ATOM      7  C   UNL     1       2.680   4.127  18.717  0.00  0.00    +0.000 A 
ATOM      8  F   UNL     1       2.708   2.844  18.333  0.00  0.00    +0.000 F 
ATOM      9  H   UNL     1       3.291   8.542  19.822  0.00  0.00    +0.000 HD
ENDROOT
BRANCH   1  16
ATOM     10  C   UNL     1       6.083   4.764  17.750  0.00  0.00    +0.000 A 
ATOM     11  C   UNL     1       7.091   4.584  16.791  0.00  0.00    +0.000 A 
ATOM     12  C   UNL     1       6.751   4.371  15.462  0.00  0.00    +0.000 A 
ATOM     13  F   UNL     1       7.721   4.215  14.552  0.00  0.00    +0.000 F 
ATOM     14  C   UNL     1       5.424   4.304  15.070  0.00  0.00    +0.000 A 
ATOM     15  C   UNL     1       4.418   4.494  16.019  0.00  0.00    +0.000 A 
ATOM     16  C   UNL     1       4.715   4.759  17.375  0.00  0.00    +0.000 A 
BRANCH  10  18
ATOM     17  C   UNL     1       7.510   5.657  19.421  0.00  0.00    +0.000 C 
ATOM     18  O   UNL     1       6.383   4.850  19.090  0.00  0.00    +0.000 OA
ENDBRANCH  10  18
ENDBRANCH   1  16
BRANCH   4  19
ATOM     19  C   UNL     1       1.466   8.646  20.691  0.00  0.00    +0.000 A 
ATOM     20  C   UNL     1       1.123   8.762  22.043  0.00  0.00    +0.000 A 
ATOM     21  C   UNL     1      -0.031   9.434  22.427  0.00  0.00    +0.000 A 
ATOM     22  F   UNL     1      -0.323   9.529  23.733  0.00  0.00    +0.000 F 
ATOM     23  C   UNL     1      -0.863  10.013  21.483  0.00  0.00    +0.000 A 
ATOM     24  C   UNL     1      -0.547   9.923  20.123  0.00  0.00    +0.000 A 
ATOM     25  C   UNL     1       0.609   9.218  19.737  0.00  0.00    +0.000 A 
BRANCH  24  26
ATOM     26  C   UNL     1      -1.430  10.612  19.112  0.00  0.00    +0.000 C 
BRANCH  26  27
ATOM     27  S   UNL     1      -1.002  12.312  18.924  0.00  0.00    +0.000 S 
ATOM     28  C   UNL     1       0.584  12.631  19.615  0.00  0.00    +0.000 C 
ATOM     29  N   UNL     1      -1.042  12.757  17.435  0.00  0.00    +0.000 NA
ATOM     30  N   UNL     1      -2.046  13.174  19.697  0.00  0.00    +0.000 NA
ATOM     31  H   UNL     1      -0.434  12.146  16.881  0.00  0.00    +0.000 HD
ATOM     32  H   UNL     1      -2.012  12.934  20.692  0.00  0.00    +0.000 HD
ENDBRANCH  26  27
ENDBRANCH  24  26
ENDBRANCH   4  19
TORSDOF 5
ENDMDL
