MODEL 1
REMARK VINA RESULT:      -7.2      0.000      0.000
REMARK  Name = 
REMARK  7 active torsions:
REMARK  status: ('A' for Active; 'I' for Inactive)
REMARK    1  A    between atoms: C_1  and  C_2
REMARK    2  A    between atoms: C_2  and  C_3
REMARK    3  A    between atoms: C_2  and  N_4
REMARK    4  A    between atoms: N_12  and  C_13
REMARK    5  A    between atoms: C_13  and  C_14
REMARK    6  A    between atoms: C_22  and  C_23
REMARK    7  A    between atoms: C_23  and  O_25
REMARK                            x       y       z     vdW  Elec       q    Type
REMARK                         _______ _______ _______ _____ _____    ______ ____
ROOT
ATOM      1  N   UNL     1       3.214   3.864  19.950  0.00  0.00    +0.000 N 
ATOM      2  C   UNL     1       4.253   4.562  19.390  0.00  0.00    +0.000 C 
ATOM      3  O   UNL     1       4.504   5.710  19.747  0.00  0.00    +0.000 OA
ATOM      4  N   UNL     1       5.095   3.817  18.557  0.00  0.00    +0.000 N 
ATOM      5  C   UNL     1       6.362   4.505  18.161  0.00  0.00    +0.000 C 
ATOM      6  C   UNL     1       6.381   4.762  16.680  0.00  0.00    +0.000 A 
ATOM      7  N   UNL     1       7.361   5.454  16.020  0.00  0.00    +0.000 NA
ATOM      8  C   UNL     1       7.025   5.396  14.747  0.00  0.00    +0.000 A 
ATOM      9  N   UNL     1       5.884   4.659  14.545  0.00  0.00    +0.000 N 
ATOM     10  C   UNL     1       5.459   4.265  15.783  0.00  0.00    +0.000 A 
ATOM     11  C   UNL     1       4.289   3.438  16.171  0.00  0.00    +0.000 C 
ATOM     12  C   UNL     1       4.626   2.802  17.543  0.00  0.00    +0.000 C 
ATOM     13  H   UNL     1       2.880   3.006  19.555  0.00  0.00    +0.000 HD
ENDROOT
BRANCH   1  15
ATOM     14  C   UNL     1       1.189   5.180  20.278  0.00  0.00    +0.000 C 
ATOM     15  C   UNL     1       2.318   4.419  20.962  0.00  0.00    +0.000 C 
ATOM     16  C   UNL     1       1.758   3.276  21.810  0.00  0.00    +0.000 C 
ENDBRANCH   1  15
BRANCH  12  17
ATOM     17  C   UNL     1       3.571   1.774  17.941  0.00  0.00    +0.000 C 
ATOM     18  O   UNL     1       2.363   1.929  17.845  0.00  0.00    +0.000 OA
BRANCH  17  19
ATOM     19  O   UNL     1       4.114   0.618  18.397  0.00  0.00    +0.000 OA
ATOM     20  H   UNL     1       4.597   0.131  17.692  0.00  0.00    +0.000 HD
ENDBRANCH  17  19
ENDBRANCH  12  17
BRANCH   9  21
ATOM     21  C   UNL     1       5.193   4.519  13.273  0.00  0.00    +0.000 C 
BRANCH  21  22
ATOM     22  C   UNL     1       5.792   3.479  12.354  0.00  0.00    +0.000 A 
ATOM     23  C   UNL     1       7.162   3.489  12.053  0.00  0.00    +0.000 A 
ATOM     24  C   UNL     1       7.739   2.462  11.302  0.00  0.00    +0.000 A 
ATOM     25  C   UNL     1       6.954   1.409  10.839  0.00  0.00    +0.000 A 
ATOM     26  C   UNL     1       5.587   1.397  11.105  0.00  0.00    +0.000 A 
ATOM     27  C   UNL     1       5.007   2.429  11.851  0.00  0.00    +0.000 A 
ENDBRANCH  21  22
ENDBRANCH   9  21
TORSDOF 5
ENDMDL
MODEL 2
REMARK VINA RESULT:      -7.0      6.720      9.361
REMARK  Name = 
REMARK  7 active torsions:
REMARK  status: ('A' for Active; 'I' for Inactive)
REMARK    1  A    between atoms: C_1  and  C_2
REMARK    2  A    between atoms: C_2  and  C_3
REMARK    3  A    between atoms: C_2  and  N_4
REMARK    4  A    between atoms: N_12  and  C_13
REMARK    5  A    between atoms: C_13  and  C_14
REMARK    6  A    between atoms: C_22  and  C_23
REMARK    7  A    between atoms: C_23  and  O_25
REMARK                            x       y       z     vdW  Elec       q    Type
REMARK                         _______ _______ _______ _____ _____    ______ ____
ROOT
ATOM      1  N   UNL     1      -0.905  13.707  20.081  0.00  0.00    +0.000 N 
ATOM      2  C   UNL     1      -0.323  12.705  20.814  0.00  0.00    +0.000 C 
ATOM      3  O   UNL     1       0.390  12.965  21.779  0.00  0.00    +0.000 OA
ATOM      4  N   UNL     1      -0.754  11.410  20.506  0.00  0.00    +0.000 N 
ATOM      5  C   UNL     1      -0.321  10.354  21.472  0.00  0.00    +0.000 C 
ATOM      6  C   UNL     1       0.614   9.383  20.805  0.00  0.00    +0.000 A 
ATOM      7  N   UNL     1       1.255   8.354  21.441  0.00  0.00    +0.000 NA
ATOM      8  C   UNL     1       1.921   7.725  20.493  0.00  0.00    +0.000 A 
ATOM      9  N   UNL     1       1.707   8.279  19.255  0.00  0.00    +0.000 N 
ATOM     10  C   UNL     1       0.883   9.352  19.452  0.00  0.00    +0.000 A 
ATOM     11  C   UNL     1       0.312  10.310  18.473  0.00  0.00    +0.000 C 
ATOM     12  C   UNL     1      -0.977  10.886  19.108  0.00  0.00    +0.000 C 
ATOM     13  H   UNL     1      -1.337  13.532  19.194  0.00  0.00    +0.000 HD
ENDROOT
BRANCH   1  15
ATOM     14  C   UNL     1      -0.371  15.853  19.054  0.00  0.00    +0.000 C 
ATOM     15  C   UNL     1      -0.705  15.129  20.353  0.00  0.00    +0.000 C 
ATOM     16  C   UNL     1      -1.982  15.701  20.972  0.00  0.00    +0.000 C 
ENDBRANCH   1  15
BRANCH  12  17
ATOM     17  C   UNL     1      -1.750  11.733  18.102  0.00  0.00    +0.000 C 
ATOM     18  O   UNL     1      -2.960  11.707  17.939  0.00  0.00    +0.000 OA
BRANCH  17  19
ATOM     19  O   UNL     1      -0.948  12.572  17.400  0.00  0.00    +0.000 OA
ATOM     20  H   UNL     1      -0.064  12.179  17.223  0.00  0.00    +0.000 HD
ENDBRANCH  17  19
ENDBRANCH  12  17
BRANCH   9  21
ATOM     21  C   UNL     1       2.395   7.890  18.034  0.00  0.00    +0.000 C 
BRANCH  21  22
ATOM     22  C   UNL     1       2.854   6.450  18.013  0.00  0.00    +0.000 A 
ATOM     23  C   UNL     1       1.927   5.400  17.937  0.00  0.00    +0.000 A 
ATOM     24  C   UNL     1       2.352   4.076  17.797  0.00  0.00    +0.000 A 
ATOM     25  C   UNL     1       3.711   3.782  17.732  0.00  0.00    +0.000 A 
ATOM     26  C   UNL     1       4.647   4.809  17.834  0.00  0.00    +0.000 A 
ATOM     27  C   UNL     1       4.222   6.134  17.982  0.00  0.00    +0.000 A 
ENDBRANCH  21  22
ENDBRANCH   9  21
TORSDOF 5
ENDMDL
MODEL 3
REMARK VINA RESULT:      -6.9      2.868      7.717
REMARK  Name = 
REMARK  7 active torsions:
REMARK  status: ('A' for Active; 'I' for Inactive)
REMARK    1  A    between atoms: C_1  and  C_2
REMARK    2  A    between atoms: C_2  and  C_3
REMARK    3  A    between atoms: C_2  and  N_4
REMARK    4  A    between atoms: N_12  and  C_13
REMARK    5  A    between atoms: C_13  and  C_14
REMARK    6  A    between atoms: C_22  and  C_23
REMARK    7  A    between atoms: C_23  and  O_25
REMARK                            x       y       z     vdW  Elec       q    Type
REMARK                         _______ _______ _______ _____ _____    ______ ____
ROOT
ATOM      1  N   UNL     1       6.761   4.692  14.589  0.00  0.00    +0.000 N 
ATOM      2  C   UNL     1       5.502   4.293  14.959  0.00  0.00    +0.000 C 
ATOM      3  O   UNL     1       4.600   4.211  14.131  0.00  0.00    +0.000 OA
ATOM      4  N   UNL     1       5.387   3.812  16.268  0.00  0.00    +0.000 N 
ATOM      5  C   UNL     1       4.089   3.140  16.582  0.00  0.00    +0.000 C 
ATOM      6  C   UNL     1       3.325   3.925  17.612  0.00  0.00    +0.000 A 
ATOM      7  N   UNL     1       2.063   3.623  18.047  0.00  0.00    +0.000 NA
ATOM      8  C   UNL     1       1.796   4.517  18.978  0.00  0.00    +0.000 A 
ATOM      9  N   UNL     1       2.851   5.367  19.197  0.00  0.00    +0.000 N 
ATOM     10  C   UNL     1       3.827   5.003  18.312  0.00  0.00    +0.000 A 
ATOM     11  C   UNL     1       5.187   5.561  18.108  0.00  0.00    +0.000 C 
ATOM     12  C   UNL     1       6.044   4.436  17.476  0.00  0.00    +0.000 C 
ATOM     13  H   UNL     1       7.458   4.939  15.266  0.00  0.00    +0.000 HD
ENDROOT
BRANCH   1  15
ATOM     14  C   UNL     1       8.518   5.684  13.221  0.00  0.00    +0.000 C 
ATOM     15  C   UNL     1       7.120   5.079  13.227  0.00  0.00    +0.000 C 
ATOM     16  C   UNL     1       7.068   3.840  12.329  0.00  0.00    +0.000 C 
ENDBRANCH   1  15
BRANCH  12  17
ATOM     17  C   UNL     1       7.513   4.842  17.408  0.00  0.00    +0.000 C 
ATOM     18  O   UNL     1       8.461   4.077  17.499  0.00  0.00    +0.000 OA
BRANCH  17  19
ATOM     19  O   UNL     1       7.678   6.171  17.196  0.00  0.00    +0.000 OA
ATOM     20  H   UNL     1       8.328   6.568  17.819  0.00  0.00    +0.000 HD
ENDBRANCH  17  19
ENDBRANCH  12  17
BRANCH   9  21
ATOM     21  C   UNL     1       2.820   6.533  20.067  0.00  0.00    +0.000 C 
BRANCH  21  22
ATOM     22  C   UNL     1       2.065   7.711  19.496  0.00  0.00    +0.000 A 
ATOM     23  C   UNL     1       1.240   8.501  20.311  0.00  0.00    +0.000 A 
ATOM     24  C   UNL     1       0.637   9.659  19.814  0.00  0.00    +0.000 A 
ATOM     25  C   UNL     1       0.849  10.046  18.493  0.00  0.00    +0.000 A 
ATOM     26  C   UNL     1       1.643   9.259  17.662  0.00  0.00    +0.000 A 
ATOM     27  C   UNL     1       2.241   8.095  18.157  0.00  0.00    +0.000 A 
ENDBRANCH  21  22
ENDBRANCH   9  21
TORSDOF 5
ENDMDL
MODEL 4
REMARK VINA RESULT:      -6.8      5.218      7.445
REMARK  Name = 
REMARK  7 active torsions:
REMARK  status: ('A' for Active; 'I' for Inactive)
REMARK    1  A    between atoms: C_1  and  C_2
REMARK    2  A    between atoms: C_2  and  C_3
REMARK    3  A    between atoms: C_2  and  N_4
REMARK    4  A    between atoms: N_12  and  C_13
REMARK    5  A    between atoms: C_13  and  C_14
REMARK    6  A    between atoms: C_22  and  C_23
REMARK    7  A    between atoms: C_23  and  O_25
REMARK                            x       y       z     vdW  Elec       q    Type
REMARK                         _______ _______ _______ _____ _____    ______ ____
ROOT
ATOM      1  N   UNL     1       1.106  11.096  20.559  0.00  0.00    +0.000 N 
ATOM      2  C   UNL     1       1.335   9.865  21.120  0.00  0.00    +0.000 C 
ATOM      3  O   UNL     1       1.774   9.767  22.262  0.00  0.00    +0.000 OA
ATOM      4  N   UNL     1       0.857   8.774  20.386  0.00  0.00    +0.000 N 
ATOM      5  C   UNL     1       0.873   7.468  21.114  0.00  0.00    +0.000 C 
ATOM      6  C   UNL     1       1.835   6.514  20.461  0.00  0.00    +0.000 A 
ATOM      7  N   UNL     1       2.145   5.269  20.938  0.00  0.00    +0.000 NA
ATOM      8  C   UNL     1       2.970   4.755  20.048  0.00  0.00    +0.000 A 
ATOM      9  N   UNL     1       3.179   5.600  18.987  0.00  0.00    +0.000 N 
ATOM     10  C   UNL     1       2.468   6.736  19.255  0.00  0.00    +0.000 A 
ATOM     11  C   UNL     1       2.312   7.976  18.455  0.00  0.00    +0.000 C 
ATOM     12  C   UNL     1       0.974   8.625  18.889  0.00  0.00    +0.000 C 
ATOM     13  H   UNL     1       0.923  11.205  19.580  0.00  0.00    +0.000 HD
ENDROOT
BRANCH   1  15
ATOM     14  C   UNL     1       2.254  13.234  20.338  0.00  0.00    +0.000 C 
ATOM     15  C   UNL     1       1.390  12.359  21.237  0.00  0.00    +0.000 C 
ATOM     16  C   UNL     1       0.067  13.060  21.554  0.00  0.00    +0.000 C 
ENDBRANCH   1  15
BRANCH  12  17
ATOM     17  C   UNL     1       0.622   9.803  17.986  0.00  0.00    +0.000 C 
ATOM     18  O   UNL     1      -0.508  10.217  17.774  0.00  0.00    +0.000 OA
BRANCH  17  19
ATOM     19  O   UNL     1       1.717  10.392  17.444  0.00  0.00    +0.000 OA
ATOM     20  H   UNL     1       2.266  10.848  18.121  0.00  0.00    +0.000 HD
ENDBRANCH  17  19
ENDBRANCH  12  17
BRANCH   9  21
ATOM     21  C   UNL     1       4.131   5.373  17.911  0.00  0.00    +0.000 C 
BRANCH  21  22
ATOM     22  C   UNL     1       5.505   5.949  18.167  0.00  0.00    +0.000 A 
ATOM     23  C   UNL     1       6.347   5.395  19.144  0.00  0.00    +0.000 A 
ATOM     24  C   UNL     1       7.659   5.849  19.300  0.00  0.00    +0.000 A 
ATOM     25  C   UNL     1       8.150   6.864  18.484  0.00  0.00    +0.000 A 
ATOM     26  C   UNL     1       7.319   7.445  17.528  0.00  0.00    +0.000 A 
ATOM     27  C   UNL     1       6.002   6.996  17.376  0.00  0.00    +0.000 A 
ENDBRANCH  21  22
ENDBRANCH   9  21
TORSDOF 5
ENDMDL
MODEL 5
REMARK VINA RESULT:      -6.6      2.762      7.641
REMARK  Name = 
REMARK  7 active torsions:
REMARK  status: ('A' for Active; 'I' for Inactive)
REMARK    1  A    between atoms: C_1  and  C_2
REMARK    2  A    between atoms: C_2  and  C_3
REMARK    3  A    between atoms: C_2  and  N_4
REMARK    4  A    between atoms: N_12  and  C_13
REMARK    5  A    between atoms: C_13  and  C_14
REMARK    6  A    between atoms: C_22  and  C_23
REMARK    7  A    between atoms: C_23  and  O_25
REMARK                            x       y       z     vdW  Elec       q    Type
REMARK                         _______ _______ _______ _____ _____    ______ ____
ROOT
ATOM      1  N   UNL     1       6.635   4.722  14.954  0.00  0.00    +0.000 N 
ATOM      2  C   UNL     1       5.398   4.279  15.345  0.00  0.00    +0.000 C 
ATOM      3  O   UNL     1       4.499   4.119  14.524  0.00  0.00    +0.000 OA
ATOM      4  N   UNL     1       5.308   3.847  16.673  0.00  0.00    +0.000 N 
ATOM      5  C   UNL     1       4.044   3.127  17.019  0.00  0.00    +0.000 C 
ATOM      6  C   UNL     1       3.245   3.917  18.018  0.00  0.00    +0.000 A 
ATOM      7  N   UNL     1       1.999   3.573  18.470  0.00  0.00    +0.000 NA
ATOM      8  C   UNL     1       1.691   4.491  19.365  0.00  0.00    +0.000 A 
ATOM      9  N   UNL     1       2.705   5.399  19.545  0.00  0.00    +0.000 N 
ATOM     10  C   UNL     1       3.696   5.045  18.672  0.00  0.00    +0.000 A 
ATOM     11  C   UNL     1       5.028   5.659  18.440  0.00  0.00    +0.000 C 
ATOM     12  C   UNL     1       5.936   4.550  17.852  0.00  0.00    +0.000 C 
ATOM     13  H   UNL     1       7.321   5.029  15.617  0.00  0.00    +0.000 HD
ENDROOT
BRANCH   1  15
ATOM     14  C   UNL     1       8.401   5.595  13.518  0.00  0.00    +0.000 C 
ATOM     15  C   UNL     1       6.972   5.069  13.575  0.00  0.00    +0.000 C 
ATOM     16  C   UNL     1       6.825   3.822  12.700  0.00  0.00    +0.000 C 
ENDBRANCH   1  15
BRANCH  12  17
ATOM     17  C   UNL     1       7.383   5.023  17.761  0.00  0.00    +0.000 C 
ATOM     18  O   UNL     1       7.776   6.149  18.025  0.00  0.00    +0.000 OA
BRANCH  17  19
ATOM     19  O   UNL     1       8.232   4.036  17.379  0.00  0.00    +0.000 OA
ATOM     20  H   UNL     1       8.964   3.906  18.024  0.00  0.00    +0.000 HD
ENDBRANCH  17  19
ENDBRANCH  12  17
BRANCH   9  21
ATOM     21  C   UNL     1       2.620   6.596  20.366  0.00  0.00    +0.000 C 
BRANCH  21  22
ATOM     22  C   UNL     1       2.012   7.788  19.662  0.00  0.00    +0.000 A 
ATOM     23  C   UNL     1       2.218   7.995  18.289  0.00  0.00    +0.000 A 
ATOM     24  C   UNL     1       1.561   9.026  17.613  0.00  0.00    +0.000 A 
ATOM     25  C   UNL     1       0.688   9.867  18.299  0.00  0.00    +0.000 A 
ATOM     26  C   UNL     1       0.492   9.693  19.667  0.00  0.00    +0.000 A 
ATOM     27  C   UNL     1       1.156   8.665  20.347  0.00  0.00    +0.000 A 
ENDBRANCH  21  22
ENDBRANCH   9  21
TORSDOF 5
ENDMDL
MODEL 6
REMARK VINA RESULT:      -6.6      6.055      8.556
REMARK  Name = 
REMARK  7 active torsions:
REMARK  status: ('A' for Active; 'I' for Inactive)
REMARK    1  A    between atoms: C_1  and  C_2
REMARK    2  A    between atoms: C_2  and  C_3
REMARK    3  A    between atoms: C_2  and  N_4
REMARK    4  A    between atoms: N_12  and  C_13
REMARK    5  A    between atoms: C_13  and  C_14
REMARK    6  A    between atoms: C_22  and  C_23
REMARK    7  A    between atoms: C_23  and  O_25
REMARK                            x       y       z     vdW  Elec       q    Type
REMARK                         _______ _______ _______ _____ _____    ______ ____
ROOT
ATOM      1  N   UNL     1      -1.478  11.423  19.391  0.00  0.00    +0.000 N 
ATOM      2  C   UNL     1      -0.613  10.700  18.610  0.00  0.00    +0.000 C 
ATOM      3  O   UNL     1      -0.886  10.446  17.440  0.00  0.00    +0.000 OA
ATOM      4  N   UNL     1       0.645  10.461  19.173  0.00  0.00    +0.000 N 
ATOM      5  C   UNL     1       1.664   9.908  18.229  0.00  0.00    +0.000 C 
ATOM      6  C   UNL     1       2.058   8.515  18.636  0.00  0.00    +0.000 A 
ATOM      7  N   UNL     1       2.903   7.704  17.929  0.00  0.00    +0.000 NA
ATOM      8  C   UNL     1       3.021   6.611  18.656  0.00  0.00    +0.000 A 
ATOM      9  N   UNL     1       2.317   6.692  19.831  0.00  0.00    +0.000 N 
ATOM     10  C   UNL     1       1.684   7.904  19.815  0.00  0.00    +0.000 A 
ATOM     11  C   UNL     1       0.800   8.533  20.829  0.00  0.00    +0.000 C 
ATOM     12  C   UNL     1       0.884  10.064  20.609  0.00  0.00    +0.000 C 
ATOM     13  H   UNL     1      -1.365  11.489  20.385  0.00  0.00    +0.000 HD
ENDROOT
BRANCH   1  15
ATOM     14  C   UNL     1      -3.602  10.734  18.414  0.00  0.00    +0.000 C 
ATOM     15  C   UNL     1      -2.776  11.907  18.927  0.00  0.00    +0.000 C 
ATOM     16  C   UNL     1      -3.493  12.598  20.089  0.00  0.00    +0.000 C 
ENDBRANCH   1  15
BRANCH  12  17
ATOM     17  C   UNL     1       0.167  10.815  21.727  0.00  0.00    +0.000 C 
ATOM     18  O   UNL     1       0.169  12.027  21.877  0.00  0.00    +0.000 OA
BRANCH  17  19
ATOM     19  O   UNL     1      -0.528   9.989  22.549  0.00  0.00    +0.000 OA
ATOM     20  H   UNL     1      -0.156   9.078  22.560  0.00  0.00    +0.000 HD
ENDBRANCH  17  19
ENDBRANCH  12  17
BRANCH   9  21
ATOM     21  C   UNL     1       2.146   5.605  20.782  0.00  0.00    +0.000 C 
BRANCH  21  22
ATOM     22  C   UNL     1       2.086   4.234  20.150  0.00  0.00    +0.000 A 
ATOM     23  C   UNL     1       0.878   3.725  19.649  0.00  0.00    +0.000 A 
ATOM     24  C   UNL     1       0.842   2.510  18.959  0.00  0.00    +0.000 A 
ATOM     25  C   UNL     1       2.014   1.786  18.758  0.00  0.00    +0.000 A 
ATOM     26  C   UNL     1       3.218   2.262  19.272  0.00  0.00    +0.000 A 
ATOM     27  C   UNL     1       3.253   3.474  19.971  0.00  0.00    +0.000 A 
ENDBRANCH  21  22
ENDBRANCH   9  21
TORSDOF 5
ENDMDL
MODEL 7
REMARK VINA RESULT:      -6.6      6.041      8.474
REMARK  Name = 
REMARK  7 active torsions:
REMARK  status: ('A' for Active; 'I' for Inactive)
REMARK    1  A    between atoms: C_1  and  C_2
REMARK    2  A    between atoms: C_2  and  C_3
REMARK    3  A    between atoms: C_2  and  N_4
REMARK    4  A    between atoms: N_12  and  C_13
REMARK    5  A    between atoms: C_13  and  C_14
REMARK    6  A    between atoms: C_22  and  C_23
REMARK    7  A    between atoms: C_23  and  O_25
REMARK                            x       y       z     vdW  Elec       q    Type
REMARK                         _______ _______ _______ _____ _____    ______ ____
ROOT
ATOM      1  N   UNL     1      -1.559  11.331  19.257  0.00  0.00    +0.000 N 
ATOM      2  C   UNL     1      -0.665  10.655  18.466  0.00  0.00    +0.000 C 
ATOM      3  O   UNL     1      -0.933  10.395  17.296  0.00  0.00    +0.000 OA
ATOM      4  N   UNL     1       0.606  10.471  19.020  0.00  0.00    +0.000 N 
ATOM      5  C   UNL     1       1.645   9.974  18.067  0.00  0.00    +0.000 C 
ATOM      6  C   UNL     1       2.106   8.599  18.463  0.00  0.00    +0.000 A 
ATOM      7  N   UNL     1       2.985   7.833  17.745  0.00  0.00    +0.000 NA
ATOM      8  C   UNL     1       3.159   6.742  18.464  0.00  0.00    +0.000 A 
ATOM      9  N   UNL     1       2.459   6.783  19.644  0.00  0.00    +0.000 N 
ATOM     10  C   UNL     1       1.769   7.963  19.640  0.00  0.00    +0.000 A 
ATOM     11  C   UNL     1       0.862   8.542  20.663  0.00  0.00    +0.000 C 
ATOM     12  C   UNL     1       0.873  10.077  20.453  0.00  0.00    +0.000 C 
ATOM     13  H   UNL     1      -1.443  11.395  20.250  0.00  0.00    +0.000 HD
ENDROOT
BRANCH   1  15
ATOM     14  C   UNL     1      -3.705  10.531  18.423  0.00  0.00    +0.000 C 
ATOM     15  C   UNL     1      -2.881  11.755  18.803  0.00  0.00    +0.000 C 
ATOM     16  C   UNL     1      -3.566  12.533  19.929  0.00  0.00    +0.000 C 
ENDBRANCH   1  15
BRANCH  12  17
ATOM     17  C   UNL     1       0.126  10.786  21.579  0.00  0.00    +0.000 C 
ATOM     18  O   UNL     1      -0.697  10.266  22.316  0.00  0.00    +0.000 OA
BRANCH  17  19
ATOM     19  O   UNL     1       0.496  12.084  21.716  0.00  0.00    +0.000 OA
ATOM     20  H   UNL     1       0.743  12.304  22.642  0.00  0.00    +0.000 HD
ENDBRANCH  17  19
ENDBRANCH  12  17
BRANCH   9  21
ATOM     21  C   UNL     1       2.345   5.682  20.589  0.00  0.00    +0.000 C 
BRANCH  21  22
ATOM     22  C   UNL     1       2.238   4.320  19.942  0.00  0.00    +0.000 A 
ATOM     23  C   UNL     1       3.368   3.501  19.797  0.00  0.00    +0.000 A 
ATOM     24  C   UNL     1       3.250   2.197  19.310  0.00  0.00    +0.000 A 
ATOM     25  C   UNL     1       2.001   1.691  18.960  0.00  0.00    +0.000 A 
ATOM     26  C   UNL     1       0.872   2.500  19.071  0.00  0.00    +0.000 A 
ATOM     27  C   UNL     1       0.990   3.809  19.552  0.00  0.00    +0.000 A 
ENDBRANCH  21  22
ENDBRANCH   9  21
TORSDOF 5
ENDMDL
MODEL 8
REMARK VINA RESULT:      -6.5     10.961     14.570
REMARK  Name = 
REMARK  7 active torsions:
REMARK  status: ('A' for Active; 'I' for Inactive)
REMARK    1  A    between atoms: C_1  and  C_2
REMARK    2  A    between atoms: C_2  and  C_3
REMARK    3  A    between atoms: C_2  and  N_4
REMARK    4  A    between atoms: N_12  and  C_13
REMARK    5  A    between atoms: C_13  and  C_14
REMARK    6  A    between atoms: C_22  and  C_23
REMARK    7  A    between atoms: C_23  and  O_25
REMARK                            x       y       z     vdW  Elec       q    Type
REMARK                         _______ _______ _______ _____ _____    ______ ____
ROOT
ATOM      1  N   UNL     1      -6.845  14.176  18.303  0.00  0.00    +0.000 N 
ATOM      2  C   UNL     1      -6.816  14.099  19.672  0.00  0.00    +0.000 C 
ATOM      3  O   UNL     1      -7.363  14.954  20.362  0.00  0.00    +0.000 OA
ATOM      4  N   UNL     1      -6.306  12.904  20.193  0.00  0.00    +0.000 N 
ATOM      5  C   UNL     1      -6.516  12.716  21.661  0.00  0.00    +0.000 C 
ATOM      6  C   UNL     1      -5.198  12.707  22.384  0.00  0.00    +0.000 A 
ATOM      7  N   UNL     1      -5.053  12.642  23.744  0.00  0.00    +0.000 NA
ATOM      8  C   UNL     1      -3.752  12.601  23.951  0.00  0.00    +0.000 A 
ATOM      9  N   UNL     1      -3.041  12.596  22.776  0.00  0.00    +0.000 N 
ATOM     10  C   UNL     1      -3.963  12.682  21.770  0.00  0.00    +0.000 A 
ATOM     11  C   UNL     1      -3.770  12.701  20.299  0.00  0.00    +0.000 C 
ATOM     12  C   UNL     1      -5.087  12.186  19.667  0.00  0.00    +0.000 C 
ATOM     13  H   UNL     1      -6.261  13.600  17.728  0.00  0.00    +0.000 HD
ENDROOT
BRANCH   1  15
ATOM     14  C   UNL     1      -6.605  16.516  17.661  0.00  0.00    +0.000 C 
ATOM     15  C   UNL     1      -7.477  15.270  17.568  0.00  0.00    +0.000 C 
ATOM     16  C   UNL     1      -7.656  14.848  16.108  0.00  0.00    +0.000 C 
ENDBRANCH   1  15
BRANCH  12  17
ATOM     17  C   UNL     1      -4.927  11.979  18.164  0.00  0.00    +0.000 C 
ATOM     18  O   UNL     1      -5.819  11.652  17.397  0.00  0.00    +0.000 OA
BRANCH  17  19
ATOM     19  O   UNL     1      -3.665  12.232  17.734  0.00  0.00    +0.000 OA
ATOM     20  H   UNL     1      -3.648  12.555  16.805  0.00  0.00    +0.000 HD
ENDBRANCH  17  19
ENDBRANCH  12  17
BRANCH   9  21
ATOM     21  C   UNL     1      -1.593  12.683  22.674  0.00  0.00    +0.000 C 
BRANCH  21  22
ATOM     22  C   UNL     1      -0.923  11.394  22.257  0.00  0.00    +0.000 A 
ATOM     23  C   UNL     1      -0.851  10.303  23.137  0.00  0.00    +0.000 A 
ATOM     24  C   UNL     1      -0.341   9.073  22.714  0.00  0.00    +0.000 A 
ATOM     25  C   UNL     1       0.107   8.915  21.404  0.00  0.00    +0.000 A 
ATOM     26  C   UNL     1       0.069   9.995  20.526  0.00  0.00    +0.000 A 
ATOM     27  C   UNL     1      -0.435  11.229  20.951  0.00  0.00    +0.000 A 
ENDBRANCH  21  22
ENDBRANCH   9  21
TORSDOF 5
ENDMDL
MODEL 9
REMARK VINA RESULT:      -6.5      5.177      7.550
REMARK  Name = 
REMARK  7 active torsions:
REMARK  status: ('A' for Active; 'I' for Inactive)
REMARK    1  A    between atoms: C_1  and  C_2
REMARK    2  A    between atoms: C_2  and  C_3
REMARK    3  A    between atoms: C_2  and  N_4
REMARK    4  A    between atoms: N_12  and  C_13
REMARK    5  A    between atoms: C_13  and  C_14
REMARK    6  A    between atoms: C_22  and  C_23
REMARK    7  A    between atoms: C_23  and  O_25
REMARK                            x       y       z     vdW  Elec       q    Type
REMARK                         _______ _______ _______ _____ _____    ______ ____
ROOT
ATOM      1  N   UNL     1       0.001  11.658  20.958  0.00  0.00    +0.000 N 
ATOM      2  C   UNL     1       0.561  10.451  21.289  0.00  0.00    +0.000 C 
ATOM      3  O   UNL     1       1.126  10.294  22.367  0.00  0.00    +0.000 OA
ATOM      4  N   UNL     1       0.270   9.397  20.416  0.00  0.00    +0.000 N 
ATOM      5  C   UNL     1       0.657   8.041  20.912  0.00  0.00    +0.000 C 
ATOM      6  C   UNL     1       1.738   7.453  20.048  0.00  0.00    +0.000 A 
ATOM      7  N   UNL     1       2.371   6.263  20.289  0.00  0.00    +0.000 NA
ATOM      8  C   UNL     1       3.194   6.099  19.273  0.00  0.00    +0.000 A 
ATOM      9  N   UNL     1       3.096   7.116  18.357  0.00  0.00    +0.000 N 
ATOM     10  C   UNL     1       2.176   7.995  18.858  0.00  0.00    +0.000 A 
ATOM     11  C   UNL     1       1.662   9.266  18.288  0.00  0.00    +0.000 C 
ATOM     12  C   UNL     1       0.263   9.502  18.910  0.00  0.00    +0.000 C 
ATOM     13  H   UNL     1      -0.302  11.863  20.025  0.00  0.00    +0.000 HD
ENDROOT
BRANCH   1  15
ATOM     14  C   UNL     1       0.115  14.093  20.954  0.00  0.00    +0.000 C 
ATOM     15  C   UNL     1       0.058  12.839  21.817  0.00  0.00    +0.000 C 
ATOM     16  C   UNL     1      -1.182  12.861  22.713  0.00  0.00    +0.000 C 
ENDBRANCH   1  15
BRANCH  12  17
ATOM     17  C   UNL     1      -0.439  10.680  18.242  0.00  0.00    +0.000 C 
ATOM     18  O   UNL     1      -1.612  10.702  17.902  0.00  0.00    +0.000 OA
BRANCH  17  19
ATOM     19  O   UNL     1       0.376  11.752  18.082  0.00  0.00    +0.000 OA
ATOM     20  H   UNL     1       0.725  12.084  18.940  0.00  0.00    +0.000 HD
ENDBRANCH  17  19
ENDBRANCH  12  17
BRANCH   9  21
ATOM     21  C   UNL     1       3.958   7.285  17.198  0.00  0.00    +0.000 C 
BRANCH  21  22
ATOM     22  C   UNL     1       5.087   6.283  17.115  0.00  0.00    +0.000 A 
ATOM     23  C   UNL     1       4.946   5.102  16.370  0.00  0.00    +0.000 A 
ATOM     24  C   UNL     1       6.026   4.233  16.193  0.00  0.00    +0.000 A 
ATOM     25  C   UNL     1       7.263   4.531  16.758  0.00  0.00    +0.000 A 
ATOM     26  C   UNL     1       7.413   5.685  17.524  0.00  0.00    +0.000 A 
ATOM     27  C   UNL     1       6.330   6.552  17.708  0.00  0.00    +0.000 A 
ENDBRANCH  21  22
ENDBRANCH   9  21
TORSDOF 5
ENDMDL
