MODEL 1
REMARK VINA RESULT:      -8.5      0.000      0.000
REMARK  Name = 
REMARK  6 active torsions:
REMARK  status: ('A' for Active; 'I' for Inactive)
REMARK    1  A    between atoms: C_1  and  C_2
REMARK    2  A    between atoms: C_7  and  C_8
REMARK    3  A    between atoms: N_11  and  C_12
REMARK    4  A    between atoms: C_15  and  N_16
REMARK    5  A    between atoms: C_17  and  C_19
REMARK    6  A    between atoms: C_20  and  C_21
REMARK                            x       y       z     vdW  Elec       q    Type
REMARK                         _______ _______ _______ _____ _____    ______ ____
ROOT
ATOM      1  C   UNL     1       0.559  11.400  21.162  0.00  0.00    +0.000 C 
ATOM      2  C   UNL     1       1.163  10.271  22.037  0.00  0.00    +0.000 C 
ATOM      3  C   UNL     1       0.562   8.884  21.775  0.00  0.00    +0.000 C 
ATOM      4  C   UNL     1       0.491   8.478  20.293  0.00  0.00    +0.000 C 
ATOM      5  C   UNL     1       0.054   9.632  19.380  0.00  0.00    +0.000 C 
ATOM      6  C   UNL     1       0.778  10.941  19.697  0.00  0.00    +0.000 C 
ENDROOT
BRANCH   1  10
ATOM      7  C   UNL     1      -3.112  13.222  22.899  0.00  0.00    +0.000 C 
ATOM      8  C   UNL     1      -2.548  11.877  23.400  0.00  0.00    +0.000 C 
ATOM      9  C   UNL     1      -1.114  11.531  22.958  0.00  0.00    +0.000 C 
ATOM     10  N   UNL     1      -0.855  11.747  21.517  0.00  0.00    +0.000 NA
ATOM     11  C   UNL     1      -1.172  13.158  21.215  0.00  0.00    +0.000 C 
ATOM     12  C   UNL     1      -2.643  13.493  21.467  0.00  0.00    +0.000 C 
BRANCH   7  19
ATOM     13  C   UNL     1      -5.458  15.034  23.574  0.00  0.00    +0.000 C 
ATOM     14  C   UNL     1      -4.065  15.300  24.091  0.00  0.00    +0.000 A 
ATOM     15  C   UNL     1      -3.894  16.427  24.919  0.00  0.00    +0.000 A 
ATOM     16  C   UNL     1      -2.655  16.729  25.469  0.00  0.00    +0.000 A 
ATOM     17  C   UNL     1      -1.570  15.906  25.204  0.00  0.00    +0.000 A 
ATOM     18  C   UNL     1      -1.718  14.785  24.373  0.00  0.00    +0.000 A 
ATOM     19  C   UNL     1      -2.957  14.454  23.801  0.00  0.00    +0.000 A 
ENDBRANCH   7  19
ENDBRANCH   1  10
BRANCH   4  20
ATOM     20  N   UNL     1       1.761   7.912  19.838  0.00  0.00    +0.000 N 
ATOM     21  C   UNL     1       2.097   6.595  20.075  0.00  0.00    +0.000 C 
ATOM     22  O   UNL     1       1.436   5.803  20.725  0.00  0.00    +0.000 OA
ATOM     23  H   UNL     1       2.309   8.458  19.187  0.00  0.00    +0.000 HD
BRANCH  21  24
ATOM     24  C   UNL     1       3.366   6.210  19.416  0.00  0.00    +0.000 C 
ATOM     25  C   UNL     1       3.977   5.031  19.605  0.00  0.00    +0.000 C 
BRANCH  25  26
ATOM     26  C   UNL     1       5.187   4.811  18.808  0.00  0.00    +0.000 A 
ATOM     27  C   UNL     1       6.295   5.672  18.975  0.00  0.00    +0.000 A 
ATOM     28  C   UNL     1       7.230   5.835  17.949  0.00  0.00    +0.000 A 
ATOM     29  C   UNL     1       6.990   5.160  16.773  0.00  0.00    +0.000 A 
ATOM     30  C   UNL     1       5.962   4.245  16.647  0.00  0.00    +0.000 A 
ATOM     31  C   UNL     1       5.073   4.004  17.665  0.00  0.00    +0.000 A 
ATOM     32  O   UNL     1       5.833   3.789  15.369  0.00  0.00    +0.000 OA
ATOM     33  C   UNL     1       6.610   4.802  14.720  0.00  0.00    +0.000 C 
ATOM     34  F   UNL     1       5.758   5.778  14.301  0.00  0.00    +0.000 F 
ATOM     35  F   UNL     1       7.207   4.285  13.625  0.00  0.00    +0.000 F 
ATOM     36  O   UNL     1       7.600   5.399  15.575  0.00  0.00    +0.000 OA
ENDBRANCH  25  26
ENDBRANCH  21  24
ENDBRANCH   4  20
TORSDOF 5
ENDMDL
MODEL 2
REMARK VINA RESULT:      -7.8      2.229      3.271
REMARK  Name = 
REMARK  6 active torsions:
REMARK  status: ('A' for Active; 'I' for Inactive)
REMARK    1  A    between atoms: C_1  and  C_2
REMARK    2  A    between atoms: C_7  and  C_8
REMARK    3  A    between atoms: N_11  and  C_12
REMARK    4  A    between atoms: C_15  and  N_16
REMARK    5  A    between atoms: C_17  and  C_19
REMARK    6  A    between atoms: C_20  and  C_21
REMARK                            x       y       z     vdW  Elec       q    Type
REMARK                         _______ _______ _______ _____ _____    ______ ____
ROOT
ATOM      1  C   UNL     1      -0.335  11.791  21.741  0.00  0.00    +0.000 C 
ATOM      2  C   UNL     1      -1.074  10.569  21.137  0.00  0.00    +0.000 C 
ATOM      3  C   UNL     1      -1.263  10.637  19.617  0.00  0.00    +0.000 C 
ATOM      4  C   UNL     1       0.007  10.982  18.820  0.00  0.00    +0.000 C 
ATOM      5  C   UNL     1       0.847  12.080  19.488  0.00  0.00    +0.000 C 
ATOM      6  C   UNL     1       1.020  11.858  20.992  0.00  0.00    +0.000 C 
ENDROOT
BRANCH   1  10
ATOM      7  C   UNL     1      -3.541  14.854  22.149  0.00  0.00    +0.000 C 
ATOM      8  C   UNL     1      -3.231  14.164  20.804  0.00  0.00    +0.000 C 
ATOM      9  C   UNL     1      -2.346  12.905  20.870  0.00  0.00    +0.000 C 
ATOM     10  N   UNL     1      -1.141  13.056  21.716  0.00  0.00    +0.000 NA
ATOM     11  C   UNL     1      -1.591  13.452  23.065  0.00  0.00    +0.000 C 
ATOM     12  C   UNL     1      -2.316  14.798  23.067  0.00  0.00    +0.000 C 
BRANCH   7  19
ATOM     13  C   UNL     1      -5.756  16.863  22.698  0.00  0.00    +0.000 C 
ATOM     14  C   UNL     1      -5.849  15.423  23.145  0.00  0.00    +0.000 A 
ATOM     15  C   UNL     1      -7.023  15.039  23.823  0.00  0.00    +0.000 A 
ATOM     16  C   UNL     1      -7.211  13.728  24.240  0.00  0.00    +0.000 A 
ATOM     17  C   UNL     1      -6.232  12.780  23.980  0.00  0.00    +0.000 A 
ATOM     18  C   UNL     1      -5.052  13.146  23.315  0.00  0.00    +0.000 A 
ATOM     19  C   UNL     1      -4.832  14.463  22.883  0.00  0.00    +0.000 A 
ENDBRANCH   7  19
ENDBRANCH   1  10
BRANCH   4  20
ATOM     20  N   UNL     1       0.817   9.790  18.574  0.00  0.00    +0.000 N 
ATOM     21  C   UNL     1       2.026   9.855  17.912  0.00  0.00    +0.000 C 
ATOM     22  O   UNL     1       2.506  10.860  17.414  0.00  0.00    +0.000 OA
ATOM     23  H   UNL     1       0.559   8.941  19.060  0.00  0.00    +0.000 HD
BRANCH  21  24
ATOM     24  C   UNL     1       2.729   8.551  17.891  0.00  0.00    +0.000 C 
ATOM     25  C   UNL     1       2.210   7.416  18.382  0.00  0.00    +0.000 C 
BRANCH  25  26
ATOM     26  C   UNL     1       3.033   6.217  18.204  0.00  0.00    +0.000 A 
ATOM     27  C   UNL     1       2.951   5.170  19.150  0.00  0.00    +0.000 A 
ATOM     28  C   UNL     1       4.015   4.280  19.320  0.00  0.00    +0.000 A 
ATOM     29  C   UNL     1       5.144   4.504  18.563  0.00  0.00    +0.000 A 
ATOM     30  C   UNL     1       5.185   5.466  17.572  0.00  0.00    +0.000 A 
ATOM     31  C   UNL     1       4.126   6.305  17.327  0.00  0.00    +0.000 A 
ATOM     32  O   UNL     1       6.430   5.598  17.035  0.00  0.00    +0.000 OA
ATOM     33  C   UNL     1       7.159   4.916  18.063  0.00  0.00    +0.000 C 
ATOM     34  F   UNL     1       7.603   5.849  18.950  0.00  0.00    +0.000 F 
ATOM     35  F   UNL     1       8.244   4.316  17.527  0.00  0.00    +0.000 F 
ATOM     36  O   UNL     1       6.372   3.949  18.776  0.00  0.00    +0.000 OA
ENDBRANCH  25  26
ENDBRANCH  21  24
ENDBRANCH   4  20
TORSDOF 5
ENDMDL
MODEL 3
REMARK VINA RESULT:      -7.8      3.004      3.976
REMARK  Name = 
REMARK  6 active torsions:
REMARK  status: ('A' for Active; 'I' for Inactive)
REMARK    1  A    between atoms: C_1  and  C_2
REMARK    2  A    between atoms: C_7  and  C_8
REMARK    3  A    between atoms: N_11  and  C_12
REMARK    4  A    between atoms: C_15  and  N_16
REMARK    5  A    between atoms: C_17  and  C_19
REMARK    6  A    between atoms: C_20  and  C_21
REMARK                            x       y       z     vdW  Elec       q    Type
REMARK                         _______ _______ _______ _____ _____    ______ ____
ROOT
ATOM      1  C   UNL     1      -1.238  10.569  21.319  0.00  0.00    +0.000 C 
ATOM      2  C   UNL     1      -1.297  10.145  19.828  0.00  0.00    +0.000 C 
ATOM      3  C   UNL     1      -0.098  10.613  18.994  0.00  0.00    +0.000 C 
ATOM      4  C   UNL     1       1.279  10.318  19.615  0.00  0.00    +0.000 C 
ATOM      5  C   UNL     1       1.315  10.572  21.129  0.00  0.00    +0.000 C 
ATOM      6  C   UNL     1       0.098   9.995  21.853  0.00  0.00    +0.000 C 
ENDROOT
BRANCH   1  10
ATOM      7  C   UNL     1      -2.893  14.594  22.259  0.00  0.00    +0.000 C 
ATOM      8  C   UNL     1      -2.739  14.088  20.810  0.00  0.00    +0.000 C 
ATOM      9  C   UNL     1      -2.478  12.580  20.637  0.00  0.00    +0.000 C 
ATOM     10  N   UNL     1      -1.432  12.040  21.535  0.00  0.00    +0.000 NA
ATOM     11  C   UNL     1      -1.835  12.348  22.922  0.00  0.00    +0.000 C 
ATOM     12  C   UNL     1      -1.925  13.852  23.185  0.00  0.00    +0.000 C 
BRANCH   7  19
ATOM     13  C   UNL     1      -3.940  17.126  23.576  0.00  0.00    +0.000 C 
ATOM     14  C   UNL     1      -4.772  15.870  23.478  0.00  0.00    +0.000 A 
ATOM     15  C   UNL     1      -6.073  15.921  24.016  0.00  0.00    +0.000 A 
ATOM     16  C   UNL     1      -6.922  14.825  23.939  0.00  0.00    +0.000 A 
ATOM     17  C   UNL     1      -6.485  13.663  23.319  0.00  0.00    +0.000 A 
ATOM     18  C   UNL     1      -5.189  13.590  22.787  0.00  0.00    +0.000 A 
ATOM     19  C   UNL     1      -4.307  14.681  22.850  0.00  0.00    +0.000 A 
ENDBRANCH   7  19
ENDBRANCH   1  10
BRANCH   4  20
ATOM     20  N   UNL     1       1.715   8.955  19.310  0.00  0.00    +0.000 N 
ATOM     21  C   UNL     1       2.283   8.628  18.096  0.00  0.00    +0.000 C 
ATOM     22  O   UNL     1       2.417   9.387  17.151  0.00  0.00    +0.000 OA
ATOM     23  H   UNL     1       1.758   8.296  20.075  0.00  0.00    +0.000 HD
BRANCH  21  24
ATOM     24  C   UNL     1       2.763   7.227  18.057  0.00  0.00    +0.000 C 
ATOM     25  C   UNL     1       1.963   6.169  17.859  0.00  0.00    +0.000 C 
BRANCH  25  26
ATOM     26  C   UNL     1       2.638   4.871  17.786  0.00  0.00    +0.000 A 
ATOM     27  C   UNL     1       1.920   3.738  17.342  0.00  0.00    +0.000 A 
ATOM     28  C   UNL     1       2.321   2.452  17.714  0.00  0.00    +0.000 A 
ATOM     29  C   UNL     1       3.404   2.355  18.559  0.00  0.00    +0.000 A 
ATOM     30  C   UNL     1       4.162   3.456  18.911  0.00  0.00    +0.000 A 
ATOM     31  C   UNL     1       3.839   4.725  18.497  0.00  0.00    +0.000 A 
ATOM     32  O   UNL     1       5.105   3.153  19.847  0.00  0.00    +0.000 OA
ATOM     33  C   UNL     1       4.564   1.896  20.270  0.00  0.00    +0.000 C 
ATOM     34  F   UNL     1       3.774   2.125  21.356  0.00  0.00    +0.000 F 
ATOM     35  F   UNL     1       5.566   1.079  20.661  0.00  0.00    +0.000 F 
ATOM     36  O   UNL     1       3.774   1.245  19.262  0.00  0.00    +0.000 OA
ENDBRANCH  25  26
ENDBRANCH  21  24
ENDBRANCH   4  20
TORSDOF 5
ENDMDL
MODEL 4
REMARK VINA RESULT:      -7.8      1.986      2.962
REMARK  Name = 
REMARK  6 active torsions:
REMARK  status: ('A' for Active; 'I' for Inactive)
REMARK    1  A    between atoms: C_1  and  C_2
REMARK    2  A    between atoms: C_7  and  C_8
REMARK    3  A    between atoms: N_11  and  C_12
REMARK    4  A    between atoms: C_15  and  N_16
REMARK    5  A    between atoms: C_17  and  C_19
REMARK    6  A    between atoms: C_20  and  C_21
REMARK                            x       y       z     vdW  Elec       q    Type
REMARK                         _______ _______ _______ _____ _____    ______ ____
ROOT
ATOM      1  C   UNL     1       1.397  14.142  19.579  0.00  0.00    +0.000 C 
ATOM      2  C   UNL     1       2.155  13.079  20.416  0.00  0.00    +0.000 C 
ATOM      3  C   UNL     1       1.272  11.931  20.921  0.00  0.00    +0.000 C 
ATOM      4  C   UNL     1       0.380  11.280  19.850  0.00  0.00    +0.000 C 
ATOM      5  C   UNL     1      -0.253  12.306  18.900  0.00  0.00    +0.000 C 
ATOM      6  C   UNL     1       0.748  13.355  18.412  0.00  0.00    +0.000 C 
ENDROOT
BRANCH   1  10
ATOM      7  C   UNL     1      -1.893  15.594  22.204  0.00  0.00    +0.000 C 
ATOM      8  C   UNL     1      -1.966  15.693  20.666  0.00  0.00    +0.000 C 
ATOM      9  C   UNL     1      -0.935  14.863  19.879  0.00  0.00    +0.000 C 
ATOM     10  N   UNL     1       0.452  14.982  20.385  0.00  0.00    +0.000 NA
ATOM     11  C   UNL     1       0.440  14.591  21.809  0.00  0.00    +0.000 C 
ATOM     12  C   UNL     1      -0.433  15.513  22.661  0.00  0.00    +0.000 C 
BRANCH   7  19
ATOM     13  C   UNL     1      -4.588  16.319  23.409  0.00  0.00    +0.000 C 
ATOM     14  C   UNL     1      -4.029  14.918  23.479  0.00  0.00    +0.000 A 
ATOM     15  C   UNL     1      -4.819  13.945  24.121  0.00  0.00    +0.000 A 
ATOM     16  C   UNL     1      -4.400  12.623  24.202  0.00  0.00    +0.000 A 
ATOM     17  C   UNL     1      -3.188  12.254  23.637  0.00  0.00    +0.000 A 
ATOM     18  C   UNL     1      -2.383  13.211  23.003  0.00  0.00    +0.000 A 
ATOM     19  C   UNL     1      -2.777  14.555  22.906  0.00  0.00    +0.000 A 
ENDBRANCH   7  19
ENDBRANCH   1  10
BRANCH   4  20
ATOM     20  N   UNL     1       1.114  10.263  19.097  0.00  0.00    +0.000 N 
ATOM     21  C   UNL     1       1.371   9.013  19.622  0.00  0.00    +0.000 C 
ATOM     22  O   UNL     1       1.091   8.650  20.753  0.00  0.00    +0.000 OA
ATOM     23  H   UNL     1       1.271  10.432  18.113  0.00  0.00    +0.000 HD
BRANCH  21  24
ATOM     24  C   UNL     1       2.012   8.109  18.640  0.00  0.00    +0.000 C 
ATOM     25  C   UNL     1       2.674   6.992  18.975  0.00  0.00    +0.000 C 
BRANCH  25  26
ATOM     26  C   UNL     1       3.177   6.195  17.853  0.00  0.00    +0.000 A 
ATOM     27  C   UNL     1       2.900   4.810  17.804  0.00  0.00    +0.000 A 
ATOM     28  C   UNL     1       3.730   3.944  17.086  0.00  0.00    +0.000 A 
ATOM     29  C   UNL     1       4.837   4.497  16.481  0.00  0.00    +0.000 A 
ATOM     30  C   UNL     1       5.051   5.862  16.449  0.00  0.00    +0.000 A 
ATOM     31  C   UNL     1       4.210   6.747  17.078  0.00  0.00    +0.000 A 
ATOM     32  O   UNL     1       6.261   6.180  15.908  0.00  0.00    +0.000 OA
ATOM     33  C   UNL     1       6.862   4.883  15.998  0.00  0.00    +0.000 C 
ATOM     34  F   UNL     1       7.563   4.827  17.165  0.00  0.00    +0.000 F 
ATOM     35  F   UNL     1       7.742   4.719  14.987  0.00  0.00    +0.000 F 
ATOM     36  O   UNL     1       5.908   3.809  15.989  0.00  0.00    +0.000 OA
ENDBRANCH  25  26
ENDBRANCH  21  24
ENDBRANCH   4  20
TORSDOF 5
ENDMDL
MODEL 5
REMARK VINA RESULT:      -7.7      1.371      1.431
REMARK  Name = 
REMARK  6 active torsions:
REMARK  status: ('A' for Active; 'I' for Inactive)
REMARK    1  A    between atoms: C_1  and  C_2
REMARK    2  A    between atoms: C_7  and  C_8
REMARK    3  A    between atoms: N_11  and  C_12
REMARK    4  A    between atoms: C_15  and  N_16
REMARK    5  A    between atoms: C_17  and  C_19
REMARK    6  A    between atoms: C_20  and  C_21
REMARK                            x       y       z     vdW  Elec       q    Type
REMARK                         _______ _______ _______ _____ _____    ______ ____
ROOT
ATOM      1  C   UNL     1      -0.252  11.341  20.643  0.00  0.00    +0.000 C 
ATOM      2  C   UNL     1       0.982  11.002  21.520  0.00  0.00    +0.000 C 
ATOM      3  C   UNL     1       0.908   9.631  22.204  0.00  0.00    +0.000 C 
ATOM      4  C   UNL     1       0.531   8.463  21.277  0.00  0.00    +0.000 C 
ATOM      5  C   UNL     1      -0.580   8.828  20.282  0.00  0.00    +0.000 C 
ATOM      6  C   UNL     1      -0.353  10.186  19.616  0.00  0.00    +0.000 C 
ENDROOT
BRANCH   1  10
ATOM      7  C   UNL     1      -3.593  13.225  22.906  0.00  0.00    +0.000 C 
ATOM      8  C   UNL     1      -2.420  12.513  23.613  0.00  0.00    +0.000 C 
ATOM      9  C   UNL     1      -1.184  12.208  22.747  0.00  0.00    +0.000 C 
ATOM     10  N   UNL     1      -1.500  11.602  21.434  0.00  0.00    +0.000 NA
ATOM     11  C   UNL     1      -2.420  12.519  20.731  0.00  0.00    +0.000 C 
ATOM     12  C   UNL     1      -3.743  12.701  21.475  0.00  0.00    +0.000 C 
BRANCH   7  19
ATOM     13  C   UNL     1      -6.224  14.722  23.181  0.00  0.00    +0.000 C 
ATOM     14  C   UNL     1      -4.899  15.440  23.083  0.00  0.00    +0.000 A 
ATOM     15  C   UNL     1      -4.929  16.847  23.137  0.00  0.00    +0.000 A 
ATOM     16  C   UNL     1      -3.755  17.589  23.088  0.00  0.00    +0.000 A 
ATOM     17  C   UNL     1      -2.536  16.936  22.992  0.00  0.00    +0.000 A 
ATOM     18  C   UNL     1      -2.487  15.535  22.926  0.00  0.00    +0.000 A 
ATOM     19  C   UNL     1      -3.655  14.757  22.971  0.00  0.00    +0.000 A 
ENDBRANCH   7  19
ENDBRANCH   1  10
BRANCH   4  20
ATOM     20  N   UNL     1       1.705   7.946  20.573  0.00  0.00    +0.000 N 
ATOM     21  C   UNL     1       1.893   6.595  20.366  0.00  0.00    +0.000 C 
ATOM     22  O   UNL     1       1.170   5.708  20.789  0.00  0.00    +0.000 OA
ATOM     23  H   UNL     1       2.286   8.612  20.082  0.00  0.00    +0.000 HD
BRANCH  21  24
ATOM     24  C   UNL     1       3.078   6.313  19.524  0.00  0.00    +0.000 C 
ATOM     25  C   UNL     1       3.025   5.649  18.360  0.00  0.00    +0.000 C 
BRANCH  25  26
ATOM     26  C   UNL     1       4.296   5.532  17.641  0.00  0.00    +0.000 A 
ATOM     27  C   UNL     1       4.963   6.702  17.211  0.00  0.00    +0.000 A 
ATOM     28  C   UNL     1       5.856   6.657  16.137  0.00  0.00    +0.000 A 
ATOM     29  C   UNL     1       6.011   5.444  15.504  0.00  0.00    +0.000 A 
ATOM     30  C   UNL     1       5.435   4.284  15.987  0.00  0.00    +0.000 A 
ATOM     31  C   UNL     1       4.615   4.282  17.088  0.00  0.00    +0.000 A 
ATOM     32  O   UNL     1       5.617   3.230  15.143  0.00  0.00    +0.000 OA
ATOM     33  C   UNL     1       6.000   3.974  13.980  0.00  0.00    +0.000 C 
ATOM     34  F   UNL     1       4.881   4.188  13.233  0.00  0.00    +0.000 F 
ATOM     35  F   UNL     1       6.853   3.241  13.233  0.00  0.00    +0.000 F 
ATOM     36  O   UNL     1       6.593   5.246  14.285  0.00  0.00    +0.000 OA
ENDBRANCH  25  26
ENDBRANCH  21  24
ENDBRANCH   4  20
TORSDOF 5
ENDMDL
MODEL 6
REMARK VINA RESULT:      -7.7      2.328      3.071
REMARK  Name = 
REMARK  6 active torsions:
REMARK  status: ('A' for Active; 'I' for Inactive)
REMARK    1  A    between atoms: C_1  and  C_2
REMARK    2  A    between atoms: C_7  and  C_8
REMARK    3  A    between atoms: N_11  and  C_12
REMARK    4  A    between atoms: C_15  and  N_16
REMARK    5  A    between atoms: C_17  and  C_19
REMARK    6  A    between atoms: C_20  and  C_21
REMARK                            x       y       z     vdW  Elec       q    Type
REMARK                         _______ _______ _______ _____ _____    ______ ____
ROOT
ATOM      1  C   UNL     1      -0.024  11.838  21.914  0.00  0.00    +0.000 C 
ATOM      2  C   UNL     1      -0.785  10.565  21.461  0.00  0.00    +0.000 C 
ATOM      3  C   UNL     1      -1.149  10.548  19.971  0.00  0.00    +0.000 C 
ATOM      4  C   UNL     1       0.009  10.888  19.017  0.00  0.00    +0.000 C 
ATOM      5  C   UNL     1       0.881  12.043  19.528  0.00  0.00    +0.000 C 
ATOM      6  C   UNL     1       1.233  11.905  21.011  0.00  0.00    +0.000 C 
ENDROOT
BRANCH   1  10
ATOM      7  C   UNL     1      -2.054  15.651  22.994  0.00  0.00    +0.000 C 
ATOM      8  C   UNL     1      -2.765  14.285  23.096  0.00  0.00    +0.000 C 
ATOM      9  C   UNL     1      -1.863  13.039  23.020  0.00  0.00    +0.000 C 
ATOM     10  N   UNL     1      -0.871  13.076  21.922  0.00  0.00    +0.000 NA
ATOM     11  C   UNL     1      -0.061  14.299  22.096  0.00  0.00    +0.000 C 
ATOM     12  C   UNL     1      -0.900  15.574  21.991  0.00  0.00    +0.000 C 
BRANCH   7  19
ATOM     13  C   UNL     1      -2.475  18.631  23.426  0.00  0.00    +0.000 C 
ATOM     14  C   UNL     1      -1.832  17.751  24.472  0.00  0.00    +0.000 A 
ATOM     15  C   UNL     1      -1.442  18.370  25.676  0.00  0.00    +0.000 A 
ATOM     16  C   UNL     1      -0.875  17.633  26.708  0.00  0.00    +0.000 A 
ATOM     17  C   UNL     1      -0.696  16.266  26.554  0.00  0.00    +0.000 A 
ATOM     18  C   UNL     1      -1.068  15.634  25.358  0.00  0.00    +0.000 A 
ATOM     19  C   UNL     1      -1.642  16.352  24.297  0.00  0.00    +0.000 A 
ENDBRANCH   7  19
ENDBRANCH   1  10
BRANCH   4  20
ATOM     20  N   UNL     1       0.827   9.709  18.736  0.00  0.00    +0.000 N 
ATOM     21  C   UNL     1       1.970   9.781  17.967  0.00  0.00    +0.000 C 
ATOM     22  O   UNL     1       2.376  10.780  17.397  0.00  0.00    +0.000 OA
ATOM     23  H   UNL     1       0.636   8.870  19.269  0.00  0.00    +0.000 HD
BRANCH  21  24
ATOM     24  C   UNL     1       2.703   8.495  17.923  0.00  0.00    +0.000 C 
ATOM     25  C   UNL     1       2.110   7.295  17.999  0.00  0.00    +0.000 C 
BRANCH  25  26
ATOM     26  C   UNL     1       3.001   6.140  17.868  0.00  0.00    +0.000 A 
ATOM     27  C   UNL     1       2.807   5.013  18.699  0.00  0.00    +0.000 A 
ATOM     28  C   UNL     1       3.865   4.143  18.975  0.00  0.00    +0.000 A 
ATOM     29  C   UNL     1       5.094   4.463  18.443  0.00  0.00    +0.000 A 
ATOM     30  C   UNL     1       5.259   5.508  17.554  0.00  0.00    +0.000 A 
ATOM     31  C   UNL     1       4.221   6.335  17.200  0.00  0.00    +0.000 A 
ATOM     32  O   UNL     1       6.570   5.723  17.249  0.00  0.00    +0.000 OA
ATOM     33  C   UNL     1       7.145   4.975  18.328  0.00  0.00    +0.000 C 
ATOM     34  F   UNL     1       7.394   5.841  19.350  0.00  0.00    +0.000 F 
ATOM     35  F   UNL     1       8.329   4.455  17.938  0.00  0.00    +0.000 F 
ATOM     36  O   UNL     1       6.292   3.928  18.816  0.00  0.00    +0.000 OA
ENDBRANCH  25  26
ENDBRANCH  21  24
ENDBRANCH   4  20
TORSDOF 5
ENDMDL
MODEL 7
REMARK VINA RESULT:      -7.6      3.410      4.448
REMARK  Name = 
REMARK  6 active torsions:
REMARK  status: ('A' for Active; 'I' for Inactive)
REMARK    1  A    between atoms: C_1  and  C_2
REMARK    2  A    between atoms: C_7  and  C_8
REMARK    3  A    between atoms: N_11  and  C_12
REMARK    4  A    between atoms: C_15  and  N_16
REMARK    5  A    between atoms: C_17  and  C_19
REMARK    6  A    between atoms: C_20  and  C_21
REMARK                            x       y       z     vdW  Elec       q    Type
REMARK                         _______ _______ _______ _____ _____    ______ ____
ROOT
ATOM      1  C   UNL     1      -1.791  12.226  21.058  0.00  0.00    +0.000 C 
ATOM      2  C   UNL     1      -2.269  11.241  19.959  0.00  0.00    +0.000 C 
ATOM      3  C   UNL     1      -1.489  11.344  18.642  0.00  0.00    +0.000 C 
ATOM      4  C   UNL     1       0.042  11.329  18.791  0.00  0.00    +0.000 C 
ATOM      5  C   UNL     1       0.531  12.167  19.980  0.00  0.00    +0.000 C 
ATOM      6  C   UNL     1      -0.284  11.920  21.251  0.00  0.00    +0.000 C 
ENDROOT
BRANCH   1  10
ATOM      7  C   UNL     1      -3.210  16.440  21.274  0.00  0.00    +0.000 C 
ATOM      8  C   UNL     1      -3.993  15.348  20.515  0.00  0.00    +0.000 C 
ATOM      9  C   UNL     1      -3.580  13.891  20.797  0.00  0.00    +0.000 C 
ATOM     10  N   UNL     1      -2.118  13.659  20.766  0.00  0.00    +0.000 NA
ATOM     11  C   UNL     1      -1.502  14.578  21.745  0.00  0.00    +0.000 C 
ATOM     12  C   UNL     1      -1.735  16.048  21.393  0.00  0.00    +0.000 C 
BRANCH   7  19
ATOM     13  C   UNL     1      -5.531  18.400  21.390  0.00  0.00    +0.000 C 
ATOM     14  C   UNL     1      -4.858  17.879  22.637  0.00  0.00    +0.000 A 
ATOM     15  C   UNL     1      -5.362  18.333  23.872  0.00  0.00    +0.000 A 
ATOM     16  C   UNL     1      -4.828  17.880  25.072  0.00  0.00    +0.000 A 
ATOM     17  C   UNL     1      -3.787  16.963  25.054  0.00  0.00    +0.000 A 
ATOM     18  C   UNL     1      -3.266  16.508  23.834  0.00  0.00    +0.000 A 
ATOM     19  C   UNL     1      -3.783  16.948  22.605  0.00  0.00    +0.000 A 
ENDBRANCH   7  19
ENDBRANCH   1  10
BRANCH   4  20
ATOM     20  N   UNL     1       0.551   9.961  18.879  0.00  0.00    +0.000 N 
ATOM     21  C   UNL     1       1.681   9.559  18.197  0.00  0.00    +0.000 C 
ATOM     22  O   UNL     1       2.320  10.249  17.420  0.00  0.00    +0.000 OA
ATOM     23  H   UNL     1       0.160   9.361  19.594  0.00  0.00    +0.000 HD
BRANCH  21  24
ATOM     24  C   UNL     1       2.082   8.174  18.534  0.00  0.00    +0.000 C 
ATOM     25  C   UNL     1       2.952   7.453  17.813  0.00  0.00    +0.000 C 
BRANCH  25  26
ATOM     26  C   UNL     1       3.272   6.127  18.349  0.00  0.00    +0.000 A 
ATOM     27  C   UNL     1       3.564   5.068  17.460  0.00  0.00    +0.000 A 
ATOM     28  C   UNL     1       3.380   3.740  17.851  0.00  0.00    +0.000 A 
ATOM     29  C   UNL     1       2.863   3.524  19.110  0.00  0.00    +0.000 A 
ATOM     30  C   UNL     1       2.671   4.555  20.010  0.00  0.00    +0.000 A 
ATOM     31  C   UNL     1       2.918   5.865  19.682  0.00  0.00    +0.000 A 
ATOM     32  O   UNL     1       2.041   4.136  21.144  0.00  0.00    +0.000 OA
ATOM     33  C   UNL     1       1.553   2.885  20.645  0.00  0.00    +0.000 C 
ATOM     34  F   UNL     1       0.285   3.082  20.189  0.00  0.00    +0.000 F 
ATOM     35  F   UNL     1       1.488   1.988  21.653  0.00  0.00    +0.000 F 
ATOM     36  O   UNL     1       2.344   2.350  19.571  0.00  0.00    +0.000 OA
ENDBRANCH  25  26
ENDBRANCH  21  24
ENDBRANCH   4  20
TORSDOF 5
ENDMDL
MODEL 8
REMARK VINA RESULT:      -7.5      2.899      4.006
REMARK  Name = 
REMARK  6 active torsions:
REMARK  status: ('A' for Active; 'I' for Inactive)
REMARK    1  A    between atoms: C_1  and  C_2
REMARK    2  A    between atoms: C_7  and  C_8
REMARK    3  A    between atoms: N_11  and  C_12
REMARK    4  A    between atoms: C_15  and  N_16
REMARK    5  A    between atoms: C_17  and  C_19
REMARK    6  A    between atoms: C_20  and  C_21
REMARK                            x       y       z     vdW  Elec       q    Type
REMARK                         _______ _______ _______ _____ _____    ______ ____
ROOT
ATOM      1  C   UNL     1      -1.194  11.633  21.509  0.00  0.00    +0.000 C 
ATOM      2  C   UNL     1      -1.589  10.982  20.157  0.00  0.00    +0.000 C 
ATOM      3  C   UNL     1      -0.650  11.330  18.995  0.00  0.00    +0.000 C 
ATOM      4  C   UNL     1       0.848  11.150  19.296  0.00  0.00    +0.000 C 
ATOM      5  C   UNL     1       1.235  11.636  20.700  0.00  0.00    +0.000 C 
ATOM      6  C   UNL     1       0.258  11.163  21.778  0.00  0.00    +0.000 C 
ENDROOT
BRANCH   1  10
ATOM      7  C   UNL     1      -2.856  15.728  22.049  0.00  0.00    +0.000 C 
ATOM      8  C   UNL     1      -2.806  15.037  20.670  0.00  0.00    +0.000 C 
ATOM      9  C   UNL     1      -2.527  13.523  20.675  0.00  0.00    +0.000 C 
ATOM     10  N   UNL     1      -1.402  13.117  21.547  0.00  0.00    +0.000 NA
ATOM     11  C   UNL     1      -1.701  13.599  22.911  0.00  0.00    +0.000 C 
ATOM     12  C   UNL     1      -1.802  15.124  22.982  0.00  0.00    +0.000 C 
BRANCH   7  19
ATOM     13  C   UNL     1      -3.957  18.435  22.887  0.00  0.00    +0.000 C 
ATOM     14  C   UNL     1      -4.710  17.150  23.137  0.00  0.00    +0.000 A 
ATOM     15  C   UNL     1      -5.964  17.257  23.770  0.00  0.00    +0.000 A 
ATOM     16  C   UNL     1      -6.743  16.131  24.009  0.00  0.00    +0.000 A 
ATOM     17  C   UNL     1      -6.282  14.884  23.613  0.00  0.00    +0.000 A 
ATOM     18  C   UNL     1      -5.031  14.757  22.991  0.00  0.00    +0.000 A 
ATOM     19  C   UNL     1      -4.220  15.875  22.737  0.00  0.00    +0.000 A 
ENDBRANCH   7  19
ENDBRANCH   1  10
BRANCH   4  20
ATOM     20  N   UNL     1       1.264   9.762  19.097  0.00  0.00    +0.000 N 
ATOM     21  C   UNL     1       2.149   9.403  18.101  0.00  0.00    +0.000 C 
ATOM     22  O   UNL     1       2.614  10.158  17.263  0.00  0.00    +0.000 OA
ATOM     23  H   UNL     1       1.029   9.095  19.820  0.00  0.00    +0.000 HD
BRANCH  21  24
ATOM     24  C   UNL     1       2.524   7.972  18.168  0.00  0.00    +0.000 C 
ATOM     25  C   UNL     1       3.658   7.473  17.653  0.00  0.00    +0.000 C 
BRANCH  25  26
ATOM     26  C   UNL     1       3.880   6.043  17.883  0.00  0.00    +0.000 A 
ATOM     27  C   UNL     1       4.364   5.236  16.828  0.00  0.00    +0.000 A 
ATOM     28  C   UNL     1       4.123   3.859  16.818  0.00  0.00    +0.000 A 
ATOM     29  C   UNL     1       3.362   3.350  17.847  0.00  0.00    +0.000 A 
ATOM     30  C   UNL     1       2.974   4.123  18.925  0.00  0.00    +0.000 A 
ATOM     31  C   UNL     1       3.264   5.463  19.003  0.00  0.00    +0.000 A 
ATOM     32  O   UNL     1       2.131   3.454  19.760  0.00  0.00    +0.000 OA
ATOM     33  C   UNL     1       1.774   2.391  18.868  0.00  0.00    +0.000 C 
ATOM     34  F   UNL     1       0.624   2.748  18.232  0.00  0.00    +0.000 F 
ATOM     35  F   UNL     1       1.517   1.271  19.576  0.00  0.00    +0.000 F 
ATOM     36  O   UNL     1       2.776   2.118  17.875  0.00  0.00    +0.000 OA
ENDBRANCH  25  26
ENDBRANCH  21  24
ENDBRANCH   4  20
TORSDOF 5
ENDMDL
MODEL 9
REMARK VINA RESULT:      -7.5      3.539      4.670
REMARK  Name = 
REMARK  6 active torsions:
REMARK  status: ('A' for Active; 'I' for Inactive)
REMARK    1  A    between atoms: C_1  and  C_2
REMARK    2  A    between atoms: C_7  and  C_8
REMARK    3  A    between atoms: N_11  and  C_12
REMARK    4  A    between atoms: C_15  and  N_16
REMARK    5  A    between atoms: C_17  and  C_19
REMARK    6  A    between atoms: C_20  and  C_21
REMARK                            x       y       z     vdW  Elec       q    Type
REMARK                         _______ _______ _______ _____ _____    ______ ____
ROOT
ATOM      1  C   UNL     1      -0.902  11.288  21.641  0.00  0.00    +0.000 C 
ATOM      2  C   UNL     1      -1.638  10.527  20.506  0.00  0.00    +0.000 C 
ATOM      3  C   UNL     1      -1.262  10.991  19.094  0.00  0.00    +0.000 C 
ATOM      4  C   UNL     1       0.249  11.090  18.824  0.00  0.00    +0.000 C 
ATOM      5  C   UNL     1       1.026  11.689  20.005  0.00  0.00    +0.000 C 
ATOM      6  C   UNL     1       0.607  11.092  21.350  0.00  0.00    +0.000 C 
ENDROOT
BRANCH   1  10
ATOM      7  C   UNL     1      -1.533  15.668  21.156  0.00  0.00    +0.000 C 
ATOM      8  C   UNL     1      -0.565  15.090  22.209  0.00  0.00    +0.000 C 
ATOM      9  C   UNL     1      -0.189  13.605  22.049  0.00  0.00    +0.000 C 
ATOM     10  N   UNL     1      -1.343  12.712  21.796  0.00  0.00    +0.000 NA
ATOM     11  C   UNL     1      -2.035  13.212  20.590  0.00  0.00    +0.000 C 
ATOM     12  C   UNL     1      -2.589  14.625  20.778  0.00  0.00    +0.000 C 
BRANCH   7  19
ATOM     13  C   UNL     1      -2.999  17.882  19.675  0.00  0.00    +0.000 C 
ATOM     14  C   UNL     1      -1.644  17.381  19.233  0.00  0.00    +0.000 A 
ATOM     15  C   UNL     1      -1.073  17.995  18.101  0.00  0.00    +0.000 A 
ATOM     16  C   UNL     1       0.184  17.623  17.644  0.00  0.00    +0.000 A 
ATOM     17  C   UNL     1       0.892  16.636  18.314  0.00  0.00    +0.000 A 
ATOM     18  C   UNL     1       0.335  16.005  19.437  0.00  0.00    +0.000 A 
ATOM     19  C   UNL     1      -0.934  16.358  19.923  0.00  0.00    +0.000 A 
ENDBRANCH   7  19
ENDBRANCH   1  10
BRANCH   4  20
ATOM     20  N   UNL     1       0.805   9.791  18.446  0.00  0.00    +0.000 N 
ATOM     21  C   UNL     1       2.030   9.677  17.821  0.00  0.00    +0.000 C 
ATOM     22  O   UNL     1       2.729  10.610  17.462  0.00  0.00    +0.000 OA
ATOM     23  H   UNL     1       0.355   8.964  18.816  0.00  0.00    +0.000 HD
BRANCH  21  24
ATOM     24  C   UNL     1       2.447   8.267  17.650  0.00  0.00    +0.000 C 
ATOM     25  C   UNL     1       2.534   7.387  18.659  0.00  0.00    +0.000 C 
BRANCH  25  26
ATOM     26  C   UNL     1       2.899   6.021  18.275  0.00  0.00    +0.000 A 
ATOM     27  C   UNL     1       1.919   5.170  17.716  0.00  0.00    +0.000 A 
ATOM     28  C   UNL     1       2.050   3.781  17.802  0.00  0.00    +0.000 A 
ATOM     29  C   UNL     1       3.142   3.298  18.489  0.00  0.00    +0.000 A 
ATOM     30  C   UNL     1       4.147   4.128  18.948  0.00  0.00    +0.000 A 
ATOM     31  C   UNL     1       4.085   5.493  18.809  0.00  0.00    +0.000 A 
ATOM     32  O   UNL     1       5.063   3.457  19.701  0.00  0.00    +0.000 OA
ATOM     33  C   UNL     1       4.289   2.277  19.947  0.00  0.00    +0.000 C 
ATOM     34  F   UNL     1       3.647   2.439  21.138  0.00  0.00    +0.000 F 
ATOM     35  F   UNL     1       5.110   1.212  20.069  0.00  0.00    +0.000 F 
ATOM     36  O   UNL     1       3.305   2.018  18.932  0.00  0.00    +0.000 OA
ENDBRANCH  25  26
ENDBRANCH  21  24
ENDBRANCH   4  20
TORSDOF 5
ENDMDL
