MODEL 1
REMARK VINA RESULT:      -7.9      0.000      0.000
REMARK  Name = 
REMARK  4 active torsions:
REMARK  status: ('A' for Active; 'I' for Inactive)
REMARK    1  A    between atoms: C_1  and  O_2
REMARK    2  A    between atoms: O_2  and  C_3
REMARK    3  A    between atoms: C_6  and  C_7
REMARK    4  A    between atoms: C_9  and  C_10
REMARK                            x       y       z     vdW  Elec       q    Type
REMARK                         _______ _______ _______ _____ _____    ______ ____
ROOT
ATOM      1  C   UNL     1       2.954   7.077  18.123  0.00  0.00    +0.000 A 
ATOM      2  C   UNL     1       2.555   5.641  18.272  0.00  0.00    +0.000 A 
ATOM      3  C   UNL     1       3.354   4.723  17.692  0.00  0.00    +0.000 A 
ATOM      4  N   UNL     1       4.463   5.149  16.980  0.00  0.00    +0.000 N 
ATOM      5  N   UNL     1       5.401   4.437  16.320  0.00  0.00    +0.000 NA
ATOM      6  C   UNL     1       6.174   5.381  15.807  0.00  0.00    +0.000 A 
ATOM      7  N   UNL     1       7.237   5.163  15.042  0.00  0.00    +0.000 N 
ATOM      8  N   UNL     1       5.838   6.653  16.114  0.00  0.00    +0.000 NA
ATOM      9  C   UNL     1       4.755   6.516  16.849  0.00  0.00    +0.000 A 
ATOM     10  N   UNL     1       3.983   7.482  17.433  0.00  0.00    +0.000 NA
ATOM     11  H   UNL     1       7.629   4.232  15.017  0.00  0.00    +0.000 HD
ATOM     12  H   UNL     1       7.893   5.920  14.904  0.00  0.00    +0.000 HD
ENDROOT
BRANCH   1  16
ATOM     13  C   UNL     1       0.388   9.962  20.021  0.00  0.00    +0.000 A 
ATOM     14  C   UNL     1       0.924   8.909  20.763  0.00  0.00    +0.000 A 
ATOM     15  C   UNL     1       1.779   7.980  20.166  0.00  0.00    +0.000 A 
ATOM     16  C   UNL     1       2.080   8.078  18.803  0.00  0.00    +0.000 A 
ATOM     17  C   UNL     1       1.552   9.142  18.060  0.00  0.00    +0.000 A 
ATOM     18  C   UNL     1       0.705  10.077  18.667  0.00  0.00    +0.000 A 
BRANCH  13  20
ATOM     19  C   UNL     1      -0.383  10.699  22.132  0.00  0.00    +0.000 C 
ATOM     20  O   UNL     1      -0.457  10.782  20.714  0.00  0.00    +0.000 OA
ENDBRANCH  13  20
ENDBRANCH   1  16
BRANCH   3  21
ATOM     21  C   UNL     1       3.060   3.274  17.788  0.00  0.00    +0.000 C 
ATOM     22  F   UNL     1       4.090   2.466  18.116  0.00  0.00    +0.000 F 
ATOM     23  F   UNL     1       2.087   3.051  18.715  0.00  0.00    +0.000 F 
ATOM     24  F   UNL     1       2.560   2.808  16.611  0.00  0.00    +0.000 F 
ENDBRANCH   3  21
TORSDOF 3
ENDMDL
MODEL 2
REMARK VINA RESULT:      -7.9      2.370      3.201
REMARK  Name = 
REMARK  4 active torsions:
REMARK  status: ('A' for Active; 'I' for Inactive)
REMARK    1  A    between atoms: C_1  and  O_2
REMARK    2  A    between atoms: O_2  and  C_3
REMARK    3  A    between atoms: C_6  and  C_7
REMARK    4  A    between atoms: C_9  and  C_10
REMARK                            x       y       z     vdW  Elec       q    Type
REMARK                         _______ _______ _______ _____ _____    ______ ____
ROOT
ATOM      1  C   UNL     1       2.673   7.046  18.884  0.00  0.00    +0.000 A 
ATOM      2  C   UNL     1       3.524   7.092  17.653  0.00  0.00    +0.000 A 
ATOM      3  C   UNL     1       4.282   6.008  17.394  0.00  0.00    +0.000 A 
ATOM      4  N   UNL     1       4.255   4.941  18.277  0.00  0.00    +0.000 N 
ATOM      5  N   UNL     1       4.911   3.762  18.240  0.00  0.00    +0.000 NA
ATOM      6  C   UNL     1       4.521   3.177  19.362  0.00  0.00    +0.000 A 
ATOM      7  N   UNL     1       4.929   1.986  19.781  0.00  0.00    +0.000 N 
ATOM      8  N   UNL     1       3.629   3.865  20.108  0.00  0.00    +0.000 NA
ATOM      9  C   UNL     1       3.460   4.982  19.434  0.00  0.00    +0.000 A 
ATOM     10  N   UNL     1       2.663   6.054  19.729  0.00  0.00    +0.000 NA
ATOM     11  H   UNL     1       5.390   1.376  19.121  0.00  0.00    +0.000 HD
ATOM     12  H   UNL     1       4.399   1.527  20.510  0.00  0.00    +0.000 HD
ENDROOT
BRANCH   1  16
ATOM     13  C   UNL     1       0.153  10.472  19.540  0.00  0.00    +0.000 A 
ATOM     14  C   UNL     1       0.483   9.633  20.605  0.00  0.00    +0.000 A 
ATOM     15  C   UNL     1       1.321   8.532  20.412  0.00  0.00    +0.000 A 
ATOM     16  C   UNL     1       1.811   8.239  19.135  0.00  0.00    +0.000 A 
ATOM     17  C   UNL     1       1.492   9.088  18.067  0.00  0.00    +0.000 A 
ATOM     18  C   UNL     1       0.661  10.197  18.269  0.00  0.00    +0.000 A 
BRANCH  13  20
ATOM     19  C   UNL     1      -1.298  12.165  18.755  0.00  0.00    +0.000 C 
ATOM     20  O   UNL     1      -0.697  11.493  19.855  0.00  0.00    +0.000 OA
ENDBRANCH  13  20
ENDBRANCH   1  16
BRANCH   3  21
ATOM     21  C   UNL     1       5.152   5.943  16.197  0.00  0.00    +0.000 C 
ATOM     22  F   UNL     1       5.050   4.835  15.432  0.00  0.00    +0.000 F 
ATOM     23  F   UNL     1       4.902   7.000  15.374  0.00  0.00    +0.000 F 
ATOM     24  F   UNL     1       6.461   6.052  16.550  0.00  0.00    +0.000 F 
ENDBRANCH   3  21
TORSDOF 3
ENDMDL
MODEL 3
REMARK VINA RESULT:      -7.9      0.574      1.385
REMARK  Name = 
REMARK  4 active torsions:
REMARK  status: ('A' for Active; 'I' for Inactive)
REMARK    1  A    between atoms: C_1  and  O_2
REMARK    2  A    between atoms: O_2  and  C_3
REMARK    3  A    between atoms: C_6  and  C_7
REMARK    4  A    between atoms: C_9  and  C_10
REMARK                            x       y       z     vdW  Elec       q    Type
REMARK                         _______ _______ _______ _____ _____    ______ ____
ROOT
ATOM      1  C   UNL     1       3.178   6.949  18.141  0.00  0.00    +0.000 A 
ATOM      2  C   UNL     1       3.025   5.526  18.584  0.00  0.00    +0.000 A 
ATOM      3  C   UNL     1       3.908   4.635  18.090  0.00  0.00    +0.000 A 
ATOM      4  N   UNL     1       4.873   5.068  17.196  0.00  0.00    +0.000 N 
ATOM      5  N   UNL     1       5.854   4.383  16.573  0.00  0.00    +0.000 NA
ATOM      6  C   UNL     1       6.423   5.310  15.819  0.00  0.00    +0.000 A 
ATOM      7  N   UNL     1       7.440   5.101  14.991  0.00  0.00    +0.000 N 
ATOM      8  N   UNL     1       5.915   6.558  15.932  0.00  0.00    +0.000 NA
ATOM      9  C   UNL     1       4.933   6.413  16.795  0.00  0.00    +0.000 A 
ATOM     10  N   UNL     1       4.069   7.354  17.282  0.00  0.00    +0.000 NA
ATOM     11  H   UNL     1       7.970   4.246  15.088  0.00  0.00    +0.000 HD
ATOM     12  H   UNL     1       7.953   5.902  14.651  0.00  0.00    +0.000 HD
ENDROOT
BRANCH   1  16
ATOM     13  C   UNL     1       0.448   9.776  19.893  0.00  0.00    +0.000 A 
ATOM     14  C   UNL     1       0.774   9.867  18.540  0.00  0.00    +0.000 A 
ATOM     15  C   UNL     1       1.639   8.940  17.952  0.00  0.00    +0.000 A 
ATOM     16  C   UNL     1       2.215   7.928  18.727  0.00  0.00    +0.000 A 
ATOM     17  C   UNL     1       1.878   7.828  20.083  0.00  0.00    +0.000 A 
ATOM     18  C   UNL     1       1.002   8.752  20.664  0.00  0.00    +0.000 A 
BRANCH  13  20
ATOM     19  C   UNL     1      -0.404  10.949  21.761  0.00  0.00    +0.000 C 
ATOM     20  O   UNL     1      -0.382  10.759  20.352  0.00  0.00    +0.000 OA
ENDBRANCH  13  20
ENDBRANCH   1  16
BRANCH   3  21
ATOM     21  C   UNL     1       3.856   3.205  18.472  0.00  0.00    +0.000 C 
ATOM     22  F   UNL     1       3.877   2.306  17.465  0.00  0.00    +0.000 F 
ATOM     23  F   UNL     1       4.906   2.895  19.284  0.00  0.00    +0.000 F 
ATOM     24  F   UNL     1       2.737   2.944  19.201  0.00  0.00    +0.000 F 
ENDBRANCH   3  21
TORSDOF 3
ENDMDL
MODEL 4
REMARK VINA RESULT:      -7.9      2.361      3.361
REMARK  Name = 
REMARK  4 active torsions:
REMARK  status: ('A' for Active; 'I' for Inactive)
REMARK    1  A    between atoms: C_1  and  O_2
REMARK    2  A    between atoms: O_2  and  C_3
REMARK    3  A    between atoms: C_6  and  C_7
REMARK    4  A    between atoms: C_9  and  C_10
REMARK                            x       y       z     vdW  Elec       q    Type
REMARK                         _______ _______ _______ _____ _____    ______ ____
ROOT
ATOM      1  C   UNL     1       2.680   7.085  18.868  0.00  0.00    +0.000 A 
ATOM      2  C   UNL     1       3.530   7.126  17.636  0.00  0.00    +0.000 A 
ATOM      3  C   UNL     1       4.279   6.036  17.375  0.00  0.00    +0.000 A 
ATOM      4  N   UNL     1       4.245   4.968  18.257  0.00  0.00    +0.000 N 
ATOM      5  N   UNL     1       4.891   3.784  18.218  0.00  0.00    +0.000 NA
ATOM      6  C   UNL     1       4.498   3.201  19.340  0.00  0.00    +0.000 A 
ATOM      7  N   UNL     1       4.897   2.006  19.758  0.00  0.00    +0.000 N 
ATOM      8  N   UNL     1       3.613   3.896  20.088  0.00  0.00    +0.000 NA
ATOM      9  C   UNL     1       3.452   5.015  19.415  0.00  0.00    +0.000 A 
ATOM     10  N   UNL     1       2.665   6.093  19.712  0.00  0.00    +0.000 NA
ATOM     11  H   UNL     1       5.352   1.393  19.096  0.00  0.00    +0.000 HD
ATOM     12  H   UNL     1       4.365   1.551  20.487  0.00  0.00    +0.000 HD
ENDROOT
BRANCH   1  16
ATOM     13  C   UNL     1       0.263  10.554  19.666  0.00  0.00    +0.000 A 
ATOM     14  C   UNL     1       0.755  10.326  18.381  0.00  0.00    +0.000 A 
ATOM     15  C   UNL     1       1.520   9.191  18.102  0.00  0.00    +0.000 A 
ATOM     16  C   UNL     1       1.829   8.285  19.122  0.00  0.00    +0.000 A 
ATOM     17  C   UNL     1       1.325   8.506  20.410  0.00  0.00    +0.000 A 
ATOM     18  C   UNL     1       0.549   9.640  20.682  0.00  0.00    +0.000 A 
BRANCH  13  20
ATOM     19  C   UNL     1      -0.965  12.283  18.621  0.00  0.00    +0.000 C 
ATOM     20  O   UNL     1      -0.443  11.714  19.815  0.00  0.00    +0.000 OA
ENDBRANCH  13  20
ENDBRANCH   1  16
BRANCH   3  21
ATOM     21  C   UNL     1       5.146   5.964  16.176  0.00  0.00    +0.000 C 
ATOM     22  F   UNL     1       5.033   4.860  15.409  0.00  0.00    +0.000 F 
ATOM     23  F   UNL     1       4.906   7.026  15.356  0.00  0.00    +0.000 F 
ATOM     24  F   UNL     1       6.457   6.061  16.527  0.00  0.00    +0.000 F 
ENDBRANCH   3  21
TORSDOF 3
ENDMDL
MODEL 5
REMARK VINA RESULT:      -7.8      0.563      1.049
REMARK  Name = 
REMARK  4 active torsions:
REMARK  status: ('A' for Active; 'I' for Inactive)
REMARK    1  A    between atoms: C_1  and  O_2
REMARK    2  A    between atoms: O_2  and  C_3
REMARK    3  A    between atoms: C_6  and  C_7
REMARK    4  A    between atoms: C_9  and  C_10
REMARK                            x       y       z     vdW  Elec       q    Type
REMARK                         _______ _______ _______ _____ _____    ______ ____
ROOT
ATOM      1  C   UNL     1       3.163   6.999  18.171  0.00  0.00    +0.000 A 
ATOM      2  C   UNL     1       3.001   5.577  18.612  0.00  0.00    +0.000 A 
ATOM      3  C   UNL     1       3.885   4.683  18.126  0.00  0.00    +0.000 A 
ATOM      4  N   UNL     1       4.860   5.114  17.241  0.00  0.00    +0.000 N 
ATOM      5  N   UNL     1       5.844   4.425  16.626  0.00  0.00    +0.000 NA
ATOM      6  C   UNL     1       6.423   5.351  15.878  0.00  0.00    +0.000 A 
ATOM      7  N   UNL     1       7.447   5.139  15.059  0.00  0.00    +0.000 N 
ATOM      8  N   UNL     1       5.919   6.600  15.987  0.00  0.00    +0.000 NA
ATOM      9  C   UNL     1       4.929   6.458  16.841  0.00  0.00    +0.000 A 
ATOM     10  N   UNL     1       4.063   7.403  17.320  0.00  0.00    +0.000 NA
ATOM     11  H   UNL     1       7.973   4.282  15.160  0.00  0.00    +0.000 HD
ATOM     12  H   UNL     1       7.967   5.938  14.724  0.00  0.00    +0.000 HD
ENDROOT
BRANCH   1  16
ATOM     13  C   UNL     1       0.341   9.826  19.772  0.00  0.00    +0.000 A 
ATOM     14  C   UNL     1       0.900   8.852  20.600  0.00  0.00    +0.000 A 
ATOM     15  C   UNL     1       1.837   7.944  20.099  0.00  0.00    +0.000 A 
ATOM     16  C   UNL     1       2.199   7.982  18.749  0.00  0.00    +0.000 A 
ATOM     17  C   UNL     1       1.648   8.968  17.920  0.00  0.00    +0.000 A 
ATOM     18  C   UNL     1       0.718   9.883  18.429  0.00  0.00    +0.000 A 
BRANCH  13  20
ATOM     19  C   UNL     1      -0.528  10.691  21.794  0.00  0.00    +0.000 C 
ATOM     20  O   UNL     1      -0.584  10.631  20.374  0.00  0.00    +0.000 OA
ENDBRANCH  13  20
ENDBRANCH   1  16
BRANCH   3  21
ATOM     21  C   UNL     1       3.825   3.253  18.506  0.00  0.00    +0.000 C 
ATOM     22  F   UNL     1       2.735   2.854  19.196  0.00  0.00    +0.000 F 
ATOM     23  F   UNL     1       3.883   2.467  17.395  0.00  0.00    +0.000 F 
ATOM     24  F   UNL     1       4.907   2.911  19.256  0.00  0.00    +0.000 F 
ENDBRANCH   3  21
TORSDOF 3
ENDMDL
MODEL 6
REMARK VINA RESULT:      -7.8      2.241      3.128
REMARK  Name = 
REMARK  4 active torsions:
REMARK  status: ('A' for Active; 'I' for Inactive)
REMARK    1  A    between atoms: C_1  and  O_2
REMARK    2  A    between atoms: O_2  and  C_3
REMARK    3  A    between atoms: C_6  and  C_7
REMARK    4  A    between atoms: C_9  and  C_10
REMARK                            x       y       z     vdW  Elec       q    Type
REMARK                         _______ _______ _______ _____ _____    ______ ____
ROOT
ATOM      1  C   UNL     1       2.650   6.422  18.855  0.00  0.00    +0.000 A 
ATOM      2  C   UNL     1       3.629   6.635  17.741  0.00  0.00    +0.000 A 
ATOM      3  C   UNL     1       4.205   5.535  17.217  0.00  0.00    +0.000 A 
ATOM      4  N   UNL     1       3.890   4.294  17.744  0.00  0.00    +0.000 N 
ATOM      5  N   UNL     1       4.326   3.064  17.398  0.00  0.00    +0.000 NA
ATOM      6  C   UNL     1       3.715   2.282  18.275  0.00  0.00    +0.000 A 
ATOM      7  N   UNL     1       3.855   0.964  18.348  0.00  0.00    +0.000 N 
ATOM      8  N   UNL     1       2.883   2.902  19.141  0.00  0.00    +0.000 NA
ATOM      9  C   UNL     1       2.992   4.172  18.816  0.00  0.00    +0.000 A 
ATOM     10  N   UNL     1       2.371   5.259  19.369  0.00  0.00    +0.000 NA
ATOM     11  H   UNL     1       4.271   0.481  17.564  0.00  0.00    +0.000 HD
ATOM     12  H   UNL     1       3.174   0.438  18.879  0.00  0.00    +0.000 HD
ENDROOT
BRANCH   1  16
ATOM     13  C   UNL     1       0.716   9.962  20.353  0.00  0.00    +0.000 A 
ATOM     14  C   UNL     1       0.919   8.867  21.194  0.00  0.00    +0.000 A 
ATOM     15  C   UNL     1       1.568   7.722  20.728  0.00  0.00    +0.000 A 
ATOM     16  C   UNL     1       1.993   7.648  19.397  0.00  0.00    +0.000 A 
ATOM     17  C   UNL     1       1.802   8.751  18.555  0.00  0.00    +0.000 A 
ATOM     18  C   UNL     1       1.161   9.902  19.031  0.00  0.00    +0.000 A 
BRANCH  13  20
ATOM     19  C   UNL     1      -0.391  10.814  22.260  0.00  0.00    +0.000 C 
ATOM     20  O   UNL     1       0.043  11.006  20.919  0.00  0.00    +0.000 OA
ENDBRANCH  13  20
ENDBRANCH   1  16
BRANCH   3  21
ATOM     21  C   UNL     1       5.177   5.630  16.103  0.00  0.00    +0.000 C 
ATOM     22  F   UNL     1       5.059   4.719  15.114  0.00  0.00    +0.000 F 
ATOM     23  F   UNL     1       5.095   6.853  15.508  0.00  0.00    +0.000 F 
ATOM     24  F   UNL     1       6.451   5.533  16.570  0.00  0.00    +0.000 F 
ENDBRANCH   3  21
TORSDOF 3
ENDMDL
MODEL 7
REMARK VINA RESULT:      -7.7      1.783      2.222
REMARK  Name = 
REMARK  4 active torsions:
REMARK  status: ('A' for Active; 'I' for Inactive)
REMARK    1  A    between atoms: C_1  and  O_2
REMARK    2  A    between atoms: O_2  and  C_3
REMARK    3  A    between atoms: C_6  and  C_7
REMARK    4  A    between atoms: C_9  and  C_10
REMARK                            x       y       z     vdW  Elec       q    Type
REMARK                         _______ _______ _______ _____ _____    ______ ____
ROOT
ATOM      1  C   UNL     1       2.284   6.696  19.702  0.00  0.00    +0.000 A 
ATOM      2  C   UNL     1       1.961   5.454  20.474  0.00  0.00    +0.000 A 
ATOM      3  C   UNL     1       2.569   4.316  20.081  0.00  0.00    +0.000 A 
ATOM      4  N   UNL     1       3.420   4.350  18.989  0.00  0.00    +0.000 N 
ATOM      5  N   UNL     1       4.135   3.363  18.411  0.00  0.00    +0.000 NA
ATOM      6  C   UNL     1       4.716   3.982  17.395  0.00  0.00    +0.000 A 
ATOM      7  N   UNL     1       5.515   3.403  16.506  0.00  0.00    +0.000 N 
ATOM      8  N   UNL     1       4.468   5.306  17.289  0.00  0.00    +0.000 NA
ATOM      9  C   UNL     1       3.646   5.546  18.287  0.00  0.00    +0.000 A 
ATOM     10  N   UNL     1       3.064   6.726  18.660  0.00  0.00    +0.000 NA
ATOM     11  H   UNL     1       5.893   2.491  16.722  0.00  0.00    +0.000 HD
ATOM     12  H   UNL     1       6.094   3.994  15.925  0.00  0.00    +0.000 HD
ENDROOT
BRANCH   1  16
ATOM     13  C   UNL     1       0.365  10.323  20.996  0.00  0.00    +0.000 A 
ATOM     14  C   UNL     1       0.562   9.277  21.898  0.00  0.00    +0.000 A 
ATOM     15  C   UNL     1       1.206   8.104  21.498  0.00  0.00    +0.000 A 
ATOM     16  C   UNL     1       1.632   7.953  20.174  0.00  0.00    +0.000 A 
ATOM     17  C   UNL     1       1.446   9.008  19.271  0.00  0.00    +0.000 A 
ATOM     18  C   UNL     1       0.810  10.187  19.680  0.00  0.00    +0.000 A 
BRANCH  13  20
ATOM     19  C   UNL     1      -0.938  11.207  22.761  0.00  0.00    +0.000 C 
ATOM     20  O   UNL     1      -0.304  11.401  21.503  0.00  0.00    +0.000 OA
ENDBRANCH  13  20
ENDBRANCH   1  16
BRANCH   3  21
ATOM     21  C   UNL     1       2.332   3.034  20.783  0.00  0.00    +0.000 C 
ATOM     22  F   UNL     1       3.416   2.410  21.290  0.00  0.00    +0.000 F 
ATOM     23  F   UNL     1       1.473   3.217  21.825  0.00  0.00    +0.000 F 
ATOM     24  F   UNL     1       1.721   2.142  19.956  0.00  0.00    +0.000 F 
ENDBRANCH   3  21
TORSDOF 3
ENDMDL
MODEL 8
REMARK VINA RESULT:      -7.7      2.239      3.292
REMARK  Name = 
REMARK  4 active torsions:
REMARK  status: ('A' for Active; 'I' for Inactive)
REMARK    1  A    between atoms: C_1  and  O_2
REMARK    2  A    between atoms: O_2  and  C_3
REMARK    3  A    between atoms: C_6  and  C_7
REMARK    4  A    between atoms: C_9  and  C_10
REMARK                            x       y       z     vdW  Elec       q    Type
REMARK                         _______ _______ _______ _____ _____    ______ ____
ROOT
ATOM      1  C   UNL     1       2.653   6.473  18.788  0.00  0.00    +0.000 A 
ATOM      2  C   UNL     1       3.641   6.662  17.678  0.00  0.00    +0.000 A 
ATOM      3  C   UNL     1       4.212   5.549  17.175  0.00  0.00    +0.000 A 
ATOM      4  N   UNL     1       3.883   4.319  17.718  0.00  0.00    +0.000 N 
ATOM      5  N   UNL     1       4.311   3.080  17.394  0.00  0.00    +0.000 NA
ATOM      6  C   UNL     1       3.688   2.317  18.278  0.00  0.00    +0.000 A 
ATOM      7  N   UNL     1       3.816   0.999  18.371  0.00  0.00    +0.000 N 
ATOM      8  N   UNL     1       2.854   2.956  19.128  0.00  0.00    +0.000 NA
ATOM      9  C   UNL     1       2.976   4.220  18.786  0.00  0.00    +0.000 A 
ATOM     10  N   UNL     1       2.360   5.320  19.317  0.00  0.00    +0.000 NA
ATOM     11  H   UNL     1       4.233   0.501  17.597  0.00  0.00    +0.000 HD
ATOM     12  H   UNL     1       3.127   0.486  18.905  0.00  0.00    +0.000 HD
ENDROOT
BRANCH   1  16
ATOM     13  C   UNL     1       0.818  10.038  20.351  0.00  0.00    +0.000 A 
ATOM     14  C   UNL     1       1.174   9.969  19.003  0.00  0.00    +0.000 A 
ATOM     15  C   UNL     1       1.747   8.808  18.477  0.00  0.00    +0.000 A 
ATOM     16  C   UNL     1       2.001   7.712  19.308  0.00  0.00    +0.000 A 
ATOM     17  C   UNL     1       1.633   7.776  20.658  0.00  0.00    +0.000 A 
ATOM     18  C   UNL     1       1.049   8.937  21.178  0.00  0.00    +0.000 A 
BRANCH  13  20
ATOM     19  C   UNL     1      -0.669  11.183  21.789  0.00  0.00    +0.000 C 
ATOM     20  O   UNL     1       0.297  11.237  20.747  0.00  0.00    +0.000 OA
ENDBRANCH  13  20
ENDBRANCH   1  16
BRANCH   3  21
ATOM     21  C   UNL     1       5.192   5.620  16.067  0.00  0.00    +0.000 C 
ATOM     22  F   UNL     1       5.060   4.708  15.080  0.00  0.00    +0.000 F 
ATOM     23  F   UNL     1       5.140   6.842  15.468  0.00  0.00    +0.000 F 
ATOM     24  F   UNL     1       6.461   5.497  16.542  0.00  0.00    +0.000 F 
ENDBRANCH   3  21
TORSDOF 3
ENDMDL
MODEL 9
REMARK VINA RESULT:      -7.6      1.795      2.585
REMARK  Name = 
REMARK  4 active torsions:
REMARK  status: ('A' for Active; 'I' for Inactive)
REMARK    1  A    between atoms: C_1  and  O_2
REMARK    2  A    between atoms: O_2  and  C_3
REMARK    3  A    between atoms: C_6  and  C_7
REMARK    4  A    between atoms: C_9  and  C_10
REMARK                            x       y       z     vdW  Elec       q    Type
REMARK                         _______ _______ _______ _____ _____    ______ ____
ROOT
ATOM      1  C   UNL     1       2.258   6.710  19.731  0.00  0.00    +0.000 A 
ATOM      2  C   UNL     1       1.873   5.455  20.452  0.00  0.00    +0.000 A 
ATOM      3  C   UNL     1       2.456   4.312  20.040  0.00  0.00    +0.000 A 
ATOM      4  N   UNL     1       3.342   4.353  18.975  0.00  0.00    +0.000 N 
ATOM      5  N   UNL     1       4.044   3.362  18.386  0.00  0.00    +0.000 NA
ATOM      6  C   UNL     1       4.675   3.994  17.409  0.00  0.00    +0.000 A 
ATOM      7  N   UNL     1       5.483   3.419  16.527  0.00  0.00    +0.000 N 
ATOM      8  N   UNL     1       4.472   5.329  17.340  0.00  0.00    +0.000 NA
ATOM      9  C   UNL     1       3.627   5.563  18.321  0.00  0.00    +0.000 A 
ATOM     10  N   UNL     1       3.072   6.749  18.715  0.00  0.00    +0.000 NA
ATOM     11  H   UNL     1       5.825   2.489  16.723  0.00  0.00    +0.000 HD
ATOM     12  H   UNL     1       6.098   4.009  15.983  0.00  0.00    +0.000 HD
ENDROOT
BRANCH   1  16
ATOM     13  C   UNL     1       0.497  10.343  21.219  0.00  0.00    +0.000 A 
ATOM     14  C   UNL     1       0.807  10.221  19.864  0.00  0.00    +0.000 A 
ATOM     15  C   UNL     1       1.355   9.038  19.363  0.00  0.00    +0.000 A 
ATOM     16  C   UNL     1       1.632   7.972  20.225  0.00  0.00    +0.000 A 
ATOM     17  C   UNL     1       1.310   8.089  21.584  0.00  0.00    +0.000 A 
ATOM     18  C   UNL     1       0.749   9.273  22.079  0.00  0.00    +0.000 A 
BRANCH  13  20
ATOM     19  C   UNL     1      -0.944  11.550  22.654  0.00  0.00    +0.000 C 
ATOM     20  O   UNL     1      -0.004  11.560  21.587  0.00  0.00    +0.000 OA
ENDBRANCH  13  20
ENDBRANCH   1  16
BRANCH   3  21
ATOM     21  C   UNL     1       2.157   3.015  20.690  0.00  0.00    +0.000 C 
ATOM     22  F   UNL     1       1.704   2.025  19.892  0.00  0.00    +0.000 F 
ATOM     23  F   UNL     1       3.271   2.529  21.307  0.00  0.00    +0.000 F 
ATOM     24  F   UNL     1       1.232   3.175  21.674  0.00  0.00    +0.000 F 
ENDBRANCH   3  21
TORSDOF 3
ENDMDL
