MODEL 1
REMARK VINA RESULT:      -4.0      0.000      0.000
REMARK  Name = 
REMARK  7 active torsions:
REMARK  status: ('A' for Active; 'I' for Inactive)
REMARK    1  A    between atoms: C_1  and  C_2
REMARK    2  A    between atoms: C_2  and  C_3
REMARK    3  A    between atoms: C_3  and  C_4
REMARK    4  A    between atoms: C_4  and  N_5
REMARK    5  A    between atoms: N_5  and  C_6
REMARK    6  A    between atoms: N_5  and  C_8
REMARK    7  A    between atoms: C_6  and  C_7
REMARK                            x       y       z     vdW  Elec       q    Type
REMARK                         _______ _______ _______ _____ _____    ______ ____
ROOT
ATOM      1  N   UNL     1       2.793   4.195  18.160  0.00  0.00    +0.000 N 
ENDROOT
BRANCH   1   2
ATOM      2  C   UNL     1       3.506   5.311  18.485  0.00  0.00    +0.000 C 
ATOM      3  S   UNL     1       5.063   5.173  19.215  0.00  0.00    +0.000 S 
ATOM      4  S   UNL     1       2.914   6.888  18.238  0.00  0.00    +0.000 SA
ENDBRANCH   1   2
BRANCH   1   5
ATOM      5  C   UNL     1       3.402   3.091  17.395  0.00  0.00    +0.000 C 
ATOM      6  C   UNL     1       3.418   1.773  18.161  0.00  0.00    +0.000 C 
ENDBRANCH   1   5
BRANCH   1   7
ATOM      7  C   UNL     1       1.418   3.967  18.613  0.00  0.00    +0.000 C 
BRANCH   7   8
ATOM      8  C   UNL     1       1.235   4.236  20.114  0.00  0.00    +0.000 C 
BRANCH   8  10
ATOM      9  C   UNL     1       2.480   2.692  21.673  0.00  0.00    +0.000 C 
ATOM     10  C   UNL     1       1.187   2.932  20.908  0.00  0.00    +0.000 C 
ENDBRANCH   8  10
ENDBRANCH   7   8
ENDBRANCH   1   7
TORSDOF 5
ENDMDL
MODEL 2
REMARK VINA RESULT:      -4.0      1.539      1.918
REMARK  Name = 
REMARK  7 active torsions:
REMARK  status: ('A' for Active; 'I' for Inactive)
REMARK    1  A    between atoms: C_1  and  C_2
REMARK    2  A    between atoms: C_2  and  C_3
REMARK    3  A    between atoms: C_3  and  C_4
REMARK    4  A    between atoms: C_4  and  N_5
REMARK    5  A    between atoms: N_5  and  C_6
REMARK    6  A    between atoms: N_5  and  C_8
REMARK    7  A    between atoms: C_6  and  C_7
REMARK                            x       y       z     vdW  Elec       q    Type
REMARK                         _______ _______ _______ _____ _____    ______ ____
ROOT
ATOM      1  N   UNL     1       4.009   3.924  18.472  0.00  0.00    +0.000 N 
ENDROOT
BRANCH   1   2
ATOM      2  C   UNL     1       5.165   4.480  18.009  0.00  0.00    +0.000 C 
ATOM      3  S   UNL     1       5.629   4.289  16.358  0.00  0.00    +0.000 S 
ATOM      4  S   UNL     1       6.232   5.351  19.008  0.00  0.00    +0.000 SA
ENDBRANCH   1   2
BRANCH   1   5
ATOM      5  C   UNL     1       3.320   2.852  17.727  0.00  0.00    +0.000 C 
ATOM      6  C   UNL     1       3.447   1.487  18.394  0.00  0.00    +0.000 C 
ENDBRANCH   1   5
BRANCH   1   7
ATOM      7  C   UNL     1       3.417   4.274  19.766  0.00  0.00    +0.000 C 
BRANCH   7   8
ATOM      8  C   UNL     1       1.950   4.713  19.650  0.00  0.00    +0.000 C 
BRANCH   8  10
ATOM      9  C   UNL     1       1.819   3.017  21.513  0.00  0.00    +0.000 C 
ATOM     10  C   UNL     1       1.036   3.812  20.479  0.00  0.00    +0.000 C 
ENDBRANCH   8  10
ENDBRANCH   7   8
ENDBRANCH   1   7
TORSDOF 5
ENDMDL
MODEL 3
REMARK VINA RESULT:      -4.0      3.573      5.462
REMARK  Name = 
REMARK  7 active torsions:
REMARK  status: ('A' for Active; 'I' for Inactive)
REMARK    1  A    between atoms: C_1  and  C_2
REMARK    2  A    between atoms: C_2  and  C_3
REMARK    3  A    between atoms: C_3  and  C_4
REMARK    4  A    between atoms: C_4  and  N_5
REMARK    5  A    between atoms: N_5  and  C_6
REMARK    6  A    between atoms: N_5  and  C_8
REMARK    7  A    between atoms: C_6  and  C_7
REMARK                            x       y       z     vdW  Elec       q    Type
REMARK                         _______ _______ _______ _____ _____    ______ ____
ROOT
ATOM      1  N   UNL     1       5.808   4.434  17.088  0.00  0.00    +0.000 N 
ENDROOT
BRANCH   1   2
ATOM      2  C   UNL     1       4.778   4.543  17.974  0.00  0.00    +0.000 C 
ATOM      3  S   UNL     1       3.681   5.872  17.883  0.00  0.00    +0.000 S 
ATOM      4  S   UNL     1       4.523   3.426  19.232  0.00  0.00    +0.000 SA
ENDBRANCH   1   2
BRANCH   1   5
ATOM      5  C   UNL     1       5.567   4.132  15.664  0.00  0.00    +0.000 C 
ATOM      6  C   UNL     1       6.586   4.782  14.736  0.00  0.00    +0.000 C 
ENDBRANCH   1   5
BRANCH   1   7
ATOM      7  C   UNL     1       7.204   4.693  17.450  0.00  0.00    +0.000 C 
BRANCH   7   8
ATOM      8  C   UNL     1       7.378   5.990  18.256  0.00  0.00    +0.000 C 
BRANCH   8  10
ATOM      9  C   UNL     1       8.108   8.381  17.917  0.00  0.00    +0.000 C 
ATOM     10  C   UNL     1       7.308   7.218  17.349  0.00  0.00    +0.000 C 
ENDBRANCH   8  10
ENDBRANCH   7   8
ENDBRANCH   1   7
TORSDOF 5
ENDMDL
MODEL 4
REMARK VINA RESULT:      -4.0      1.226      1.641
REMARK  Name = 
REMARK  7 active torsions:
REMARK  status: ('A' for Active; 'I' for Inactive)
REMARK    1  A    between atoms: C_1  and  C_2
REMARK    2  A    between atoms: C_2  and  C_3
REMARK    3  A    between atoms: C_3  and  C_4
REMARK    4  A    between atoms: C_4  and  N_5
REMARK    5  A    between atoms: N_5  and  C_6
REMARK    6  A    between atoms: N_5  and  C_8
REMARK    7  A    between atoms: C_6  and  C_7
REMARK                            x       y       z     vdW  Elec       q    Type
REMARK                         _______ _______ _______ _____ _____    ______ ____
ROOT
ATOM      1  N   UNL     1       2.943   4.406  17.903  0.00  0.00    +0.000 N 
ENDROOT
BRANCH   1   2
ATOM      2  C   UNL     1       3.399   5.692  17.907  0.00  0.00    +0.000 C 
ATOM      3  S   UNL     1       2.633   6.889  18.885  0.00  0.00    +0.000 S 
ATOM      4  S   UNL     1       4.702   6.210  16.943  0.00  0.00    +0.000 SA
ENDBRANCH   1   2
BRANCH   1   5
ATOM      5  C   UNL     1       3.863   3.266  18.080  0.00  0.00    +0.000 C 
ATOM      6  C   UNL     1       4.640   3.325  19.389  0.00  0.00    +0.000 C 
ENDBRANCH   1   5
BRANCH   1   7
ATOM      7  C   UNL     1       1.521   4.064  17.817  0.00  0.00    +0.000 C 
BRANCH   7   8
ATOM      8  C   UNL     1       1.095   3.027  18.867  0.00  0.00    +0.000 C 
BRANCH   8  10
ATOM      9  C   UNL     1       1.512   2.869  21.350  0.00  0.00    +0.000 C 
ATOM     10  C   UNL     1       0.875   3.679  20.231  0.00  0.00    +0.000 C 
ENDBRANCH   8  10
ENDBRANCH   7   8
ENDBRANCH   1   7
TORSDOF 5
ENDMDL
MODEL 5
REMARK VINA RESULT:      -4.0      1.000      1.313
REMARK  Name = 
REMARK  7 active torsions:
REMARK  status: ('A' for Active; 'I' for Inactive)
REMARK    1  A    between atoms: C_1  and  C_2
REMARK    2  A    between atoms: C_2  and  C_3
REMARK    3  A    between atoms: C_3  and  C_4
REMARK    4  A    between atoms: C_4  and  N_5
REMARK    5  A    between atoms: N_5  and  C_6
REMARK    6  A    between atoms: N_5  and  C_8
REMARK    7  A    between atoms: C_6  and  C_7
REMARK                            x       y       z     vdW  Elec       q    Type
REMARK                         _______ _______ _______ _____ _____    ______ ____
ROOT
ATOM      1  N   UNL     1       2.843   5.102  18.863  0.00  0.00    +0.000 N 
ENDROOT
BRANCH   1   2
ATOM      2  C   UNL     1       4.033   5.649  18.483  0.00  0.00    +0.000 C 
ATOM      3  S   UNL     1       5.516   5.065  19.144  0.00  0.00    +0.000 S 
ATOM      4  S   UNL     1       4.142   6.942  17.382  0.00  0.00    +0.000 SA
ENDBRANCH   1   2
BRANCH   1   5
ATOM      5  C   UNL     1       1.936   4.478  17.880  0.00  0.00    +0.000 C 
ATOM      6  C   UNL     1       2.529   3.234  17.229  0.00  0.00    +0.000 C 
ENDBRANCH   1   5
BRANCH   1   7
ATOM      7  C   UNL     1       2.418   5.009  20.262  0.00  0.00    +0.000 C 
BRANCH   7   8
ATOM      8  C   UNL     1       1.043   4.345  20.423  0.00  0.00    +0.000 C 
BRANCH   8  10
ATOM      9  C   UNL     1       2.540   2.684  21.592  0.00  0.00    +0.000 C 
ATOM     10  C   UNL     1       1.175   2.922  20.964  0.00  0.00    +0.000 C 
ENDBRANCH   8  10
ENDBRANCH   7   8
ENDBRANCH   1   7
TORSDOF 5
ENDMDL
MODEL 6
REMARK VINA RESULT:      -4.0      1.380      1.715
REMARK  Name = 
REMARK  7 active torsions:
REMARK  status: ('A' for Active; 'I' for Inactive)
REMARK    1  A    between atoms: C_1  and  C_2
REMARK    2  A    between atoms: C_2  and  C_3
REMARK    3  A    between atoms: C_3  and  C_4
REMARK    4  A    between atoms: C_4  and  N_5
REMARK    5  A    between atoms: N_5  and  C_6
REMARK    6  A    between atoms: N_5  and  C_8
REMARK    7  A    between atoms: C_6  and  C_7
REMARK                            x       y       z     vdW  Elec       q    Type
REMARK                         _______ _______ _______ _____ _____    ______ ____
ROOT
ATOM      1  N   UNL     1       3.334   3.907  17.828  0.00  0.00    +0.000 N 
ENDROOT
BRANCH   1   2
ATOM      2  C   UNL     1       4.637   4.243  17.605  0.00  0.00    +0.000 C 
ATOM      3  S   UNL     1       5.612   4.868  18.884  0.00  0.00    +0.000 S 
ATOM      4  S   UNL     1       5.373   4.112  16.076  0.00  0.00    +0.000 SA
ENDBRANCH   1   2
BRANCH   1   5
ATOM      5  C   UNL     1       2.848   2.532  17.606  0.00  0.00    +0.000 C 
ATOM      6  C   UNL     1       3.501   1.512  18.531  0.00  0.00    +0.000 C 
ENDBRANCH   1   5
BRANCH   1   7
ATOM      7  C   UNL     1       2.353   4.842  18.384  0.00  0.00    +0.000 C 
BRANCH   7   8
ATOM      8  C   UNL     1       2.236   4.741  19.913  0.00  0.00    +0.000 C 
BRANCH   8  10
ATOM      9  C   UNL     1       1.328   2.817  21.269  0.00  0.00    +0.000 C 
ATOM     10  C   UNL     1       0.989   3.958  20.321  0.00  0.00    +0.000 C 
ENDBRANCH   8  10
ENDBRANCH   7   8
ENDBRANCH   1   7
TORSDOF 5
ENDMDL
MODEL 7
REMARK VINA RESULT:      -3.9      1.209      1.384
REMARK  Name = 
REMARK  7 active torsions:
REMARK  status: ('A' for Active; 'I' for Inactive)
REMARK    1  A    between atoms: C_1  and  C_2
REMARK    2  A    between atoms: C_2  and  C_3
REMARK    3  A    between atoms: C_3  and  C_4
REMARK    4  A    between atoms: C_4  and  N_5
REMARK    5  A    between atoms: N_5  and  C_6
REMARK    6  A    between atoms: N_5  and  C_8
REMARK    7  A    between atoms: C_6  and  C_7
REMARK                            x       y       z     vdW  Elec       q    Type
REMARK                         _______ _______ _______ _____ _____    ______ ____
ROOT
ATOM      1  N   UNL     1       4.100   4.202  18.529  0.00  0.00    +0.000 N 
ENDROOT
BRANCH   1   2
ATOM      2  C   UNL     1       4.898   5.280  18.283  0.00  0.00    +0.000 C 
ATOM      3  S   UNL     1       6.482   5.370  18.962  0.00  0.00    +0.000 S 
ATOM      4  S   UNL     1       4.393   6.604  17.341  0.00  0.00    +0.000 SA
ENDBRANCH   1   2
BRANCH   1   5
ATOM      5  C   UNL     1       3.905   3.145  17.518  0.00  0.00    +0.000 C 
ATOM      6  C   UNL     1       3.279   1.879  18.093  0.00  0.00    +0.000 C 
ENDBRANCH   1   5
BRANCH   1   7
ATOM      7  C   UNL     1       3.457   3.964  19.824  0.00  0.00    +0.000 C 
BRANCH   7   8
ATOM      8  C   UNL     1       2.212   4.837  20.038  0.00  0.00    +0.000 C 
BRANCH   8  10
ATOM      9  C   UNL     1       1.345   2.815  21.274  0.00  0.00    +0.000 C 
ATOM     10  C   UNL     1       0.988   3.983  20.366  0.00  0.00    +0.000 C 
ENDBRANCH   8  10
ENDBRANCH   7   8
ENDBRANCH   1   7
TORSDOF 5
ENDMDL
MODEL 8
REMARK VINA RESULT:      -3.9      1.322      1.941
REMARK  Name = 
REMARK  7 active torsions:
REMARK  status: ('A' for Active; 'I' for Inactive)
REMARK    1  A    between atoms: C_1  and  C_2
REMARK    2  A    between atoms: C_2  and  C_3
REMARK    3  A    between atoms: C_3  and  C_4
REMARK    4  A    between atoms: C_4  and  N_5
REMARK    5  A    between atoms: N_5  and  C_6
REMARK    6  A    between atoms: N_5  and  C_8
REMARK    7  A    between atoms: C_6  and  C_7
REMARK                            x       y       z     vdW  Elec       q    Type
REMARK                         _______ _______ _______ _____ _____    ______ ____
ROOT
ATOM      1  N   UNL     1       3.136   5.290  18.536  0.00  0.00    +0.000 N 
ENDROOT
BRANCH   1   2
ATOM      2  C   UNL     1       4.439   5.495  18.189  0.00  0.00    +0.000 C 
ATOM      3  S   UNL     1       4.839   6.210  16.670  0.00  0.00    +0.000 S 
ATOM      4  S   UNL     1       5.740   5.037  19.185  0.00  0.00    +0.000 SA
ENDBRANCH   1   2
BRANCH   1   5
ATOM      5  C   UNL     1       2.260   4.407  17.742  0.00  0.00    +0.000 C 
ATOM      6  C   UNL     1       2.790   2.982  17.636  0.00  0.00    +0.000 C 
ENDBRANCH   1   5
BRANCH   1   7
ATOM      7  C   UNL     1       2.538   5.845  19.752  0.00  0.00    +0.000 C 
BRANCH   7   8
ATOM      8  C   UNL     1       1.550   4.879  20.423  0.00  0.00    +0.000 C 
BRANCH   8  10
ATOM      9  C   UNL     1       1.575   2.615  21.537  0.00  0.00    +0.000 C 
ATOM     10  C   UNL     1       2.260   3.969  21.424  0.00  0.00    +0.000 C 
ENDBRANCH   8  10
ENDBRANCH   7   8
ENDBRANCH   1   7
TORSDOF 5
ENDMDL
MODEL 9
REMARK VINA RESULT:      -3.9      1.623      2.650
REMARK  Name = 
REMARK  7 active torsions:
REMARK  status: ('A' for Active; 'I' for Inactive)
REMARK    1  A    between atoms: C_1  and  C_2
REMARK    2  A    between atoms: C_2  and  C_3
REMARK    3  A    between atoms: C_3  and  C_4
REMARK    4  A    between atoms: C_4  and  N_5
REMARK    5  A    between atoms: N_5  and  C_6
REMARK    6  A    between atoms: N_5  and  C_8
REMARK    7  A    between atoms: C_6  and  C_7
REMARK                            x       y       z     vdW  Elec       q    Type
REMARK                         _______ _______ _______ _____ _____    ______ ____
ROOT
ATOM      1  N   UNL     1       3.062   5.324  18.021  0.00  0.00    +0.000 N 
ENDROOT
BRANCH   1   2
ATOM      2  C   UNL     1       4.329   4.851  17.847  0.00  0.00    +0.000 C 
ATOM      3  S   UNL     1       5.491   4.970  19.118  0.00  0.00    +0.000 S 
ATOM      4  S   UNL     1       4.861   4.158  16.387  0.00  0.00    +0.000 SA
ENDBRANCH   1   2
BRANCH   1   5
ATOM      5  C   UNL     1       2.807   6.746  18.320  0.00  0.00    +0.000 C 
ATOM      6  C   UNL     1       2.274   6.973  19.729  0.00  0.00    +0.000 C 
ENDBRANCH   1   5
BRANCH   1   7
ATOM      7  C   UNL     1       1.869   4.493  17.838  0.00  0.00    +0.000 C 
BRANCH   7   8
ATOM      8  C   UNL     1       1.884   3.230  18.712  0.00  0.00    +0.000 C 
BRANCH   8  10
ATOM      9  C   UNL     1       1.535   3.237  21.210  0.00  0.00    +0.000 C 
ATOM     10  C   UNL     1       0.866   3.329  19.846  0.00  0.00    +0.000 C 
ENDBRANCH   8  10
ENDBRANCH   7   8
ENDBRANCH   1   7
TORSDOF 5
ENDMDL
