MODEL 1
REMARK VINA RESULT:      -6.7      0.000      0.000
REMARK  Name = 
REMARK  4 active torsions:
REMARK  status: ('A' for Active; 'I' for Inactive)
REMARK    1  A    between atoms: C_1  and  C_2
REMARK    2  A    between atoms: C_2  and  N_3
REMARK    3  A    between atoms: C_13  and  C_14
REMARK    4  A    between atoms: C_13  and  O_15
REMARK                            x       y       z     vdW  Elec       q    Type
REMARK                         _______ _______ _______ _____ _____    ______ ____
ROOT
ATOM      1  N   UNL     1       6.332   5.544  17.679  0.00  0.00    +0.000 N 
ATOM      2  C   UNL     1       6.109   5.114  18.961  0.00  0.00    +0.000 C 
ATOM      3  O   UNL     1       6.853   5.264  19.914  0.00  0.00    +0.000 OA
ATOM      4  O   UNL     1       4.898   4.498  19.043  0.00  0.00    +0.000 OA
ATOM      5  C   UNL     1       4.249   4.488  17.744  0.00  0.00    +0.000 C 
ATOM      6  C   UNL     1       3.026   5.430  17.814  0.00  0.00    +0.000 C 
ATOM      7  C   UNL     1       1.908   4.932  18.728  0.00  0.00    +0.000 C 
ATOM      8  C   UNL     1       1.503   3.504  18.389  0.00  0.00    +0.000 C 
ATOM      9  C   UNL     1       2.706   2.575  18.467  0.00  0.00    +0.000 C 
ATOM     10  C   UNL     1       3.812   3.026  17.510  0.00  0.00    +0.000 C 
ATOM     11  C   UNL     1       5.352   5.025  16.773  0.00  0.00    +0.000 C 
ATOM     12  C   UNL     1       5.926   3.986  15.808  0.00  0.00    +0.000 C 
ENDROOT
BRANCH   1  14
ATOM     13  C   UNL     1       7.437   7.739  17.607  0.00  0.00    +0.000 C 
ATOM     14  C   UNL     1       7.533   6.257  17.273  0.00  0.00    +0.000 C 
ENDBRANCH   1  14
BRANCH  11  15
ATOM     15  O   UNL     1       4.912   6.123  15.989  0.00  0.00    +0.000 OA
ATOM     16  H   UNL     1       5.676   6.723  15.946  0.00  0.00    +0.000 HD
ENDBRANCH  11  15
TORSDOF 2
ENDMDL
MODEL 2
REMARK VINA RESULT:      -6.7      0.987      1.047
REMARK  Name = 
REMARK  4 active torsions:
REMARK  status: ('A' for Active; 'I' for Inactive)
REMARK    1  A    between atoms: C_1  and  C_2
REMARK    2  A    between atoms: C_2  and  N_3
REMARK    3  A    between atoms: C_13  and  C_14
REMARK    4  A    between atoms: C_13  and  O_15
REMARK                            x       y       z     vdW  Elec       q    Type
REMARK                         _______ _______ _______ _____ _____    ______ ____
ROOT
ATOM      1  N   UNL     1       6.179   5.800  17.918  0.00  0.00    +0.000 N 
ATOM      2  C   UNL     1       6.250   5.339  19.207  0.00  0.00    +0.000 C 
ATOM      3  O   UNL     1       7.239   5.325  19.916  0.00  0.00    +0.000 OA
ATOM      4  O   UNL     1       5.026   4.905  19.615  0.00  0.00    +0.000 OA
ATOM      5  C   UNL     1       4.053   5.062  18.548  0.00  0.00    +0.000 C 
ATOM      6  C   UNL     1       3.060   6.170  18.966  0.00  0.00    +0.000 C 
ATOM      7  C   UNL     1       2.170   5.794  20.149  0.00  0.00    +0.000 C 
ATOM      8  C   UNL     1       1.468   4.463  19.920  0.00  0.00    +0.000 C 
ATOM      9  C   UNL     1       2.485   3.363  19.651  0.00  0.00    +0.000 C 
ATOM     10  C   UNL     1       3.345   3.696  18.429  0.00  0.00    +0.000 C 
ATOM     11  C   UNL     1       4.920   5.481  17.315  0.00  0.00    +0.000 C 
ATOM     12  C   UNL     1       5.038   4.422  16.217  0.00  0.00    +0.000 C 
ENDROOT
BRANCH   1  14
ATOM     13  C   UNL     1       7.598   7.785  17.618  0.00  0.00    +0.000 C 
ATOM     14  C   UNL     1       7.320   6.347  17.201  0.00  0.00    +0.000 C 
ENDBRANCH   1  14
BRANCH  11  15
ATOM     15  O   UNL     1       4.461   6.672  16.696  0.00  0.00    +0.000 OA
ATOM     16  H   UNL     1       3.493   6.645  16.784  0.00  0.00    +0.000 HD
ENDBRANCH  11  15
TORSDOF 2
ENDMDL
MODEL 3
REMARK VINA RESULT:      -6.7      1.872      4.537
REMARK  Name = 
REMARK  4 active torsions:
REMARK  status: ('A' for Active; 'I' for Inactive)
REMARK    1  A    between atoms: C_1  and  C_2
REMARK    2  A    between atoms: C_2  and  N_3
REMARK    3  A    between atoms: C_13  and  C_14
REMARK    4  A    between atoms: C_13  and  O_15
REMARK                            x       y       z     vdW  Elec       q    Type
REMARK                         _______ _______ _______ _____ _____    ______ ____
ROOT
ATOM      1  N   UNL     1       3.382   4.164  19.634  0.00  0.00    +0.000 N 
ATOM      2  C   UNL     1       3.312   5.454  19.178  0.00  0.00    +0.000 C 
ATOM      3  O   UNL     1       2.603   6.340  19.619  0.00  0.00    +0.000 OA
ATOM      4  O   UNL     1       4.184   5.633  18.147  0.00  0.00    +0.000 OA
ATOM      5  C   UNL     1       4.890   4.395  17.864  0.00  0.00    +0.000 C 
ATOM      6  C   UNL     1       6.369   4.586  18.270  0.00  0.00    +0.000 C 
ATOM      7  C   UNL     1       7.129   5.587  17.401  0.00  0.00    +0.000 C 
ATOM      8  C   UNL     1       6.986   5.263  15.921  0.00  0.00    +0.000 C 
ATOM      9  C   UNL     1       5.518   5.223  15.522  0.00  0.00    +0.000 C 
ATOM     10  C   UNL     1       4.754   4.179  16.343  0.00  0.00    +0.000 C 
ATOM     11  C   UNL     1       4.164   3.340  18.762  0.00  0.00    +0.000 C 
ATOM     12  C   UNL     1       3.322   2.313  18.001  0.00  0.00    +0.000 C 
ENDROOT
BRANCH   1  14
ATOM     13  C   UNL     1       1.107   3.603  20.378  0.00  0.00    +0.000 C 
ATOM     14  C   UNL     1       2.584   3.665  20.743  0.00  0.00    +0.000 C 
ENDBRANCH   1  14
BRANCH  11  15
ATOM     15  O   UNL     1       5.056   2.613  19.593  0.00  0.00    +0.000 OA
ATOM     16  H   UNL     1       5.910   3.069  19.503  0.00  0.00    +0.000 HD
ENDBRANCH  11  15
TORSDOF 2
ENDMDL
MODEL 4
REMARK VINA RESULT:      -6.6      2.033      4.638
REMARK  Name = 
REMARK  4 active torsions:
REMARK  status: ('A' for Active; 'I' for Inactive)
REMARK    1  A    between atoms: C_1  and  C_2
REMARK    2  A    between atoms: C_2  and  N_3
REMARK    3  A    between atoms: C_13  and  C_14
REMARK    4  A    between atoms: C_13  and  O_15
REMARK                            x       y       z     vdW  Elec       q    Type
REMARK                         _______ _______ _______ _____ _____    ______ ____
ROOT
ATOM      1  N   UNL     1       3.143   2.877  19.024  0.00  0.00    +0.000 N 
ATOM      2  C   UNL     1       4.404   2.806  19.558  0.00  0.00    +0.000 C 
ATOM      3  O   UNL     1       4.762   2.091  20.476  0.00  0.00    +0.000 OA
ATOM      4  O   UNL     1       5.240   3.650  18.892  0.00  0.00    +0.000 OA
ATOM      5  C   UNL     1       4.518   4.355  17.847  0.00  0.00    +0.000 C 
ATOM      6  C   UNL     1       5.033   3.842  16.483  0.00  0.00    +0.000 C 
ATOM      7  C   UNL     1       6.480   4.227  16.179  0.00  0.00    +0.000 C 
ATOM      8  C   UNL     1       6.707   5.723  16.343  0.00  0.00    +0.000 C 
ATOM      9  C   UNL     1       6.323   6.170  17.747  0.00  0.00    +0.000 C 
ATOM     10  C   UNL     1       4.855   5.847  18.044  0.00  0.00    +0.000 C 
ATOM     11  C   UNL     1       3.025   3.963  18.098  0.00  0.00    +0.000 C 
ATOM     12  C   UNL     1       2.138   5.095  18.621  0.00  0.00    +0.000 C 
ENDROOT
BRANCH   1  14
ATOM     13  C   UNL     1       1.501   2.610  20.835  0.00  0.00    +0.000 C 
ATOM     14  C   UNL     1       2.026   2.080  19.507  0.00  0.00    +0.000 C 
ENDBRANCH   1  14
BRANCH  11  15
ATOM     15  O   UNL     1       2.389   3.435  16.945  0.00  0.00    +0.000 OA
ATOM     16  H   UNL     1       2.759   3.942  16.201  0.00  0.00    +0.000 HD
ENDBRANCH  11  15
TORSDOF 2
ENDMDL
MODEL 5
REMARK VINA RESULT:      -6.4      2.005      4.654
REMARK  Name = 
REMARK  4 active torsions:
REMARK  status: ('A' for Active; 'I' for Inactive)
REMARK    1  A    between atoms: C_1  and  C_2
REMARK    2  A    between atoms: C_2  and  N_3
REMARK    3  A    between atoms: C_13  and  C_14
REMARK    4  A    between atoms: C_13  and  O_15
REMARK                            x       y       z     vdW  Elec       q    Type
REMARK                         _______ _______ _______ _____ _____    ______ ____
ROOT
ATOM      1  N   UNL     1       2.850   4.016  19.496  0.00  0.00    +0.000 N 
ATOM      2  C   UNL     1       2.898   5.369  19.710  0.00  0.00    +0.000 C 
ATOM      3  O   UNL     1       2.156   6.014  20.428  0.00  0.00    +0.000 OA
ATOM      4  O   UNL     1       3.930   5.916  19.011  0.00  0.00    +0.000 OA
ATOM      5  C   UNL     1       4.632   4.889  18.261  0.00  0.00    +0.000 C 
ATOM      6  C   UNL     1       6.031   4.709  18.891  0.00  0.00    +0.000 C 
ATOM      7  C   UNL     1       6.954   5.913  18.713  0.00  0.00    +0.000 C 
ATOM      8  C   UNL     1       7.041   6.340  17.255  0.00  0.00    +0.000 C 
ATOM      9  C   UNL     1       5.656   6.647  16.704  0.00  0.00    +0.000 C 
ATOM     10  C   UNL     1       4.736   5.428  16.819  0.00  0.00    +0.000 C 
ATOM     11  C   UNL     1       3.735   3.620  18.442  0.00  0.00    +0.000 C 
ATOM     12  C   UNL     1       2.994   3.167  17.182  0.00  0.00    +0.000 C 
ENDROOT
BRANCH   1  14
ATOM     13  C   UNL     1       2.223   2.855  21.570  0.00  0.00    +0.000 C 
ATOM     14  C   UNL     1       1.867   3.143  20.118  0.00  0.00    +0.000 C 
ENDBRANCH   1  14
BRANCH  11  15
ATOM     15  O   UNL     1       4.456   2.499  18.927  0.00  0.00    +0.000 OA
ATOM     16  H   UNL     1       3.780   1.907  19.298  0.00  0.00    +0.000 HD
ENDBRANCH  11  15
TORSDOF 2
ENDMDL
MODEL 6
REMARK VINA RESULT:      -6.2      1.989      3.035
REMARK  Name = 
REMARK  4 active torsions:
REMARK  status: ('A' for Active; 'I' for Inactive)
REMARK    1  A    between atoms: C_1  and  C_2
REMARK    2  A    between atoms: C_2  and  N_3
REMARK    3  A    between atoms: C_13  and  C_14
REMARK    4  A    between atoms: C_13  and  O_15
REMARK                            x       y       z     vdW  Elec       q    Type
REMARK                         _______ _______ _______ _____ _____    ______ ____
ROOT
ATOM      1  N   UNL     1       5.909   5.165  15.814  0.00  0.00    +0.000 N 
ATOM      2  C   UNL     1       5.091   6.264  15.800  0.00  0.00    +0.000 C 
ATOM      3  O   UNL     1       5.118   7.174  14.992  0.00  0.00    +0.000 OA
ATOM      4  O   UNL     1       4.198   6.195  16.825  0.00  0.00    +0.000 OA
ATOM      5  C   UNL     1       4.415   4.988  17.603  0.00  0.00    +0.000 C 
ATOM      6  C   UNL     1       3.209   4.049  17.373  0.00  0.00    +0.000 C 
ATOM      7  C   UNL     1       1.897   4.568  17.958  0.00  0.00    +0.000 C 
ATOM      8  C   UNL     1       2.049   4.944  19.425  0.00  0.00    +0.000 C 
ATOM      9  C   UNL     1       3.152   5.978  19.599  0.00  0.00    +0.000 C 
ATOM     10  C   UNL     1       4.489   5.449  19.073  0.00  0.00    +0.000 C 
ATOM     11  C   UNL     1       5.740   4.400  17.014  0.00  0.00    +0.000 C 
ATOM     12  C   UNL     1       6.952   4.479  17.944  0.00  0.00    +0.000 C 
ENDROOT
BRANCH   1  14
ATOM     13  C   UNL     1       6.433   4.163  13.631  0.00  0.00    +0.000 C 
ATOM     14  C   UNL     1       6.958   4.936  14.833  0.00  0.00    +0.000 C 
ENDBRANCH   1  14
BRANCH  11  15
ATOM     15  O   UNL     1       5.613   3.046  16.610  0.00  0.00    +0.000 OA
ATOM     16  H   UNL     1       6.498   2.663  16.732  0.00  0.00    +0.000 HD
ENDBRANCH  11  15
TORSDOF 2
ENDMDL
MODEL 7
REMARK VINA RESULT:      -6.2      1.322      2.859
REMARK  Name = 
REMARK  4 active torsions:
REMARK  status: ('A' for Active; 'I' for Inactive)
REMARK    1  A    between atoms: C_1  and  C_2
REMARK    2  A    between atoms: C_2  and  N_3
REMARK    3  A    between atoms: C_13  and  C_14
REMARK    4  A    between atoms: C_13  and  O_15
REMARK                            x       y       z     vdW  Elec       q    Type
REMARK                         _______ _______ _______ _____ _____    ______ ____
ROOT
ATOM      1  N   UNL     1       5.800   4.398  17.341  0.00  0.00    +0.000 N 
ATOM      2  C   UNL     1       4.970   4.229  16.263  0.00  0.00    +0.000 C 
ATOM      3  O   UNL     1       5.272   4.362  15.091  0.00  0.00    +0.000 OA
ATOM      4  O   UNL     1       3.729   3.859  16.683  0.00  0.00    +0.000 OA
ATOM      5  C   UNL     1       3.690   3.777  18.133  0.00  0.00    +0.000 C 
ATOM      6  C   UNL     1       3.537   2.290  18.523  0.00  0.00    +0.000 C 
ATOM      7  C   UNL     1       2.190   1.681  18.139  0.00  0.00    +0.000 C 
ATOM      8  C   UNL     1       1.029   2.523  18.650  0.00  0.00    +0.000 C 
ATOM      9  C   UNL     1       1.134   3.949  18.130  0.00  0.00    +0.000 C 
ATOM     10  C   UNL     1       2.454   4.596  18.561  0.00  0.00    +0.000 C 
ATOM     11  C   UNL     1       5.072   4.363  18.575  0.00  0.00    +0.000 C 
ATOM     12  C   UNL     1       5.005   5.728  19.264  0.00  0.00    +0.000 C 
ENDROOT
BRANCH   1  14
ATOM     13  C   UNL     1       7.350   6.281  17.032  0.00  0.00    +0.000 C 
ATOM     14  C   UNL     1       7.199   4.778  17.221  0.00  0.00    +0.000 C 
ENDBRANCH   1  14
BRANCH  11  15
ATOM     15  O   UNL     1       5.790   3.496  19.437  0.00  0.00    +0.000 OA
ATOM     16  H   UNL     1       5.944   4.015  20.245  0.00  0.00    +0.000 HD
ENDBRANCH  11  15
TORSDOF 2
ENDMDL
MODEL 8
REMARK VINA RESULT:      -6.1      1.879      2.880
REMARK  Name = 
REMARK  4 active torsions:
REMARK  status: ('A' for Active; 'I' for Inactive)
REMARK    1  A    between atoms: C_1  and  C_2
REMARK    2  A    between atoms: C_2  and  N_3
REMARK    3  A    between atoms: C_13  and  C_14
REMARK    4  A    between atoms: C_13  and  O_15
REMARK                            x       y       z     vdW  Elec       q    Type
REMARK                         _______ _______ _______ _____ _____    ______ ____
ROOT
ATOM      1  N   UNL     1       4.463   5.995  17.607  0.00  0.00    +0.000 N 
ATOM      2  C   UNL     1       3.285   6.640  17.885  0.00  0.00    +0.000 C 
ATOM      3  O   UNL     1       2.975   7.762  17.530  0.00  0.00    +0.000 OA
ATOM      4  O   UNL     1       2.470   5.829  18.613  0.00  0.00    +0.000 OA
ATOM      5  C   UNL     1       3.120   4.555  18.867  0.00  0.00    +0.000 C 
ATOM      6  C   UNL     1       2.372   3.468  18.062  0.00  0.00    +0.000 C 
ATOM      7  C   UNL     1       0.951   3.198  18.553  0.00  0.00    +0.000 C 
ATOM      8  C   UNL     1       0.921   2.915  20.049  0.00  0.00    +0.000 C 
ATOM      9  C   UNL     1       1.539   4.071  20.823  0.00  0.00    +0.000 C 
ATOM     10  C   UNL     1       2.986   4.315  20.385  0.00  0.00    +0.000 C 
ATOM     11  C   UNL     1       4.579   4.773  18.346  0.00  0.00    +0.000 C 
ATOM     12  C   UNL     1       5.652   4.838  19.436  0.00  0.00    +0.000 C 
ENDROOT
BRANCH   1  14
ATOM     13  C   UNL     1       5.350   6.334  15.340  0.00  0.00    +0.000 C 
ATOM     14  C   UNL     1       5.536   6.592  16.829  0.00  0.00    +0.000 C 
ENDBRANCH   1  14
BRANCH  11  15
ATOM     15  O   UNL     1       4.989   3.783  17.417  0.00  0.00    +0.000 OA
ATOM     16  H   UNL     1       5.377   3.075  17.959  0.00  0.00    +0.000 HD
ENDBRANCH  11  15
TORSDOF 2
ENDMDL
MODEL 9
REMARK VINA RESULT:      -6.0      2.198      4.701
REMARK  Name = 
REMARK  4 active torsions:
REMARK  status: ('A' for Active; 'I' for Inactive)
REMARK    1  A    between atoms: C_1  and  C_2
REMARK    2  A    between atoms: C_2  and  N_3
REMARK    3  A    between atoms: C_13  and  C_14
REMARK    4  A    between atoms: C_13  and  O_15
REMARK                            x       y       z     vdW  Elec       q    Type
REMARK                         _______ _______ _______ _____ _____    ______ ____
ROOT
ATOM      1  N   UNL     1       2.455   4.403  19.091  0.00  0.00    +0.000 N 
ATOM      2  C   UNL     1       2.013   4.271  17.800  0.00  0.00    +0.000 C 
ATOM      3  O   UNL     1       0.867   4.058  17.447  0.00  0.00    +0.000 OA
ATOM      4  O   UNL     1       3.049   4.436  16.933  0.00  0.00    +0.000 OA
ATOM      5  C   UNL     1       4.281   4.685  17.660  0.00  0.00    +0.000 C 
ATOM      6  C   UNL     1       4.702   6.149  17.398  0.00  0.00    +0.000 C 
ATOM      7  C   UNL     1       5.127   6.426  15.957  0.00  0.00    +0.000 C 
ATOM      8  C   UNL     1       6.187   5.440  15.487  0.00  0.00    +0.000 C 
ATOM      9  C   UNL     1       5.684   4.010  15.626  0.00  0.00    +0.000 C 
ATOM     10  C   UNL     1       5.313   3.696  17.078  0.00  0.00    +0.000 C 
ATOM     11  C   UNL     1       3.885   4.444  19.154  0.00  0.00    +0.000 C 
ATOM     12  C   UNL     1       4.488   3.189  19.789  0.00  0.00    +0.000 C 
ENDROOT
BRANCH   1  14
ATOM     13  C   UNL     1       1.169   2.854  20.502  0.00  0.00    +0.000 C 
ATOM     14  C   UNL     1       1.582   4.298  20.249  0.00  0.00    +0.000 C 
ENDBRANCH   1  14
BRANCH  11  15
ATOM     15  O   UNL     1       4.216   5.536  19.997  0.00  0.00    +0.000 OA
ATOM     16  H   UNL     1       4.268   5.157  20.891  0.00  0.00    +0.000 HD
ENDBRANCH  11  15
TORSDOF 2
ENDMDL
