MODEL 1
REMARK VINA RESULT:      -5.5      0.000      0.000
REMARK  Name = 
REMARK  10 active torsions:
REMARK  status: ('A' for Active; 'I' for Inactive)
REMARK    1  A    between atoms: C_1  and  C_2
REMARK    2  A    between atoms: C_2  and  O_3
REMARK    3  A    between atoms: O_3  and  C_4
REMARK    4  A    between atoms: C_10  and  C_11
REMARK    5  A    between atoms: C_11  and  N_12
REMARK    6  A    between atoms: N_12  and  C_13
REMARK    7  A    between atoms: C_13  and  C_14
REMARK    8  A    between atoms: C_14  and  N_15
REMARK    9  A    between atoms: N_15  and  C_16
REMARK   10  A    between atoms: N_15  and  C_17
REMARK                            x       y       z     vdW  Elec       q    Type
REMARK                         _______ _______ _______ _____ _____    ______ ____
ROOT
ATOM      1  C   UNL     1       2.732   5.141  19.816  0.00  0.00    +0.000 A 
ATOM      2  C   UNL     1       2.042   6.175  20.468  0.00  0.00    +0.000 A 
ATOM      3  C   UNL     1       1.885   7.432  19.875  0.00  0.00    +0.000 A 
ATOM      4  C   UNL     1       2.412   7.654  18.613  0.00  0.00    +0.000 A 
ATOM      5 CL   UNL     1       2.243   9.204  17.879  0.00  0.00    +0.000 Cl
ATOM      6  C   UNL     1       3.082   6.640  17.937  0.00  0.00    +0.000 A 
ATOM      7  C   UNL     1       3.249   5.362  18.525  0.00  0.00    +0.000 A 
ENDROOT
BRANCH   1   8
ATOM      8  O   UNL     1       2.930   3.900  20.384  0.00  0.00    +0.000 OA
BRANCH   8  10
ATOM      9  C   UNL     1       1.412   2.275  19.424  0.00  0.00    +0.000 C 
ATOM     10  C   UNL     1       1.739   3.141  20.625  0.00  0.00    +0.000 C 
ENDBRANCH   8  10
ENDBRANCH   1   8
BRANCH   7  11
ATOM     11  C   UNL     1       4.000   4.316  17.724  0.00  0.00    +0.000 C 
BRANCH  11  12
ATOM     12  N   UNL     1       5.176   3.756  18.381  0.00  0.00    +0.000 NA
ATOM     13  H   UNL     1       5.566   3.036  17.770  0.00  0.00    +0.000 HD
BRANCH  12  14
ATOM     14  C   UNL     1       6.212   4.759  18.678  0.00  0.00    +0.000 C 
BRANCH  14  15
ATOM     15  C   UNL     1       7.402   4.587  17.707  0.00  0.00    +0.000 C 
BRANCH  15  16
ATOM     16  N   UNL     1       7.455   5.564  16.601  0.00  0.00    +0.000 NA
ATOM     17  C   UNL     1       6.875   5.029  15.368  0.00  0.00    +0.000 C 
ATOM     18  C   UNL     1       6.737   6.781  16.993  0.00  0.00    +0.000 C 
ENDBRANCH  15  16
ENDBRANCH  14  15
ENDBRANCH  12  14
ENDBRANCH  11  12
ENDBRANCH   7  11
TORSDOF 7
ENDMDL
MODEL 2
REMARK VINA RESULT:      -5.4      2.535      4.917
REMARK  Name = 
REMARK  10 active torsions:
REMARK  status: ('A' for Active; 'I' for Inactive)
REMARK    1  A    between atoms: C_1  and  C_2
REMARK    2  A    between atoms: C_2  and  O_3
REMARK    3  A    between atoms: O_3  and  C_4
REMARK    4  A    between atoms: C_10  and  C_11
REMARK    5  A    between atoms: C_11  and  N_12
REMARK    6  A    between atoms: N_12  and  C_13
REMARK    7  A    between atoms: C_13  and  C_14
REMARK    8  A    between atoms: C_14  and  N_15
REMARK    9  A    between atoms: N_15  and  C_16
REMARK   10  A    between atoms: N_15  and  C_17
REMARK                            x       y       z     vdW  Elec       q    Type
REMARK                         _______ _______ _______ _____ _____    ______ ____
ROOT
ATOM      1  C   UNL     1       4.240   5.900  18.179  0.00  0.00    +0.000 A 
ATOM      2  C   UNL     1       4.397   6.790  17.105  0.00  0.00    +0.000 A 
ATOM      3  C   UNL     1       5.198   6.467  16.005  0.00  0.00    +0.000 A 
ATOM      4  C   UNL     1       5.839   5.239  15.973  0.00  0.00    +0.000 A 
ATOM      5 CL   UNL     1       6.845   4.837  14.633  0.00  0.00    +0.000 Cl
ATOM      6  C   UNL     1       5.682   4.331  17.014  0.00  0.00    +0.000 A 
ATOM      7  C   UNL     1       4.874   4.643  18.135  0.00  0.00    +0.000 A 
ENDROOT
BRANCH   1   8
ATOM      8  O   UNL     1       3.480   6.198  19.291  0.00  0.00    +0.000 OA
BRANCH   8  10
ATOM      9  C   UNL     1       1.849   7.588  20.420  0.00  0.00    +0.000 C 
ATOM     10  C   UNL     1       2.469   7.193  19.093  0.00  0.00    +0.000 C 
ENDBRANCH   8  10
ENDBRANCH   1   8
BRANCH   7  11
ATOM     11  C   UNL     1       4.765   3.602  19.230  0.00  0.00    +0.000 C 
BRANCH  11  12
ATOM     12  N   UNL     1       4.485   2.245  18.774  0.00  0.00    +0.000 NA
ATOM     13  H   UNL     1       4.534   1.623  19.582  0.00  0.00    +0.000 HD
BRANCH  12  14
ATOM     14  C   UNL     1       3.170   2.106  18.129  0.00  0.00    +0.000 C 
BRANCH  14  15
ATOM     15  C   UNL     1       2.065   2.006  19.205  0.00  0.00    +0.000 C 
BRANCH  15  16
ATOM     16  N   UNL     1       1.017   3.043  19.126  0.00  0.00    +0.000 NA
ATOM     17  C   UNL     1       1.002   3.901  20.311  0.00  0.00    +0.000 C 
ATOM     18  C   UNL     1       1.235   3.864  17.930  0.00  0.00    +0.000 C 
ENDBRANCH  15  16
ENDBRANCH  14  15
ENDBRANCH  12  14
ENDBRANCH  11  12
ENDBRANCH   7  11
TORSDOF 7
ENDMDL
MODEL 3
REMARK VINA RESULT:      -5.4      2.750      4.551
REMARK  Name = 
REMARK  10 active torsions:
REMARK  status: ('A' for Active; 'I' for Inactive)
REMARK    1  A    between atoms: C_1  and  C_2
REMARK    2  A    between atoms: C_2  and  O_3
REMARK    3  A    between atoms: O_3  and  C_4
REMARK    4  A    between atoms: C_10  and  C_11
REMARK    5  A    between atoms: C_11  and  N_12
REMARK    6  A    between atoms: N_12  and  C_13
REMARK    7  A    between atoms: C_13  and  C_14
REMARK    8  A    between atoms: C_14  and  N_15
REMARK    9  A    between atoms: N_15  and  C_16
REMARK   10  A    between atoms: N_15  and  C_17
REMARK                            x       y       z     vdW  Elec       q    Type
REMARK                         _______ _______ _______ _____ _____    ______ ____
ROOT
ATOM      1  C   UNL     1       5.775   4.688  18.395  0.00  0.00    +0.000 A 
ATOM      2  C   UNL     1       4.870   5.149  19.363  0.00  0.00    +0.000 A 
ATOM      3  C   UNL     1       3.490   5.135  19.134  0.00  0.00    +0.000 A 
ATOM      4  C   UNL     1       3.010   4.644  17.931  0.00  0.00    +0.000 A 
ATOM      5 CL   UNL     1       1.314   4.639  17.627  0.00  0.00    +0.000 Cl
ATOM      6  C   UNL     1       3.885   4.163  16.963  0.00  0.00    +0.000 A 
ATOM      7  C   UNL     1       5.285   4.170  17.180  0.00  0.00    +0.000 A 
ENDROOT
BRANCH   1   8
ATOM      8  O   UNL     1       7.142   4.715  18.577  0.00  0.00    +0.000 OA
BRANCH   8  10
ATOM      9  C   UNL     1       7.879   6.997  18.233  0.00  0.00    +0.000 C 
ATOM     10  C   UNL     1       7.649   5.882  19.236  0.00  0.00    +0.000 C 
ENDBRANCH   8  10
ENDBRANCH   1   8
BRANCH   7  11
ATOM     11  C   UNL     1       6.168   3.636  16.071  0.00  0.00    +0.000 C 
BRANCH  11  12
ATOM     12  N   UNL     1       7.180   4.565  15.579  0.00  0.00    +0.000 NA
ATOM     13  H   UNL     1       8.092   4.115  15.667  0.00  0.00    +0.000 HD
BRANCH  12  14
ATOM     14  C   UNL     1       6.968   4.969  14.179  0.00  0.00    +0.000 C 
BRANCH  14  15
ATOM     15  C   UNL     1       5.701   4.282  13.620  0.00  0.00    +0.000 C 
BRANCH  15  16
ATOM     16  N   UNL     1       5.944   3.294  12.550  0.00  0.00    +0.000 NA
ATOM     17  C   UNL     1       4.763   3.092  11.710  0.00  0.00    +0.000 C 
ATOM     18  C   UNL     1       7.065   3.746  11.718  0.00  0.00    +0.000 C 
ENDBRANCH  15  16
ENDBRANCH  14  15
ENDBRANCH  12  14
ENDBRANCH  11  12
ENDBRANCH   7  11
TORSDOF 7
ENDMDL
MODEL 4
REMARK VINA RESULT:      -5.3      2.761      5.316
REMARK  Name = 
REMARK  10 active torsions:
REMARK  status: ('A' for Active; 'I' for Inactive)
REMARK    1  A    between atoms: C_1  and  C_2
REMARK    2  A    between atoms: C_2  and  O_3
REMARK    3  A    between atoms: O_3  and  C_4
REMARK    4  A    between atoms: C_10  and  C_11
REMARK    5  A    between atoms: C_11  and  N_12
REMARK    6  A    between atoms: N_12  and  C_13
REMARK    7  A    between atoms: C_13  and  C_14
REMARK    8  A    between atoms: C_14  and  N_15
REMARK    9  A    between atoms: N_15  and  C_16
REMARK   10  A    between atoms: N_15  and  C_17
REMARK                            x       y       z     vdW  Elec       q    Type
REMARK                         _______ _______ _______ _____ _____    ______ ____
ROOT
ATOM      1  C   UNL     1       4.574   5.506  17.172  0.00  0.00    +0.000 A 
ATOM      2  C   UNL     1       4.995   6.469  16.240  0.00  0.00    +0.000 A 
ATOM      3  C   UNL     1       5.659   6.101  15.065  0.00  0.00    +0.000 A 
ATOM      4  C   UNL     1       5.895   4.760  14.813  0.00  0.00    +0.000 A 
ATOM      5 CL   UNL     1       6.730   4.295  13.380  0.00  0.00    +0.000 Cl
ATOM      6  C   UNL     1       5.470   3.786  15.711  0.00  0.00    +0.000 A 
ATOM      7  C   UNL     1       4.796   4.141  16.904  0.00  0.00    +0.000 A 
ENDROOT
BRANCH   1   8
ATOM      8  O   UNL     1       3.943   5.836  18.353  0.00  0.00    +0.000 OA
BRANCH   8  10
ATOM      9  C   UNL     1       2.424   7.723  18.381  0.00  0.00    +0.000 C 
ATOM     10  C   UNL     1       2.569   6.221  18.225  0.00  0.00    +0.000 C 
ENDBRANCH   8  10
ENDBRANCH   1   8
BRANCH   7  11
ATOM     11  C   UNL     1       4.375   3.019  17.832  0.00  0.00    +0.000 C 
BRANCH  11  12
ATOM     12  N   UNL     1       5.118   2.935  19.085  0.00  0.00    +0.000 NA
ATOM     13  H   UNL     1       5.479   3.866  19.301  0.00  0.00    +0.000 HD
BRANCH  12  14
ATOM     14  C   UNL     1       4.305   2.452  20.213  0.00  0.00    +0.000 C 
BRANCH  14  15
ATOM     15  C   UNL     1       2.832   2.300  19.771  0.00  0.00    +0.000 C 
BRANCH  15  16
ATOM     16  N   UNL     1       1.880   3.207  20.443  0.00  0.00    +0.000 NA
ATOM     17  C   UNL     1       0.649   3.383  19.669  0.00  0.00    +0.000 C 
ATOM     18  C   UNL     1       1.552   2.671  21.769  0.00  0.00    +0.000 C 
ENDBRANCH  15  16
ENDBRANCH  14  15
ENDBRANCH  12  14
ENDBRANCH  11  12
ENDBRANCH   7  11
TORSDOF 7
ENDMDL
MODEL 5
REMARK VINA RESULT:      -5.3      2.806      5.642
REMARK  Name = 
REMARK  10 active torsions:
REMARK  status: ('A' for Active; 'I' for Inactive)
REMARK    1  A    between atoms: C_1  and  C_2
REMARK    2  A    between atoms: C_2  and  O_3
REMARK    3  A    between atoms: O_3  and  C_4
REMARK    4  A    between atoms: C_10  and  C_11
REMARK    5  A    between atoms: C_11  and  N_12
REMARK    6  A    between atoms: N_12  and  C_13
REMARK    7  A    between atoms: C_13  and  C_14
REMARK    8  A    between atoms: C_14  and  N_15
REMARK    9  A    between atoms: N_15  and  C_16
REMARK   10  A    between atoms: N_15  and  C_17
REMARK                            x       y       z     vdW  Elec       q    Type
REMARK                         _______ _______ _______ _____ _____    ______ ____
ROOT
ATOM      1  C   UNL     1       6.450   4.946  17.785  0.00  0.00    +0.000 A 
ATOM      2  C   UNL     1       7.390   4.418  16.886  0.00  0.00    +0.000 A 
ATOM      3  C   UNL     1       7.052   4.147  15.556  0.00  0.00    +0.000 A 
ATOM      4  C   UNL     1       5.766   4.416  15.117  0.00  0.00    +0.000 A 
ATOM      5 CL   UNL     1       5.330   4.069  13.487  0.00  0.00    +0.000 Cl
ATOM      6  C   UNL     1       4.822   4.958  15.983  0.00  0.00    +0.000 A 
ATOM      7  C   UNL     1       5.149   5.239  17.332  0.00  0.00    +0.000 A 
ENDROOT
BRANCH   1   8
ATOM      8  O   UNL     1       6.742   5.198  19.109  0.00  0.00    +0.000 OA
BRANCH   8  10
ATOM      9  C   UNL     1       8.051   7.156  18.543  0.00  0.00    +0.000 C 
ATOM     10  C   UNL     1       7.985   5.869  19.344  0.00  0.00    +0.000 C 
ENDBRANCH   8  10
ENDBRANCH   1   8
BRANCH   7  11
ATOM     11  C   UNL     1       4.059   5.819  18.210  0.00  0.00    +0.000 C 
BRANCH  11  12
ATOM     12  N   UNL     1       3.902   5.180  19.512  0.00  0.00    +0.000 NA
ATOM     13  H   UNL     1       4.051   5.889  20.232  0.00  0.00    +0.000 HD
BRANCH  12  14
ATOM     14  C   UNL     1       2.580   4.562  19.703  0.00  0.00    +0.000 C 
BRANCH  14  15
ATOM     15  C   UNL     1       1.855   4.444  18.342  0.00  0.00    +0.000 C 
BRANCH  15  16
ATOM     16  N   UNL     1       1.577   3.063  17.899  0.00  0.00    +0.000 NA
ATOM     17  C   UNL     1       2.805   2.290  17.709  0.00  0.00    +0.000 C 
ATOM     18  C   UNL     1       0.726   2.396  18.891  0.00  0.00    +0.000 C 
ENDBRANCH  15  16
ENDBRANCH  14  15
ENDBRANCH  12  14
ENDBRANCH  11  12
ENDBRANCH   7  11
TORSDOF 7
ENDMDL
MODEL 6
REMARK VINA RESULT:      -5.3      2.076      4.824
REMARK  Name = 
REMARK  10 active torsions:
REMARK  status: ('A' for Active; 'I' for Inactive)
REMARK    1  A    between atoms: C_1  and  C_2
REMARK    2  A    between atoms: C_2  and  O_3
REMARK    3  A    between atoms: O_3  and  C_4
REMARK    4  A    between atoms: C_10  and  C_11
REMARK    5  A    between atoms: C_11  and  N_12
REMARK    6  A    between atoms: N_12  and  C_13
REMARK    7  A    between atoms: C_13  and  C_14
REMARK    8  A    between atoms: C_14  and  N_15
REMARK    9  A    between atoms: N_15  and  C_16
REMARK   10  A    between atoms: N_15  and  C_17
REMARK                            x       y       z     vdW  Elec       q    Type
REMARK                         _______ _______ _______ _____ _____    ______ ____
ROOT
ATOM      1  C   UNL     1       4.142   6.179  17.728  0.00  0.00    +0.000 A 
ATOM      2  C   UNL     1       3.333   7.309  17.530  0.00  0.00    +0.000 A 
ATOM      3  C   UNL     1       2.442   7.747  18.515  0.00  0.00    +0.000 A 
ATOM      4  C   UNL     1       2.365   7.056  19.713  0.00  0.00    +0.000 A 
ATOM      5 CL   UNL     1       1.257   7.572  20.927  0.00  0.00    +0.000 Cl
ATOM      6  C   UNL     1       3.170   5.945  19.942  0.00  0.00    +0.000 A 
ATOM      7  C   UNL     1       4.079   5.490  18.955  0.00  0.00    +0.000 A 
ENDROOT
BRANCH   1   8
ATOM      8  O   UNL     1       5.011   5.703  16.768  0.00  0.00    +0.000 OA
BRANCH   8  10
ATOM      9  C   UNL     1       7.238   6.519  17.258  0.00  0.00    +0.000 C 
ATOM     10  C   UNL     1       6.026   6.625  16.352  0.00  0.00    +0.000 C 
ENDBRANCH   8  10
ENDBRANCH   1   8
BRANCH   7  11
ATOM     11  C   UNL     1       4.912   4.267  19.282  0.00  0.00    +0.000 C 
BRANCH  11  12
ATOM     12  N   UNL     1       4.580   3.066  18.522  0.00  0.00    +0.000 NA
ATOM     13  H   UNL     1       5.445   2.688  18.133  0.00  0.00    +0.000 HD
BRANCH  12  14
ATOM     14  C   UNL     1       3.914   2.031  19.330  0.00  0.00    +0.000 C 
BRANCH  14  15
ATOM     15  C   UNL     1       2.384   2.104  19.120  0.00  0.00    +0.000 C 
BRANCH  15  16
ATOM     16  N   UNL     1       1.597   2.375  20.339  0.00  0.00    +0.000 NA
ATOM     17  C   UNL     1       2.453   2.646  21.496  0.00  0.00    +0.000 C 
ATOM     18  C   UNL     1       0.715   3.523  20.103  0.00  0.00    +0.000 C 
ENDBRANCH  15  16
ENDBRANCH  14  15
ENDBRANCH  12  14
ENDBRANCH  11  12
ENDBRANCH   7  11
TORSDOF 7
ENDMDL
MODEL 7
REMARK VINA RESULT:      -5.3      0.900      1.430
REMARK  Name = 
REMARK  10 active torsions:
REMARK  status: ('A' for Active; 'I' for Inactive)
REMARK    1  A    between atoms: C_1  and  C_2
REMARK    2  A    between atoms: C_2  and  O_3
REMARK    3  A    between atoms: O_3  and  C_4
REMARK    4  A    between atoms: C_10  and  C_11
REMARK    5  A    between atoms: C_11  and  N_12
REMARK    6  A    between atoms: N_12  and  C_13
REMARK    7  A    between atoms: C_13  and  C_14
REMARK    8  A    between atoms: C_14  and  N_15
REMARK    9  A    between atoms: N_15  and  C_16
REMARK   10  A    between atoms: N_15  and  C_17
REMARK                            x       y       z     vdW  Elec       q    Type
REMARK                         _______ _______ _______ _____ _____    ______ ____
ROOT
ATOM      1  C   UNL     1       2.939   4.927  19.506  0.00  0.00    +0.000 A 
ATOM      2  C   UNL     1       2.239   5.890  20.250  0.00  0.00    +0.000 A 
ATOM      3  C   UNL     1       2.020   7.178  19.750  0.00  0.00    +0.000 A 
ATOM      4  C   UNL     1       2.495   7.503  18.490  0.00  0.00    +0.000 A 
ATOM      5 CL   UNL     1       2.250   9.092  17.870  0.00  0.00    +0.000 Cl
ATOM      6  C   UNL     1       3.174   6.561  17.724  0.00  0.00    +0.000 A 
ATOM      7  C   UNL     1       3.403   5.253  18.216  0.00  0.00    +0.000 A 
ENDROOT
BRANCH   1   8
ATOM      8  O   UNL     1       3.197   3.658  19.980  0.00  0.00    +0.000 OA
BRANCH   8  10
ATOM      9  C   UNL     1       1.667   2.592  21.526  0.00  0.00    +0.000 C 
ATOM     10  C   UNL     1       2.056   2.797  20.074  0.00  0.00    +0.000 C 
ENDBRANCH   8  10
ENDBRANCH   1   8
BRANCH   7  11
ATOM     11  C   UNL     1       4.159   4.291  17.322  0.00  0.00    +0.000 C 
BRANCH  11  12
ATOM     12  N   UNL     1       5.488   3.917  17.792  0.00  0.00    +0.000 NA
ATOM     13  H   UNL     1       5.515   2.901  17.890  0.00  0.00    +0.000 HD
BRANCH  12  14
ATOM     14  C   UNL     1       6.568   4.351  16.891  0.00  0.00    +0.000 C 
BRANCH  14  15
ATOM     15  C   UNL     1       6.624   5.895  16.844  0.00  0.00    +0.000 C 
BRANCH  15  16
ATOM     16  N   UNL     1       7.766   6.503  17.556  0.00  0.00    +0.000 NA
ATOM     17  C   UNL     1       7.695   7.965  17.561  0.00  0.00    +0.000 C 
ATOM     18  C   UNL     1       7.796   6.009  18.937  0.00  0.00    +0.000 C 
ENDBRANCH  15  16
ENDBRANCH  14  15
ENDBRANCH  12  14
ENDBRANCH  11  12
ENDBRANCH   7  11
TORSDOF 7
ENDMDL
MODEL 8
REMARK VINA RESULT:      -5.2      3.111      5.959
REMARK  Name = 
REMARK  10 active torsions:
REMARK  status: ('A' for Active; 'I' for Inactive)
REMARK    1  A    between atoms: C_1  and  C_2
REMARK    2  A    between atoms: C_2  and  O_3
REMARK    3  A    between atoms: O_3  and  C_4
REMARK    4  A    between atoms: C_10  and  C_11
REMARK    5  A    between atoms: C_11  and  N_12
REMARK    6  A    between atoms: N_12  and  C_13
REMARK    7  A    between atoms: C_13  and  C_14
REMARK    8  A    between atoms: C_14  and  N_15
REMARK    9  A    between atoms: N_15  and  C_16
REMARK   10  A    between atoms: N_15  and  C_17
REMARK                            x       y       z     vdW  Elec       q    Type
REMARK                         _______ _______ _______ _____ _____    ______ ____
ROOT
ATOM      1  C   UNL     1       6.154   4.264  17.412  0.00  0.00    +0.000 A 
ATOM      2  C   UNL     1       7.166   4.673  16.529  0.00  0.00    +0.000 A 
ATOM      3  C   UNL     1       7.010   4.563  15.143  0.00  0.00    +0.000 A 
ATOM      4  C   UNL     1       5.828   4.051  14.635  0.00  0.00    +0.000 A 
ATOM      5 CL   UNL     1       5.629   3.892  12.930  0.00  0.00    +0.000 Cl
ATOM      6  C   UNL     1       4.802   3.658  15.488  0.00  0.00    +0.000 A 
ATOM      7  C   UNL     1       4.944   3.764  16.893  0.00  0.00    +0.000 A 
ENDROOT
BRANCH   1   8
ATOM      8  O   UNL     1       6.287   4.332  18.783  0.00  0.00    +0.000 OA
BRANCH   8  10
ATOM      9  C   UNL     1       8.047   5.732  19.683  0.00  0.00    +0.000 C 
ATOM     10  C   UNL     1       6.581   5.633  19.305  0.00  0.00    +0.000 C 
ENDBRANCH   8  10
ENDBRANCH   1   8
BRANCH   7  11
ATOM     11  C   UNL     1       3.782   3.305  17.751  0.00  0.00    +0.000 C 
BRANCH  11  12
ATOM     12  N   UNL     1       2.469   3.402  17.123  0.00  0.00    +0.000 NA
ATOM     13  H   UNL     1       2.178   2.462  16.851  0.00  0.00    +0.000 HD
BRANCH  12  14
ATOM     14  C   UNL     1       1.446   3.994  18.000  0.00  0.00    +0.000 C 
BRANCH  14  15
ATOM     15  C   UNL     1       1.084   3.002  19.129  0.00  0.00    +0.000 C 
BRANCH  15  16
ATOM     16  N   UNL     1       0.968   3.599  20.475  0.00  0.00    +0.000 NA
ATOM     17  C   UNL     1       1.533   2.732  21.510  0.00  0.00    +0.000 C 
ATOM     18  C   UNL     1       1.657   4.894  20.492  0.00  0.00    +0.000 C 
ENDBRANCH  15  16
ENDBRANCH  14  15
ENDBRANCH  12  14
ENDBRANCH  11  12
ENDBRANCH   7  11
TORSDOF 7
ENDMDL
MODEL 9
REMARK VINA RESULT:      -5.2      1.064      1.426
REMARK  Name = 
REMARK  10 active torsions:
REMARK  status: ('A' for Active; 'I' for Inactive)
REMARK    1  A    between atoms: C_1  and  C_2
REMARK    2  A    between atoms: C_2  and  O_3
REMARK    3  A    between atoms: O_3  and  C_4
REMARK    4  A    between atoms: C_10  and  C_11
REMARK    5  A    between atoms: C_11  and  N_12
REMARK    6  A    between atoms: N_12  and  C_13
REMARK    7  A    between atoms: C_13  and  C_14
REMARK    8  A    between atoms: C_14  and  N_15
REMARK    9  A    between atoms: N_15  and  C_16
REMARK   10  A    between atoms: N_15  and  C_17
REMARK                            x       y       z     vdW  Elec       q    Type
REMARK                         _______ _______ _______ _____ _____    ______ ____
ROOT
ATOM      1  C   UNL     1       2.878   4.561  19.510  0.00  0.00    +0.000 A 
ATOM      2  C   UNL     1       2.215   5.553  20.249  0.00  0.00    +0.000 A 
ATOM      3  C   UNL     1       2.090   6.859  19.766  0.00  0.00    +0.000 A 
ATOM      4  C   UNL     1       2.624   7.175  18.527  0.00  0.00    +0.000 A 
ATOM      5 CL   UNL     1       2.496   8.785  17.927  0.00  0.00    +0.000 Cl
ATOM      6  C   UNL     1       3.268   6.205  17.766  0.00  0.00    +0.000 A 
ATOM      7  C   UNL     1       3.402   4.877  18.241  0.00  0.00    +0.000 A 
ENDROOT
BRANCH   1   8
ATOM      8  O   UNL     1       3.044   3.271  19.970  0.00  0.00    +0.000 OA
BRANCH   8  10
ATOM      9  C   UNL     1       1.063   2.278  18.990  0.00  0.00    +0.000 C 
ATOM     10  C   UNL     1       1.831   2.568  20.266  0.00  0.00    +0.000 C 
ENDBRANCH   8  10
ENDBRANCH   1   8
BRANCH   7  11
ATOM     11  C   UNL     1       4.126   3.886  17.353  0.00  0.00    +0.000 C 
BRANCH  11  12
ATOM     12  N   UNL     1       4.889   4.473  16.257  0.00  0.00    +0.000 NA
ATOM     13  H   UNL     1       4.673   5.470  16.220  0.00  0.00    +0.000 HD
BRANCH  12  14
ATOM     14  C   UNL     1       6.343   4.294  16.398  0.00  0.00    +0.000 C 
BRANCH  14  15
ATOM     15  C   UNL     1       7.042   5.673  16.429  0.00  0.00    +0.000 C 
BRANCH  15  16
ATOM     16  N   UNL     1       6.877   6.430  17.686  0.00  0.00    +0.000 NA
ATOM     17  C   UNL     1       7.321   5.664  18.851  0.00  0.00    +0.000 C 
ATOM     18  C   UNL     1       7.638   7.681  17.603  0.00  0.00    +0.000 C 
ENDBRANCH  15  16
ENDBRANCH  14  15
ENDBRANCH  12  14
ENDBRANCH  11  12
ENDBRANCH   7  11
TORSDOF 7
ENDMDL
