MODEL 1
REMARK VINA RESULT:      -7.2      0.000      0.000
REMARK  Name = 
REMARK  3 active torsions:
REMARK  status: ('A' for Active; 'I' for Inactive)
REMARK    1  A    between atoms: C_4  and  O_5
REMARK    2  A    between atoms: O_5  and  C_6
REMARK    3  A    between atoms: C_6  and  C_7
REMARK                            x       y       z     vdW  Elec       q    Type
REMARK                         _______ _______ _______ _____ _____    ______ ____
ROOT
ATOM      1  N   UNL     1       7.956   5.630  19.859  0.00  0.00    +0.000 N 
ATOM      2  C   UNL     1       7.139   5.265  18.831  0.00  0.00    +0.000 C 
ATOM      3  N   UNL     1       6.022   4.672  19.093  0.00  0.00    +0.000 NA
ATOM      4  C   UNL     1       5.124   4.329  17.963  0.00  0.00    +0.000 C 
ATOM      5  C   UNL     1       5.847   4.489  16.680  0.00  0.00    +0.000 A 
ATOM      6  N   UNL     1       5.550   4.065  15.414  0.00  0.00    +0.000 N 
ATOM      7  C   UNL     1       6.484   4.626  14.582  0.00  0.00    +0.000 A 
ATOM      8  N   UNL     1       7.433   5.245  15.257  0.00  0.00    +0.000 NA
ATOM      9  C   UNL     1       7.034   5.136  16.550  0.00  0.00    +0.000 A 
ATOM     10  N   UNL     1       7.683   5.585  17.618  0.00  0.00    +0.000 N 
ATOM     11  H   UNL     1       7.626   5.239  20.737  0.00  0.00    +0.000 HD
ATOM     12  H   UNL     1       8.938   5.432  19.709  0.00  0.00    +0.000 HD
ATOM     13  H   UNL     1       4.749   3.522  15.118  0.00  0.00    +0.000 HD
ATOM     14  H   UNL     1       8.511   6.152  17.546  0.00  0.00    +0.000 HD
ENDROOT
BRANCH   4  15
ATOM     15  O   UNL     1       3.947   5.147  17.927  0.00  0.00    +0.000 OA
BRANCH  15  16
ATOM     16  C   UNL     1       2.723   4.426  17.916  0.00  0.00    +0.000 C 
BRANCH  16  17
ATOM     17  C   UNL     1       2.422   3.933  19.285  0.00  0.00    +0.000 A 
ATOM     18  C   UNL     1       2.461   4.561  20.513  0.00  0.00    +0.000 A 
ATOM     19  N   UNL     1       2.038   3.801  21.591  0.00  0.00    +0.000 NA
ATOM     20  C   UNL     1       1.674   2.611  21.168  0.00  0.00    +0.000 A 
ATOM     21  S   UNL     1       1.855   2.318  19.491  0.00  0.00    +0.000 S 
ENDBRANCH  16  17
ENDBRANCH  15  16
ENDBRANCH   4  15
TORSDOF 3
ENDMDL
MODEL 2
REMARK VINA RESULT:      -7.2      0.923      1.005
REMARK  Name = 
REMARK  3 active torsions:
REMARK  status: ('A' for Active; 'I' for Inactive)
REMARK    1  A    between atoms: C_4  and  O_5
REMARK    2  A    between atoms: O_5  and  C_6
REMARK    3  A    between atoms: C_6  and  C_7
REMARK                            x       y       z     vdW  Elec       q    Type
REMARK                         _______ _______ _______ _____ _____    ______ ____
ROOT
ATOM      1  N   UNL     1       8.075   5.568  19.876  0.00  0.00    +0.000 N 
ATOM      2  C   UNL     1       7.210   5.253  18.872  0.00  0.00    +0.000 C 
ATOM      3  N   UNL     1       6.065   4.731  19.166  0.00  0.00    +0.000 NA
ATOM      4  C   UNL     1       5.117   4.443  18.061  0.00  0.00    +0.000 C 
ATOM      5  C   UNL     1       5.814   4.556  16.758  0.00  0.00    +0.000 A 
ATOM      6  N   UNL     1       5.457   4.149  15.503  0.00  0.00    +0.000 N 
ATOM      7  C   UNL     1       6.401   4.649  14.644  0.00  0.00    +0.000 A 
ATOM      8  N   UNL     1       7.405   5.209  15.291  0.00  0.00    +0.000 NA
ATOM      9  C   UNL     1       7.035   5.127  16.594  0.00  0.00    +0.000 A 
ATOM     10  N   UNL     1       7.739   5.536  17.644  0.00  0.00    +0.000 N 
ATOM     11  H   UNL     1       7.745   5.200  20.764  0.00  0.00    +0.000 HD
ATOM     12  H   UNL     1       9.038   5.308  19.701  0.00  0.00    +0.000 HD
ATOM     13  H   UNL     1       4.616   3.656  15.229  0.00  0.00    +0.000 HD
ATOM     14  H   UNL     1       8.599   6.050  17.547  0.00  0.00    +0.000 HD
ENDROOT
BRANCH   4  15
ATOM     15  O   UNL     1       3.993   5.333  18.054  0.00  0.00    +0.000 OA
BRANCH  15  16
ATOM     16  C   UNL     1       2.740   4.704  17.830  0.00  0.00    +0.000 C 
BRANCH  16  17
ATOM     17  C   UNL     1       2.300   4.011  19.069  0.00  0.00    +0.000 A 
ATOM     18  C   UNL     1       2.028   2.682  19.325  0.00  0.00    +0.000 A 
ATOM     19  N   UNL     1       1.705   2.377  20.638  0.00  0.00    +0.000 NA
ATOM     20  C   UNL     1       1.746   3.474  21.361  0.00  0.00    +0.000 A 
ATOM     21  S   UNL     1       2.120   4.919  20.523  0.00  0.00    +0.000 S 
ENDBRANCH  16  17
ENDBRANCH  15  16
ENDBRANCH   4  15
TORSDOF 3
ENDMDL
MODEL 3
REMARK VINA RESULT:      -7.1      1.354      1.499
REMARK  Name = 
REMARK  3 active torsions:
REMARK  status: ('A' for Active; 'I' for Inactive)
REMARK    1  A    between atoms: C_4  and  O_5
REMARK    2  A    between atoms: O_5  and  C_6
REMARK    3  A    between atoms: C_6  and  C_7
REMARK                            x       y       z     vdW  Elec       q    Type
REMARK                         _______ _______ _______ _____ _____    ______ ____
ROOT
ATOM      1  N   UNL     1       8.280   5.589  20.140  0.00  0.00    +0.000 N 
ATOM      2  C   UNL     1       7.331   5.311  19.202  0.00  0.00    +0.000 C 
ATOM      3  N   UNL     1       6.108   5.130  19.577  0.00  0.00    +0.000 NA
ATOM      4  C   UNL     1       5.081   4.879  18.536  0.00  0.00    +0.000 C 
ATOM      5  C   UNL     1       5.739   4.595  17.239  0.00  0.00    +0.000 A 
ATOM      6  N   UNL     1       5.254   4.067  16.075  0.00  0.00    +0.000 N 
ATOM      7  C   UNL     1       6.257   4.175  15.146  0.00  0.00    +0.000 A 
ATOM      8  N   UNL     1       7.384   4.591  15.689  0.00  0.00    +0.000 NA
ATOM      9  C   UNL     1       7.052   4.829  16.984  0.00  0.00    +0.000 A 
ATOM     10  N   UNL     1       7.867   5.242  17.947  0.00  0.00    +0.000 N 
ATOM     11  H   UNL     1       7.906   5.471  21.076  0.00  0.00    +0.000 HD
ATOM     12  H   UNL     1       9.151   5.086  20.020  0.00  0.00    +0.000 HD
ATOM     13  H   UNL     1       4.314   3.742  15.889  0.00  0.00    +0.000 HD
ATOM     14  H   UNL     1       8.818   5.517  17.766  0.00  0.00    +0.000 HD
ENDROOT
BRANCH   4  15
ATOM     15  O   UNL     1       4.191   5.990  18.361  0.00  0.00    +0.000 OA
BRANCH  15  16
ATOM     16  C   UNL     1       3.094   6.019  19.261  0.00  0.00    +0.000 C 
BRANCH  16  17
ATOM     17  C   UNL     1       2.248   4.814  19.059  0.00  0.00    +0.000 A 
ATOM     18  C   UNL     1       1.678   4.278  17.923  0.00  0.00    +0.000 A 
ATOM     19  N   UNL     1       0.999   3.083  18.098  0.00  0.00    +0.000 NA
ATOM     20  C   UNL     1       1.071   2.723  19.360  0.00  0.00    +0.000 A 
ATOM     21  S   UNL     1       1.900   3.795  20.405  0.00  0.00    +0.000 S 
ENDBRANCH  16  17
ENDBRANCH  15  16
ENDBRANCH   4  15
TORSDOF 3
ENDMDL
MODEL 4
REMARK VINA RESULT:      -7.0      1.617      1.898
REMARK  Name = 
REMARK  3 active torsions:
REMARK  status: ('A' for Active; 'I' for Inactive)
REMARK    1  A    between atoms: C_4  and  O_5
REMARK    2  A    between atoms: O_5  and  C_6
REMARK    3  A    between atoms: C_6  and  C_7
REMARK                            x       y       z     vdW  Elec       q    Type
REMARK                         _______ _______ _______ _____ _____    ______ ____
ROOT
ATOM      1  N   UNL     1       8.416   7.750  18.645  0.00  0.00    +0.000 N 
ATOM      2  C   UNL     1       7.712   6.672  18.202  0.00  0.00    +0.000 C 
ATOM      3  N   UNL     1       7.355   5.762  19.045  0.00  0.00    +0.000 NA
ATOM      4  C   UNL     1       6.544   4.622  18.551  0.00  0.00    +0.000 C 
ATOM      5  C   UNL     1       6.544   4.609  17.069  0.00  0.00    +0.000 A 
ATOM      6  N   UNL     1       6.171   3.647  16.172  0.00  0.00    +0.000 N 
ATOM      7  C   UNL     1       6.228   4.225  14.930  0.00  0.00    +0.000 A 
ATOM      8  N   UNL     1       6.757   5.432  14.974  0.00  0.00    +0.000 NA
ATOM      9  C   UNL     1       6.963   5.647  16.299  0.00  0.00    +0.000 A 
ATOM     10  N   UNL     1       7.508   6.724  16.851  0.00  0.00    +0.000 N 
ATOM     11  H   UNL     1       8.706   7.619  19.610  0.00  0.00    +0.000 HD
ATOM     12  H   UNL     1       9.196   8.017  18.056  0.00  0.00    +0.000 HD
ATOM     13  H   UNL     1       5.828   2.716  16.372  0.00  0.00    +0.000 HD
ATOM     14  H   UNL     1       7.736   7.546  16.316  0.00  0.00    +0.000 HD
ENDROOT
BRANCH   4  15
ATOM     15  O   UNL     1       5.185   4.674  19.005  0.00  0.00    +0.000 OA
BRANCH  15  16
ATOM     16  C   UNL     1       4.625   3.416  19.351  0.00  0.00    +0.000 C 
BRANCH  16  17
ATOM     17  C   UNL     1       3.207   3.360  18.910  0.00  0.00    +0.000 A 
ATOM     18  C   UNL     1       2.585   3.828  17.771  0.00  0.00    +0.000 A 
ATOM     19  N   UNL     1       1.237   3.531  17.657  0.00  0.00    +0.000 NA
ATOM     20  C   UNL     1       0.856   2.833  18.703  0.00  0.00    +0.000 A 
ATOM     21  S   UNL     1       2.053   2.535  19.890  0.00  0.00    +0.000 S 
ENDBRANCH  16  17
ENDBRANCH  15  16
ENDBRANCH   4  15
TORSDOF 3
ENDMDL
MODEL 5
REMARK VINA RESULT:      -6.9      1.277      1.422
REMARK  Name = 
REMARK  3 active torsions:
REMARK  status: ('A' for Active; 'I' for Inactive)
REMARK    1  A    between atoms: C_4  and  O_5
REMARK    2  A    between atoms: O_5  and  C_6
REMARK    3  A    between atoms: C_6  and  C_7
REMARK                            x       y       z     vdW  Elec       q    Type
REMARK                         _______ _______ _______ _____ _____    ______ ____
ROOT
ATOM      1  N   UNL     1       8.279   7.740  18.404  0.00  0.00    +0.000 N 
ATOM      2  C   UNL     1       7.598   6.642  17.973  0.00  0.00    +0.000 C 
ATOM      3  N   UNL     1       7.243   5.744  18.830  0.00  0.00    +0.000 NA
ATOM      4  C   UNL     1       6.457   4.581  18.348  0.00  0.00    +0.000 C 
ATOM      5  C   UNL     1       6.479   4.538  16.867  0.00  0.00    +0.000 A 
ATOM      6  N   UNL     1       6.134   3.552  15.985  0.00  0.00    +0.000 N 
ATOM      7  C   UNL     1       6.199   4.105  14.732  0.00  0.00    +0.000 A 
ATOM      8  N   UNL     1       6.708   5.321  14.759  0.00  0.00    +0.000 NA
ATOM      9  C   UNL     1       6.892   5.566  16.082  0.00  0.00    +0.000 A 
ATOM     10  N   UNL     1       7.412   6.663  16.618  0.00  0.00    +0.000 N 
ATOM     11  H   UNL     1       8.557   7.633  19.375  0.00  0.00    +0.000 HD
ATOM     12  H   UNL     1       9.062   8.008  17.819  0.00  0.00    +0.000 HD
ATOM     13  H   UNL     1       5.802   2.620  16.200  0.00  0.00    +0.000 HD
ATOM     14  H   UNL     1       7.635   7.477  16.070  0.00  0.00    +0.000 HD
ENDROOT
BRANCH   4  15
ATOM     15  O   UNL     1       5.091   4.620  18.782  0.00  0.00    +0.000 OA
BRANCH  15  16
ATOM     16  C   UNL     1       4.620   3.418  19.371  0.00  0.00    +0.000 C 
BRANCH  16  17
ATOM     17  C   UNL     1       3.195   3.577  19.764  0.00  0.00    +0.000 A 
ATOM     18  C   UNL     1       2.551   4.560  20.486  0.00  0.00    +0.000 A 
ATOM     19  N   UNL     1       1.177   4.420  20.600  0.00  0.00    +0.000 NA
ATOM     20  C   UNL     1       0.796   3.340  19.955  0.00  0.00    +0.000 A 
ATOM     21  S   UNL     1       2.039   2.417  19.225  0.00  0.00    +0.000 S 
ENDBRANCH  16  17
ENDBRANCH  15  16
ENDBRANCH   4  15
TORSDOF 3
ENDMDL
MODEL 6
REMARK VINA RESULT:      -6.9      1.525      1.712
REMARK  Name = 
REMARK  3 active torsions:
REMARK  status: ('A' for Active; 'I' for Inactive)
REMARK    1  A    between atoms: C_4  and  O_5
REMARK    2  A    between atoms: O_5  and  C_6
REMARK    3  A    between atoms: C_6  and  C_7
REMARK                            x       y       z     vdW  Elec       q    Type
REMARK                         _______ _______ _______ _____ _____    ______ ____
ROOT
ATOM      1  N   UNL     1       8.104   7.609  18.283  0.00  0.00    +0.000 N 
ATOM      2  C   UNL     1       7.465   6.500  17.817  0.00  0.00    +0.000 C 
ATOM      3  N   UNL     1       7.094   5.588  18.653  0.00  0.00    +0.000 NA
ATOM      4  C   UNL     1       6.353   4.413  18.132  0.00  0.00    +0.000 C 
ATOM      5  C   UNL     1       6.437   4.381  16.653  0.00  0.00    +0.000 A 
ATOM      6  N   UNL     1       6.150   3.394  15.751  0.00  0.00    +0.000 N 
ATOM      7  C   UNL     1       6.255   3.957  14.505  0.00  0.00    +0.000 A 
ATOM      8  N   UNL     1       6.737   5.183  14.561  0.00  0.00    +0.000 NA
ATOM      9  C   UNL     1       6.861   5.423  15.892  0.00  0.00    +0.000 A 
ATOM     10  N   UNL     1       7.336   6.527  16.456  0.00  0.00    +0.000 N 
ATOM     11  H   UNL     1       8.344   7.501  19.264  0.00  0.00    +0.000 HD
ATOM     12  H   UNL     1       8.905   7.897  17.733  0.00  0.00    +0.000 HD
ATOM     13  H   UNL     1       5.830   2.454  15.946  0.00  0.00    +0.000 HD
ATOM     14  H   UNL     1       7.563   7.349  15.923  0.00  0.00    +0.000 HD
ENDROOT
BRANCH   4  15
ATOM     15  O   UNL     1       4.970   4.421  18.509  0.00  0.00    +0.000 OA
BRANCH  15  16
ATOM     16  C   UNL     1       4.542   3.270  19.222  0.00  0.00    +0.000 C 
BRANCH  16  17
ATOM     17  C   UNL     1       3.085   3.367  19.499  0.00  0.00    +0.000 A 
ATOM     18  C   UNL     1       2.046   2.495  19.243  0.00  0.00    +0.000 A 
ATOM     19  N   UNL     1       0.803   2.887  19.711  0.00  0.00    +0.000 NA
ATOM     20  C   UNL     1       0.915   4.044  20.325  0.00  0.00    +0.000 A 
ATOM     21  S   UNL     1       2.477   4.744  20.339  0.00  0.00    +0.000 S 
ENDBRANCH  16  17
ENDBRANCH  15  16
ENDBRANCH   4  15
TORSDOF 3
ENDMDL
MODEL 7
REMARK VINA RESULT:      -6.8      1.315      2.890
REMARK  Name = 
REMARK  3 active torsions:
REMARK  status: ('A' for Active; 'I' for Inactive)
REMARK    1  A    between atoms: C_4  and  O_5
REMARK    2  A    between atoms: O_5  and  C_6
REMARK    3  A    between atoms: C_6  and  C_7
REMARK                            x       y       z     vdW  Elec       q    Type
REMARK                         _______ _______ _______ _____ _____    ______ ____
ROOT
ATOM      1  N   UNL     1       6.600   3.913  14.153  0.00  0.00    +0.000 N 
ATOM      2  C   UNL     1       6.217   4.072  15.450  0.00  0.00    +0.000 C 
ATOM      3  N   UNL     1       4.975   3.910  15.765  0.00  0.00    +0.000 NA
ATOM      4  C   UNL     1       4.587   4.036  17.192  0.00  0.00    +0.000 C 
ATOM      5  C   UNL     1       5.704   4.627  17.966  0.00  0.00    +0.000 A 
ATOM      6  N   UNL     1       5.750   5.164  19.223  0.00  0.00    +0.000 N 
ATOM      7  C   UNL     1       7.070   5.413  19.496  0.00  0.00    +0.000 A 
ATOM      8  N   UNL     1       7.835   5.212  18.441  0.00  0.00    +0.000 NA
ATOM      9  C   UNL     1       6.975   4.744  17.501  0.00  0.00    +0.000 A 
ATOM     10  N   UNL     1       7.271   4.421  16.248  0.00  0.00    +0.000 N 
ATOM     11  H   UNL     1       5.790   3.823  13.546  0.00  0.00    +0.000 HD
ATOM     12  H   UNL     1       7.242   4.619  13.812  0.00  0.00    +0.000 HD
ATOM     13  H   UNL     1       4.983   5.277  19.874  0.00  0.00    +0.000 HD
ATOM     14  H   UNL     1       8.217   4.404  15.906  0.00  0.00    +0.000 HD
ENDROOT
BRANCH   4  15
ATOM     15  O   UNL     1       4.240   2.777  17.783  0.00  0.00    +0.000 OA
BRANCH  15  16
ATOM     16  C   UNL     1       2.850   2.584  17.995  0.00  0.00    +0.000 C 
BRANCH  16  17
ATOM     17  C   UNL     1       2.552   2.649  19.450  0.00  0.00    +0.000 A 
ATOM     18  C   UNL     1       3.354   2.456  20.557  0.00  0.00    +0.000 A 
ATOM     19  N   UNL     1       2.747   2.671  21.783  0.00  0.00    +0.000 NA
ATOM     20  C   UNL     1       1.498   3.034  21.592  0.00  0.00    +0.000 A 
ATOM     21  S   UNL     1       0.969   3.094  19.966  0.00  0.00    +0.000 S 
ENDBRANCH  16  17
ENDBRANCH  15  16
ENDBRANCH   4  15
TORSDOF 3
ENDMDL
MODEL 8
REMARK VINA RESULT:      -6.8      1.178      1.207
REMARK  Name = 
REMARK  3 active torsions:
REMARK  status: ('A' for Active; 'I' for Inactive)
REMARK    1  A    between atoms: C_4  and  O_5
REMARK    2  A    between atoms: O_5  and  C_6
REMARK    3  A    between atoms: C_6  and  C_7
REMARK                            x       y       z     vdW  Elec       q    Type
REMARK                         _______ _______ _______ _____ _____    ______ ____
ROOT
ATOM      1  N   UNL     1       7.896   6.843  18.499  0.00  0.00    +0.000 N 
ATOM      2  C   UNL     1       7.204   5.944  17.745  0.00  0.00    +0.000 C 
ATOM      3  N   UNL     1       6.491   5.043  18.334  0.00  0.00    +0.000 NA
ATOM      4  C   UNL     1       5.705   4.105  17.494  0.00  0.00    +0.000 C 
ATOM      5  C   UNL     1       6.135   4.216  16.080  0.00  0.00    +0.000 A 
ATOM      6  N   UNL     1       5.906   3.411  14.999  0.00  0.00    +0.000 N 
ATOM      7  C   UNL     1       6.403   4.070  13.905  0.00  0.00    +0.000 A 
ATOM      8  N   UNL     1       7.062   5.159  14.248  0.00  0.00    +0.000 NA
ATOM      9  C   UNL     1       6.902   5.225  15.594  0.00  0.00    +0.000 A 
ATOM     10  N   UNL     1       7.412   6.142  16.408  0.00  0.00    +0.000 N 
ATOM     11  H   UNL     1       7.871   6.584  19.481  0.00  0.00    +0.000 HD
ATOM     12  H   UNL     1       8.843   7.019  18.184  0.00  0.00    +0.000 HD
ATOM     13  H   UNL     1       5.390   2.540  14.977  0.00  0.00    +0.000 HD
ATOM     14  H   UNL     1       7.900   6.953  16.066  0.00  0.00    +0.000 HD
ENDROOT
BRANCH   4  15
ATOM     15  O   UNL     1       4.295   4.354  17.562  0.00  0.00    +0.000 OA
BRANCH  15  16
ATOM     16  C   UNL     1       3.488   3.188  17.614  0.00  0.00    +0.000 C 
BRANCH  16  17
ATOM     17  C   UNL     1       2.932   3.024  18.983  0.00  0.00    +0.000 A 
ATOM     18  C   UNL     1       3.537   2.718  20.184  0.00  0.00    +0.000 A 
ATOM     19  N   UNL     1       2.706   2.719  21.293  0.00  0.00    +0.000 NA
ATOM     20  C   UNL     1       1.485   3.035  20.921  0.00  0.00    +0.000 A 
ATOM     21  S   UNL     1       1.251   3.301  19.247  0.00  0.00    +0.000 S 
ENDBRANCH  16  17
ENDBRANCH  15  16
ENDBRANCH   4  15
TORSDOF 3
ENDMDL
MODEL 9
REMARK VINA RESULT:      -6.7      2.163      5.752
REMARK  Name = 
REMARK  3 active torsions:
REMARK  status: ('A' for Active; 'I' for Inactive)
REMARK    1  A    between atoms: C_4  and  O_5
REMARK    2  A    between atoms: O_5  and  C_6
REMARK    3  A    between atoms: C_6  and  C_7
REMARK                            x       y       z     vdW  Elec       q    Type
REMARK                         _______ _______ _______ _____ _____    ______ ____
ROOT
ATOM      1  N   UNL     1       2.402   7.506  19.506  0.00  0.00    +0.000 N 
ATOM      2  C   UNL     1       2.355   6.144  19.474  0.00  0.00    +0.000 C 
ATOM      3  N   UNL     1       2.236   5.544  18.337  0.00  0.00    +0.000 NA
ATOM      4  C   UNL     1       2.238   4.060  18.319  0.00  0.00    +0.000 C 
ATOM      5  C   UNL     1       2.086   3.541  19.699  0.00  0.00    +0.000 A 
ATOM      6  N   UNL     1       1.783   2.293  20.168  0.00  0.00    +0.000 N 
ATOM      7  C   UNL     1       1.931   2.338  21.530  0.00  0.00    +0.000 A 
ATOM      8  N   UNL     1       2.156   3.564  21.958  0.00  0.00    +0.000 NA
ATOM      9  C   UNL     1       2.231   4.297  20.818  0.00  0.00    +0.000 A 
ATOM     10  N   UNL     1       2.421   5.608  20.730  0.00  0.00    +0.000 N 
ATOM     11  H   UNL     1       2.183   7.895  18.594  0.00  0.00    +0.000 HD
ATOM     12  H   UNL     1       1.843   7.931  20.236  0.00  0.00    +0.000 HD
ATOM     13  H   UNL     1       1.578   1.463  19.626  0.00  0.00    +0.000 HD
ATOM     14  H   UNL     1       2.629   6.176  21.534  0.00  0.00    +0.000 HD
ENDROOT
BRANCH   4  15
ATOM     15  O   UNL     1       3.440   3.517  17.758  0.00  0.00    +0.000 OA
BRANCH  15  16
ATOM     16  C   UNL     1       4.072   4.345  16.793  0.00  0.00    +0.000 C 
BRANCH  16  17
ATOM     17  C   UNL     1       5.518   4.473  17.113  0.00  0.00    +0.000 A 
ATOM     18  C   UNL     1       6.645   4.266  16.345  0.00  0.00    +0.000 A 
ATOM     19  N   UNL     1       7.852   4.555  16.960  0.00  0.00    +0.000 NA
ATOM     20  C   UNL     1       7.626   4.987  18.181  0.00  0.00    +0.000 A 
ATOM     21  S   UNL     1       5.988   5.028  18.675  0.00  0.00    +0.000 S 
ENDBRANCH  16  17
ENDBRANCH  15  16
ENDBRANCH   4  15
TORSDOF 3
ENDMDL
