MODEL 1
REMARK VINA RESULT:      -7.5      0.000      0.000
REMARK  Name = 
REMARK  6 active torsions:
REMARK  status: ('A' for Active; 'I' for Inactive)
REMARK    1  A    between atoms: N_1  and  C_2
REMARK    2  A    between atoms: C_5  and  N_6
REMARK    3  A    between atoms: C_12  and  O_13
REMARK    4  A    between atoms: O_13  and  C_14
REMARK    5  A    between atoms: C_14  and  C_15
REMARK    6  A    between atoms: C_15  and  C_16
REMARK                            x       y       z     vdW  Elec       q    Type
REMARK                         _______ _______ _______ _____ _____    ______ ____
ROOT
ATOM      1  N   UNL     1       4.164   3.860  18.370  0.00  0.00    +0.000 N 
ATOM      2  C   UNL     1       5.439   4.367  18.476  0.00  0.00    +0.000 C 
ATOM      3  O   UNL     1       6.133   4.647  19.439  0.00  0.00    +0.000 OA
ATOM      4  C   UNL     1       5.949   4.521  17.119  0.00  0.00    +0.000 A 
ATOM      5  C   UNL     1       7.190   4.937  16.675  0.00  0.00    +0.000 A 
ATOM      6  C   UNL     1       7.395   4.982  15.292  0.00  0.00    +0.000 A 
ATOM      7  C   UNL     1       6.369   4.620  14.394  0.00  0.00    +0.000 A 
ATOM      8  C   UNL     1       5.120   4.214  14.875  0.00  0.00    +0.000 A 
ATOM      9  C   UNL     1       4.951   4.152  16.246  0.00  0.00    +0.000 A 
ATOM     10  C   UNL     1       3.810   3.713  17.045  0.00  0.00    +0.000 C 
ATOM     11  O   UNL     1       2.778   3.336  16.513  0.00  0.00    +0.000 OA
ENDROOT
BRANCH   1  15
ATOM     12  C   UNL     1       1.676   2.863  21.692  0.00  0.00    +0.000 A 
ATOM     13  C   UNL     1       1.273   3.814  20.758  0.00  0.00    +0.000 A 
ATOM     14  C   UNL     1       2.103   4.165  19.684  0.00  0.00    +0.000 A 
ATOM     15  C   UNL     1       3.334   3.526  19.477  0.00  0.00    +0.000 A 
ATOM     16  C   UNL     1       3.706   2.535  20.395  0.00  0.00    +0.000 A 
ATOM     17  C   UNL     1       2.885   2.203  21.481  0.00  0.00    +0.000 A 
BRANCH  12  18
ATOM     18  N   UNL     1       0.785   2.411  22.670  0.00  0.00    +0.000 N 
ATOM     19  H   UNL     1       0.786   2.965  23.519  0.00  0.00    +0.000 HD
ATOM     20  H   UNL     1       0.844   1.415  22.853  0.00  0.00    +0.000 HD
ENDBRANCH  12  18
ENDBRANCH   1  15
BRANCH   7  21
ATOM     21  O   UNL     1       6.473   4.669  13.028  0.00  0.00    +0.000 OA
BRANCH  21  22
ATOM     22  C   UNL     1       6.860   3.452  12.384  0.00  0.00    +0.000 C 
BRANCH  22  23
ATOM     23  C   UNL     1       5.644   2.839  11.698  0.00  0.00    +0.000 C 
BRANCH  23  24
ATOM     24  C   UNL     1       5.882   1.381  11.348  0.00  0.00    +0.000 C 
ATOM     25  F   UNL     1       7.073   1.271  10.702  0.00  0.00    +0.000 F 
ENDBRANCH  23  24
ENDBRANCH  22  23
ENDBRANCH  21  22
ENDBRANCH   7  21
TORSDOF 6
ENDMDL
MODEL 2
REMARK VINA RESULT:      -7.3      0.452      1.094
REMARK  Name = 
REMARK  6 active torsions:
REMARK  status: ('A' for Active; 'I' for Inactive)
REMARK    1  A    between atoms: N_1  and  C_2
REMARK    2  A    between atoms: C_5  and  N_6
REMARK    3  A    between atoms: C_12  and  O_13
REMARK    4  A    between atoms: O_13  and  C_14
REMARK    5  A    between atoms: C_14  and  C_15
REMARK    6  A    between atoms: C_15  and  C_16
REMARK                            x       y       z     vdW  Elec       q    Type
REMARK                         _______ _______ _______ _____ _____    ______ ____
ROOT
ATOM      1  N   UNL     1       4.195   3.786  18.479  0.00  0.00    +0.000 N 
ATOM      2  C   UNL     1       5.387   4.449  18.660  0.00  0.00    +0.000 C 
ATOM      3  O   UNL     1       5.946   4.875  19.656  0.00  0.00    +0.000 OA
ATOM      4  C   UNL     1       6.008   4.571  17.346  0.00  0.00    +0.000 A 
ATOM      5  C   UNL     1       7.232   5.102  16.984  0.00  0.00    +0.000 A 
ATOM      6  C   UNL     1       7.566   5.077  15.626  0.00  0.00    +0.000 A 
ATOM      7  C   UNL     1       6.681   4.535  14.670  0.00  0.00    +0.000 A 
ATOM      8  C   UNL     1       5.445   4.015  15.068  0.00  0.00    +0.000 A 
ATOM      9  C   UNL     1       5.150   4.026  16.418  0.00  0.00    +0.000 A 
ATOM     10  C   UNL     1       3.992   3.508  17.143  0.00  0.00    +0.000 C 
ATOM     11  O   UNL     1       3.068   2.975  16.552  0.00  0.00    +0.000 OA
ENDROOT
BRANCH   1  15
ATOM     12  C   UNL     1       1.516   2.713  21.625  0.00  0.00    +0.000 A 
ATOM     13  C   UNL     1       2.784   2.145  21.541  0.00  0.00    +0.000 A 
ATOM     14  C   UNL     1       3.653   2.474  20.491  0.00  0.00    +0.000 A 
ATOM     15  C   UNL     1       3.302   3.431  19.529  0.00  0.00    +0.000 A 
ATOM     16  C   UNL     1       2.043   4.034  19.652  0.00  0.00    +0.000 A 
ATOM     17  C   UNL     1       1.168   3.686  20.690  0.00  0.00    +0.000 A 
BRANCH  12  18
ATOM     18  N   UNL     1       0.717   2.497  22.752  0.00  0.00    +0.000 N 
ATOM     19  H   UNL     1       0.456   1.528  22.895  0.00  0.00    +0.000 HD
ATOM     20  H   UNL     1      -0.073   3.129  22.824  0.00  0.00    +0.000 HD
ENDBRANCH  12  18
ENDBRANCH   1  15
BRANCH   7  21
ATOM     21  O   UNL     1       6.914   4.503  13.320  0.00  0.00    +0.000 OA
BRANCH  21  22
ATOM     22  C   UNL     1       5.961   3.779  12.536  0.00  0.00    +0.000 C 
BRANCH  22  23
ATOM     23  C   UNL     1       6.701   2.833  11.597  0.00  0.00    +0.000 C 
BRANCH  23  24
ATOM     24  C   UNL     1       5.884   1.586  11.311  0.00  0.00    +0.000 C 
ATOM     25  F   UNL     1       6.729   0.538  11.121  0.00  0.00    +0.000 F 
ENDBRANCH  23  24
ENDBRANCH  22  23
ENDBRANCH  21  22
ENDBRANCH   7  21
TORSDOF 6
ENDMDL
MODEL 3
REMARK VINA RESULT:      -7.2      1.115      1.130
REMARK  Name = 
REMARK  6 active torsions:
REMARK  status: ('A' for Active; 'I' for Inactive)
REMARK    1  A    between atoms: N_1  and  C_2
REMARK    2  A    between atoms: C_5  and  N_6
REMARK    3  A    between atoms: C_12  and  O_13
REMARK    4  A    between atoms: O_13  and  C_14
REMARK    5  A    between atoms: C_14  and  C_15
REMARK    6  A    between atoms: C_15  and  C_16
REMARK                            x       y       z     vdW  Elec       q    Type
REMARK                         _______ _______ _______ _____ _____    ______ ____
ROOT
ATOM      1  N   UNL     1       4.247   3.830  18.480  0.00  0.00    +0.000 N 
ATOM      2  C   UNL     1       5.469   4.448  18.614  0.00  0.00    +0.000 C 
ATOM      3  O   UNL     1       6.083   4.850  19.587  0.00  0.00    +0.000 OA
ATOM      4  C   UNL     1       6.041   4.552  17.276  0.00  0.00    +0.000 A 
ATOM      5  C   UNL     1       7.267   5.039  16.866  0.00  0.00    +0.000 A 
ATOM      6  C   UNL     1       7.545   5.007  15.496  0.00  0.00    +0.000 A 
ATOM      7  C   UNL     1       6.603   4.500  14.575  0.00  0.00    +0.000 A 
ATOM      8  C   UNL     1       5.366   4.024  15.021  0.00  0.00    +0.000 A 
ATOM      9  C   UNL     1       5.126   4.041  16.383  0.00  0.00    +0.000 A 
ATOM     10  C   UNL     1       3.980   3.564  17.153  0.00  0.00    +0.000 C 
ATOM     11  O   UNL     1       3.014   3.066  16.599  0.00  0.00    +0.000 OA
ENDROOT
BRANCH   1  15
ATOM     12  C   UNL     1       1.664   2.855  21.737  0.00  0.00    +0.000 A 
ATOM     13  C   UNL     1       1.282   3.787  20.775  0.00  0.00    +0.000 A 
ATOM     14  C   UNL     1       2.142   4.130  19.722  0.00  0.00    +0.000 A 
ATOM     15  C   UNL     1       3.385   3.503  19.565  0.00  0.00    +0.000 A 
ATOM     16  C   UNL     1       3.739   2.530  20.510  0.00  0.00    +0.000 A 
ATOM     17  C   UNL     1       2.887   2.206  21.574  0.00  0.00    +0.000 A 
BRANCH  12  18
ATOM     18  N   UNL     1       0.747   2.408  22.692  0.00  0.00    +0.000 N 
ATOM     19  H   UNL     1       1.096   2.433  23.644  0.00  0.00    +0.000 HD
ATOM     20  H   UNL     1       0.309   1.523  22.460  0.00  0.00    +0.000 HD
ENDBRANCH  12  18
ENDBRANCH   1  15
BRANCH   7  21
ATOM     21  O   UNL     1       6.779   4.465  13.217  0.00  0.00    +0.000 OA
BRANCH  21  22
ATOM     22  C   UNL     1       6.127   3.395  12.527  0.00  0.00    +0.000 C 
BRANCH  22  23
ATOM     23  C   UNL     1       4.747   3.859  12.073  0.00  0.00    +0.000 C 
BRANCH  23  24
ATOM     24  C   UNL     1       4.144   2.899  11.065  0.00  0.00    +0.000 C 
ATOM     25  F   UNL     1       3.181   3.548  10.358  0.00  0.00    +0.000 F 
ENDBRANCH  23  24
ENDBRANCH  22  23
ENDBRANCH  21  22
ENDBRANCH   7  21
TORSDOF 6
ENDMDL
MODEL 4
REMARK VINA RESULT:      -7.1      1.067      1.478
REMARK  Name = 
REMARK  6 active torsions:
REMARK  status: ('A' for Active; 'I' for Inactive)
REMARK    1  A    between atoms: N_1  and  C_2
REMARK    2  A    between atoms: C_5  and  N_6
REMARK    3  A    between atoms: C_12  and  O_13
REMARK    4  A    between atoms: O_13  and  C_14
REMARK    5  A    between atoms: C_14  and  C_15
REMARK    6  A    between atoms: C_15  and  C_16
REMARK                            x       y       z     vdW  Elec       q    Type
REMARK                         _______ _______ _______ _____ _____    ______ ____
ROOT
ATOM      1  N   UNL     1       4.189   3.786  18.399  0.00  0.00    +0.000 N 
ATOM      2  C   UNL     1       5.402   4.416  18.560  0.00  0.00    +0.000 C 
ATOM      3  O   UNL     1       5.997   4.809  19.548  0.00  0.00    +0.000 OA
ATOM      4  C   UNL     1       5.992   4.547  17.232  0.00  0.00    +0.000 A 
ATOM      5  C   UNL     1       7.218   5.054  16.848  0.00  0.00    +0.000 A 
ATOM      6  C   UNL     1       7.516   5.047  15.482  0.00  0.00    +0.000 A 
ATOM      7  C   UNL     1       6.594   4.544  14.540  0.00  0.00    +0.000 A 
ATOM      8  C   UNL     1       5.356   4.047  14.960  0.00  0.00    +0.000 A 
ATOM      9  C   UNL     1       5.096   4.040  16.318  0.00  0.00    +0.000 A 
ATOM     10  C   UNL     1       3.945   3.538  17.064  0.00  0.00    +0.000 C 
ATOM     11  O   UNL     1       2.993   3.038  16.487  0.00  0.00    +0.000 OA
ENDROOT
BRANCH   1  15
ATOM     12  C   UNL     1       1.567   2.720  21.595  0.00  0.00    +0.000 A 
ATOM     13  C   UNL     1       2.835   2.154  21.491  0.00  0.00    +0.000 A 
ATOM     14  C   UNL     1       3.685   2.480  20.425  0.00  0.00    +0.000 A 
ATOM     15  C   UNL     1       3.316   3.432  19.465  0.00  0.00    +0.000 A 
ATOM     16  C   UNL     1       2.057   4.033  19.607  0.00  0.00    +0.000 A 
ATOM     17  C   UNL     1       1.201   3.688  20.661  0.00  0.00    +0.000 A 
BRANCH  12  18
ATOM     18  N   UNL     1       0.789   2.507  22.736  0.00  0.00    +0.000 N 
ATOM     19  H   UNL     1       0.224   3.305  23.007  0.00  0.00    +0.000 HD
ATOM     20  H   UNL     1       1.300   2.108  23.515  0.00  0.00    +0.000 HD
ENDBRANCH  12  18
ENDBRANCH   1  15
BRANCH   7  21
ATOM     21  O   UNL     1       6.791   4.531  13.183  0.00  0.00    +0.000 OA
BRANCH  21  22
ATOM     22  C   UNL     1       6.396   3.337  12.503  0.00  0.00    +0.000 C 
BRANCH  22  23
ATOM     23  C   UNL     1       5.538   3.707  11.297  0.00  0.00    +0.000 C 
BRANCH  23  24
ATOM     24  C   UNL     1       4.104   3.244  11.476  0.00  0.00    +0.000 C 
ATOM     25  F   UNL     1       3.402   3.538  10.349  0.00  0.00    +0.000 F 
ENDBRANCH  23  24
ENDBRANCH  22  23
ENDBRANCH  21  22
ENDBRANCH   7  21
TORSDOF 6
ENDMDL
MODEL 5
REMARK VINA RESULT:      -7.1      5.571      7.025
REMARK  Name = 
REMARK  6 active torsions:
REMARK  status: ('A' for Active; 'I' for Inactive)
REMARK    1  A    between atoms: N_1  and  C_2
REMARK    2  A    between atoms: C_5  and  N_6
REMARK    3  A    between atoms: C_12  and  O_13
REMARK    4  A    between atoms: O_13  and  C_14
REMARK    5  A    between atoms: C_14  and  C_15
REMARK    6  A    between atoms: C_15  and  C_16
REMARK                            x       y       z     vdW  Elec       q    Type
REMARK                         _______ _______ _______ _____ _____    ______ ____
ROOT
ATOM      1  N   UNL     1       1.454   8.780  19.338  0.00  0.00    +0.000 N 
ATOM      2  C   UNL     1       2.174   8.718  18.167  0.00  0.00    +0.000 C 
ATOM      3  O   UNL     1       2.235   9.460  17.201  0.00  0.00    +0.000 OA
ATOM      4  C   UNL     1       2.994   7.514  18.236  0.00  0.00    +0.000 A 
ATOM      5  C   UNL     1       3.932   7.022  17.349  0.00  0.00    +0.000 A 
ATOM      6  C   UNL     1       4.573   5.827  17.690  0.00  0.00    +0.000 A 
ATOM      7  C   UNL     1       4.266   5.155  18.892  0.00  0.00    +0.000 A 
ATOM      8  C   UNL     1       3.304   5.674  19.764  0.00  0.00    +0.000 A 
ATOM      9  C   UNL     1       2.704   6.870  19.418  0.00  0.00    +0.000 A 
ATOM     10  C   UNL     1       1.727   7.687  20.134  0.00  0.00    +0.000 C 
ATOM     11  O   UNL     1       1.290   7.338  21.218  0.00  0.00    +0.000 OA
ENDROOT
BRANCH   1  15
ATOM     12  C   UNL     1      -1.224  11.944  20.361  0.00  0.00    +0.000 A 
ATOM     13  C   UNL     1      -1.466  11.131  19.257  0.00  0.00    +0.000 A 
ATOM     14  C   UNL     1      -0.572  10.111  18.902  0.00  0.00    +0.000 A 
ATOM     15  C   UNL     1       0.560   9.834  19.681  0.00  0.00    +0.000 A 
ATOM     16  C   UNL     1       0.768  10.625  20.819  0.00  0.00    +0.000 A 
ATOM     17  C   UNL     1      -0.116  11.658  21.157  0.00  0.00    +0.000 A 
BRANCH  12  18
ATOM     18  N   UNL     1      -2.191  12.854  20.795  0.00  0.00    +0.000 N 
ATOM     19  H   UNL     1      -2.490  13.512  20.084  0.00  0.00    +0.000 HD
ATOM     20  H   UNL     1      -1.967  13.306  21.675  0.00  0.00    +0.000 HD
ENDBRANCH  12  18
ENDBRANCH   1  15
BRANCH   7  21
ATOM     21  O   UNL     1       4.821   3.965  19.286  0.00  0.00    +0.000 OA
BRANCH  21  22
ATOM     22  C   UNL     1       3.900   2.910  19.579  0.00  0.00    +0.000 C 
BRANCH  22  23
ATOM     23  C   UNL     1       3.444   2.266  18.274  0.00  0.00    +0.000 C 
BRANCH  23  24
ATOM     24  C   UNL     1       1.950   2.440  18.064  0.00  0.00    +0.000 C 
ATOM     25  F   UNL     1       1.725   3.641  17.468  0.00  0.00    +0.000 F 
ENDBRANCH  23  24
ENDBRANCH  22  23
ENDBRANCH  21  22
ENDBRANCH   7  21
TORSDOF 6
ENDMDL
MODEL 6
REMARK VINA RESULT:      -7.1      5.639      7.134
REMARK  Name = 
REMARK  6 active torsions:
REMARK  status: ('A' for Active; 'I' for Inactive)
REMARK    1  A    between atoms: N_1  and  C_2
REMARK    2  A    between atoms: C_5  and  N_6
REMARK    3  A    between atoms: C_12  and  O_13
REMARK    4  A    between atoms: O_13  and  C_14
REMARK    5  A    between atoms: C_14  and  C_15
REMARK    6  A    between atoms: C_15  and  C_16
REMARK                            x       y       z     vdW  Elec       q    Type
REMARK                         _______ _______ _______ _____ _____    ______ ____
ROOT
ATOM      1  N   UNL     1       1.446   8.840  19.348  0.00  0.00    +0.000 N 
ATOM      2  C   UNL     1       2.157   8.763  18.172  0.00  0.00    +0.000 C 
ATOM      3  O   UNL     1       2.218   9.498  17.201  0.00  0.00    +0.000 OA
ATOM      4  C   UNL     1       2.966   7.552  18.243  0.00  0.00    +0.000 A 
ATOM      5  C   UNL     1       3.893   7.045  17.352  0.00  0.00    +0.000 A 
ATOM      6  C   UNL     1       4.526   5.846  17.697  0.00  0.00    +0.000 A 
ATOM      7  C   UNL     1       4.221   5.185  18.905  0.00  0.00    +0.000 A 
ATOM      8  C   UNL     1       3.270   5.719  19.781  0.00  0.00    +0.000 A 
ATOM      9  C   UNL     1       2.678   6.919  19.431  0.00  0.00    +0.000 A 
ATOM     10  C   UNL     1       1.715   7.749  20.149  0.00  0.00    +0.000 C 
ATOM     11  O   UNL     1       1.283   7.411  21.239  0.00  0.00    +0.000 OA
ENDROOT
BRANCH   1  15
ATOM     12  C   UNL     1      -1.199  12.027  20.379  0.00  0.00    +0.000 A 
ATOM     13  C   UNL     1      -0.012  11.830  21.078  0.00  0.00    +0.000 A 
ATOM     14  C   UNL     1       0.843  10.764  20.761  0.00  0.00    +0.000 A 
ATOM     15  C   UNL     1       0.565   9.904  19.690  0.00  0.00    +0.000 A 
ATOM     16  C   UNL     1      -0.608  10.142  18.961  0.00  0.00    +0.000 A 
ATOM     17  C   UNL     1      -1.471  11.194  19.296  0.00  0.00    +0.000 A 
BRANCH  12  18
ATOM     18  N   UNL     1      -1.968  13.174  20.600  0.00  0.00    +0.000 N 
ATOM     19  H   UNL     1      -2.345  13.589  19.756  0.00  0.00    +0.000 HD
ATOM     20  H   UNL     1      -1.525  13.856  21.206  0.00  0.00    +0.000 HD
ENDBRANCH  12  18
ENDBRANCH   1  15
BRANCH   7  21
ATOM     21  O   UNL     1       4.767   3.992  19.303  0.00  0.00    +0.000 OA
BRANCH  21  22
ATOM     22  C   UNL     1       3.838   2.951  19.617  0.00  0.00    +0.000 C 
BRANCH  22  23
ATOM     23  C   UNL     1       3.347   2.310  18.323  0.00  0.00    +0.000 C 
BRANCH  23  24
ATOM     24  C   UNL     1       1.857   2.524  18.130  0.00  0.00    +0.000 C 
ATOM     25  F   UNL     1       1.660   3.706  17.486  0.00  0.00    +0.000 F 
ENDBRANCH  23  24
ENDBRANCH  22  23
ENDBRANCH  21  22
ENDBRANCH   7  21
TORSDOF 6
ENDMDL
MODEL 7
REMARK VINA RESULT:      -7.1      6.070      7.355
REMARK  Name = 
REMARK  6 active torsions:
REMARK  status: ('A' for Active; 'I' for Inactive)
REMARK    1  A    between atoms: N_1  and  C_2
REMARK    2  A    between atoms: C_5  and  N_6
REMARK    3  A    between atoms: C_12  and  O_13
REMARK    4  A    between atoms: O_13  and  C_14
REMARK    5  A    between atoms: C_14  and  C_15
REMARK    6  A    between atoms: C_15  and  C_16
REMARK                            x       y       z     vdW  Elec       q    Type
REMARK                         _______ _______ _______ _____ _____    ______ ____
ROOT
ATOM      1  N   UNL     1       1.179   9.207  19.310  0.00  0.00    +0.000 N 
ATOM      2  C   UNL     1       1.334   8.184  20.217  0.00  0.00    +0.000 C 
ATOM      3  O   UNL     1       0.826   7.968  21.304  0.00  0.00    +0.000 OA
ATOM      4  C   UNL     1       2.283   7.241  19.636  0.00  0.00    +0.000 A 
ATOM      5  C   UNL     1       2.737   6.026  20.112  0.00  0.00    +0.000 A 
ATOM      6  C   UNL     1       3.657   5.330  19.321  0.00  0.00    +0.000 A 
ATOM      7  C   UNL     1       4.101   5.858  18.090  0.00  0.00    +0.000 A 
ATOM      8  C   UNL     1       3.630   7.095  17.641  0.00  0.00    +0.000 A 
ATOM      9  C   UNL     1       2.701   7.751  18.428  0.00  0.00    +0.000 A 
ATOM     10  C   UNL     1       1.984   9.005  18.208  0.00  0.00    +0.000 C 
ATOM     11  O   UNL     1       2.177   9.671  17.205  0.00  0.00    +0.000 OA
ENDROOT
BRANCH   1  15
ATOM     12  C   UNL     1      -1.455  12.527  19.825  0.00  0.00    +0.000 A 
ATOM     13  C   UNL     1      -1.810  11.452  19.014  0.00  0.00    +0.000 A 
ATOM     14  C   UNL     1      -0.933  10.376  18.819  0.00  0.00    +0.000 A 
ATOM     15  C   UNL     1       0.300  10.313  19.484  0.00  0.00    +0.000 A 
ATOM     16  C   UNL     1       0.626  11.376  20.337  0.00  0.00    +0.000 A 
ATOM     17  C   UNL     1      -0.244  12.462  20.510  0.00  0.00    +0.000 A 
BRANCH  12  18
ATOM     18  N   UNL     1      -2.390  13.519  20.133  0.00  0.00    +0.000 N 
ATOM     19  H   UNL     1      -2.012  14.460  20.127  0.00  0.00    +0.000 HD
ATOM     20  H   UNL     1      -2.940  13.324  20.962  0.00  0.00    +0.000 HD
ENDBRANCH  12  18
ENDBRANCH   1  15
BRANCH   7  21
ATOM     21  O   UNL     1       5.025   5.260  17.272  0.00  0.00    +0.000 OA
BRANCH  21  22
ATOM     22  C   UNL     1       5.905   6.142  16.570  0.00  0.00    +0.000 C 
BRANCH  22  23
ATOM     23  C   UNL     1       7.243   6.200  17.301  0.00  0.00    +0.000 C 
BRANCH  23  24
ATOM     24  C   UNL     1       7.638   7.631  17.618  0.00  0.00    +0.000 C 
ATOM     25  F   UNL     1       8.528   7.625  18.646  0.00  0.00    +0.000 F 
ENDBRANCH  23  24
ENDBRANCH  22  23
ENDBRANCH  21  22
ENDBRANCH   7  21
TORSDOF 6
ENDMDL
MODEL 8
REMARK VINA RESULT:      -7.1      6.188      8.062
REMARK  Name = 
REMARK  6 active torsions:
REMARK  status: ('A' for Active; 'I' for Inactive)
REMARK    1  A    between atoms: N_1  and  C_2
REMARK    2  A    between atoms: C_5  and  N_6
REMARK    3  A    between atoms: C_12  and  O_13
REMARK    4  A    between atoms: O_13  and  C_14
REMARK    5  A    between atoms: C_14  and  C_15
REMARK    6  A    between atoms: C_15  and  C_16
REMARK                            x       y       z     vdW  Elec       q    Type
REMARK                         _______ _______ _______ _____ _____    ______ ____
ROOT
ATOM      1  N   UNL     1       1.202   9.257  19.364  0.00  0.00    +0.000 N 
ATOM      2  C   UNL     1       1.954   9.035  18.233  0.00  0.00    +0.000 C 
ATOM      3  O   UNL     1       2.124   9.693  17.220  0.00  0.00    +0.000 OA
ATOM      4  C   UNL     1       2.644   7.765  18.423  0.00  0.00    +0.000 A 
ATOM      5  C   UNL     1       3.559   7.118  17.614  0.00  0.00    +0.000 A 
ATOM      6  C   UNL     1       4.063   5.894  18.067  0.00  0.00    +0.000 A 
ATOM      7  C   UNL     1       3.646   5.348  19.299  0.00  0.00    +0.000 A 
ATOM      8  C   UNL     1       2.711   6.024  20.090  0.00  0.00    +0.000 A 
ATOM      9  C   UNL     1       2.248   7.244  19.634  0.00  0.00    +0.000 A 
ATOM     10  C   UNL     1       1.334   8.204  20.247  0.00  0.00    +0.000 C 
ATOM     11  O   UNL     1       0.825   7.982  21.333  0.00  0.00    +0.000 OA
ENDROOT
BRANCH   1  15
ATOM     12  C   UNL     1      -1.181  12.731  20.054  0.00  0.00    +0.000 A 
ATOM     13  C   UNL     1       0.094  12.618  20.602  0.00  0.00    +0.000 A 
ATOM     14  C   UNL     1       0.865  11.464  20.402  0.00  0.00    +0.000 A 
ATOM     15  C   UNL     1       0.408  10.416  19.592  0.00  0.00    +0.000 A 
ATOM     16  C   UNL     1      -0.855  10.561  19.003  0.00  0.00    +0.000 A 
ATOM     17  C   UNL     1      -1.633  11.706  19.224  0.00  0.00    +0.000 A 
BRANCH  12  18
ATOM     18  N   UNL     1      -1.879  13.939  20.131  0.00  0.00    +0.000 N 
ATOM     19  H   UNL     1      -1.640  14.505  20.937  0.00  0.00    +0.000 HD
ATOM     20  H   UNL     1      -2.881  13.845  20.004  0.00  0.00    +0.000 HD
ENDBRANCH  12  18
ENDBRANCH   1  15
BRANCH   7  21
ATOM     21  O   UNL     1       4.062   4.142  19.800  0.00  0.00    +0.000 OA
BRANCH  21  22
ATOM     22  C   UNL     1       3.118   3.070  19.720  0.00  0.00    +0.000 C 
BRANCH  22  23
ATOM     23  C   UNL     1       2.850   2.533  21.121  0.00  0.00    +0.000 C 
BRANCH  23  24
ATOM     24  C   UNL     1       1.446   2.875  21.586  0.00  0.00    +0.000 C 
ATOM     25  F   UNL     1       0.721   3.308  20.519  0.00  0.00    +0.000 F 
ENDBRANCH  23  24
ENDBRANCH  22  23
ENDBRANCH  21  22
ENDBRANCH   7  21
TORSDOF 6
ENDMDL
MODEL 9
REMARK VINA RESULT:      -7.0      6.184      8.044
REMARK  Name = 
REMARK  6 active torsions:
REMARK  status: ('A' for Active; 'I' for Inactive)
REMARK    1  A    between atoms: N_1  and  C_2
REMARK    2  A    between atoms: C_5  and  N_6
REMARK    3  A    between atoms: C_12  and  O_13
REMARK    4  A    between atoms: O_13  and  C_14
REMARK    5  A    between atoms: C_14  and  C_15
REMARK    6  A    between atoms: C_15  and  C_16
REMARK                            x       y       z     vdW  Elec       q    Type
REMARK                         _______ _______ _______ _____ _____    ______ ____
ROOT
ATOM      1  N   UNL     1       1.206   9.251  19.304  0.00  0.00    +0.000 N 
ATOM      2  C   UNL     1       1.975   9.011  18.188  0.00  0.00    +0.000 C 
ATOM      3  O   UNL     1       2.162   9.652  17.168  0.00  0.00    +0.000 OA
ATOM      4  C   UNL     1       2.661   7.744  18.410  0.00  0.00    +0.000 A 
ATOM      5  C   UNL     1       3.588   7.083  17.626  0.00  0.00    +0.000 A 
ATOM      6  C   UNL     1       4.084   5.867  18.106  0.00  0.00    +0.000 A 
ATOM      7  C   UNL     1       3.647   5.341  19.341  0.00  0.00    +0.000 A 
ATOM      8  C   UNL     1       2.701   6.030  20.106  0.00  0.00    +0.000 A 
ATOM      9  C   UNL     1       2.245   7.243  19.623  0.00  0.00    +0.000 A 
ATOM     10  C   UNL     1       1.323   8.213  20.206  0.00  0.00    +0.000 C 
ATOM     11  O   UNL     1       0.798   8.009  21.288  0.00  0.00    +0.000 OA
ENDROOT
BRANCH   1  15
ATOM     12  C   UNL     1      -1.180  12.742  19.888  0.00  0.00    +0.000 A 
ATOM     13  C   UNL     1      -1.644  11.680  19.117  0.00  0.00    +0.000 A 
ATOM     14  C   UNL     1      -0.849  10.546  18.899  0.00  0.00    +0.000 A 
ATOM     15  C   UNL     1       0.410  10.414  19.501  0.00  0.00    +0.000 A 
ATOM     16  C   UNL     1       0.846  11.467  20.316  0.00  0.00    +0.000 A 
ATOM     17  C   UNL     1       0.058  12.609  20.514  0.00  0.00    +0.000 A 
BRANCH  12  18
ATOM     18  N   UNL     1      -2.033  13.797  20.225  0.00  0.00    +0.000 N 
ATOM     19  H   UNL     1      -1.676  14.714  19.976  0.00  0.00    +0.000 HD
ATOM     20  H   UNL     1      -2.380  13.760  21.177  0.00  0.00    +0.000 HD
ENDBRANCH  12  18
ENDBRANCH   1  15
BRANCH   7  21
ATOM     21  O   UNL     1       4.054   4.143  19.868  0.00  0.00    +0.000 OA
BRANCH  21  22
ATOM     22  C   UNL     1       3.107   3.073  19.800  0.00  0.00    +0.000 C 
BRANCH  22  23
ATOM     23  C   UNL     1       2.810   2.578  21.211  0.00  0.00    +0.000 C 
BRANCH  23  24
ATOM     24  C   UNL     1       1.358   2.814  21.585  0.00  0.00    +0.000 C 
ATOM     25  F   UNL     1       0.727   3.424  20.547  0.00  0.00    +0.000 F 
ENDBRANCH  23  24
ENDBRANCH  22  23
ENDBRANCH  21  22
ENDBRANCH   7  21
TORSDOF 6
ENDMDL
