MODEL 1
REMARK VINA RESULT:      -8.2      0.000      0.000
REMARK  Name = 
REMARK  2 active torsions:
REMARK  status: ('A' for Active; 'I' for Inactive)
REMARK    1  A    between atoms: C_6  and  N_7
REMARK    2  A    between atoms: N_7  and  C_8
REMARK                            x       y       z     vdW  Elec       q    Type
REMARK                         _______ _______ _______ _____ _____    ______ ____
ROOT
ATOM      1  O   UNL     1       6.349   5.123  19.931  0.00  0.00    +0.000 OA
ATOM      2  N   UNL     1       5.602   4.927  18.921  0.00  0.00    +0.000 N 
ATOM      3  C   UNL     1       6.015   4.843  17.697  0.00  0.00    +0.000 A 
ATOM      4  C   UNL     1       7.355   4.829  17.150  0.00  0.00    +0.000 A 
ATOM      5  C   UNL     1       7.423   4.674  15.820  0.00  0.00    +0.000 A 
ATOM      6  C   UNL     1       6.267   4.644  14.916  0.00  0.00    +0.000 A 
ATOM      7  C   UNL     1       5.009   4.678  15.407  0.00  0.00    +0.000 A 
ATOM      8  C   UNL     1       4.807   4.678  16.861  0.00  0.00    +0.000 A 
ATOM      9  N   UNL     1       3.701   4.564  17.536  0.00  0.00    +0.000 NA
ATOM     10  C   UNL     1       4.169   4.542  18.971  0.00  0.00    +0.000 C 
ATOM     11  C   UNL     1       4.174   3.099  19.488  0.00  0.00    +0.000 C 
ATOM     12  C   UNL     1       2.807   2.553  19.862  0.00  0.00    +0.000 C 
ATOM     13  C   UNL     1       1.909   3.526  20.617  0.00  0.00    +0.000 C 
ATOM     14  C   UNL     1       1.964   4.975  20.140  0.00  0.00    +0.000 C 
ATOM     15  C   UNL     1       3.376   5.493  19.856  0.00  0.00    +0.000 C 
ENDROOT
BRANCH   6  16
ATOM     16  N   UNL     1       6.570   4.643  13.561  0.00  0.00    +0.000 N 
ATOM     17  H   UNL     1       7.438   5.127  13.343  0.00  0.00    +0.000 HD
BRANCH  16  18
ATOM     18  C   UNL     1       6.366   3.584  12.640  0.00  0.00    +0.000 A 
ATOM     19  C   UNL     1       5.109   3.142  12.218  0.00  0.00    +0.000 A 
ATOM     20  C   UNL     1       4.989   2.117  11.270  0.00  0.00    +0.000 A 
ATOM     21  C   UNL     1       6.120   1.531  10.721  0.00  0.00    +0.000 A 
ATOM     22  C   UNL     1       7.386   1.969  11.109  0.00  0.00    +0.000 A 
ATOM     23  C   UNL     1       7.503   2.993  12.056  0.00  0.00    +0.000 A 
ENDBRANCH  16  18
ENDBRANCH   6  16
TORSDOF 2
ENDMDL
MODEL 2
REMARK VINA RESULT:      -8.2      0.434      1.104
REMARK  Name = 
REMARK  2 active torsions:
REMARK  status: ('A' for Active; 'I' for Inactive)
REMARK    1  A    between atoms: C_6  and  N_7
REMARK    2  A    between atoms: N_7  and  C_8
REMARK                            x       y       z     vdW  Elec       q    Type
REMARK                         _______ _______ _______ _____ _____    ______ ____
ROOT
ATOM      1  O   UNL     1       6.268   5.110  19.966  0.00  0.00    +0.000 OA
ATOM      2  N   UNL     1       5.544   4.879  18.948  0.00  0.00    +0.000 N 
ATOM      3  C   UNL     1       5.983   4.755  17.737  0.00  0.00    +0.000 A 
ATOM      4  C   UNL     1       7.335   4.727  17.219  0.00  0.00    +0.000 A 
ATOM      5  C   UNL     1       7.432   4.529  15.897  0.00  0.00    +0.000 A 
ATOM      6  C   UNL     1       6.295   4.465  14.969  0.00  0.00    +0.000 A 
ATOM      7  C   UNL     1       5.027   4.511  15.432  0.00  0.00    +0.000 A 
ATOM      8  C   UNL     1       4.794   4.559  16.881  0.00  0.00    +0.000 A 
ATOM      9  N   UNL     1       3.674   4.464  17.535  0.00  0.00    +0.000 NA
ATOM     10  C   UNL     1       4.111   4.492  18.980  0.00  0.00    +0.000 C 
ATOM     11  C   UNL     1       4.108   3.066  19.545  0.00  0.00    +0.000 C 
ATOM     12  C   UNL     1       2.734   2.528  19.907  0.00  0.00    +0.000 C 
ATOM     13  C   UNL     1       1.819   3.523  20.610  0.00  0.00    +0.000 C 
ATOM     14  C   UNL     1       1.880   4.956  20.087  0.00  0.00    +0.000 C 
ATOM     15  C   UNL     1       3.298   5.468  19.816  0.00  0.00    +0.000 C 
ENDROOT
BRANCH   6  16
ATOM     16  N   UNL     1       6.627   4.420  13.622  0.00  0.00    +0.000 N 
ATOM     17  H   UNL     1       7.622   4.545  13.449  0.00  0.00    +0.000 HD
BRANCH  16  18
ATOM     18  C   UNL     1       6.071   3.571  12.632  0.00  0.00    +0.000 A 
ATOM     19  C   UNL     1       6.715   2.443  12.113  0.00  0.00    +0.000 A 
ATOM     20  C   UNL     1       6.083   1.628  11.165  0.00  0.00    +0.000 A 
ATOM     21  C   UNL     1       4.796   1.918  10.734  0.00  0.00    +0.000 A 
ATOM     22  C   UNL     1       4.124   3.025  11.252  0.00  0.00    +0.000 A 
ATOM     23  C   UNL     1       4.758   3.838  12.199  0.00  0.00    +0.000 A 
ENDBRANCH  16  18
ENDBRANCH   6  16
TORSDOF 2
ENDMDL
MODEL 3
REMARK VINA RESULT:      -8.1      1.902      2.640
REMARK  Name = 
REMARK  2 active torsions:
REMARK  status: ('A' for Active; 'I' for Inactive)
REMARK    1  A    between atoms: C_6  and  N_7
REMARK    2  A    between atoms: N_7  and  C_8
REMARK                            x       y       z     vdW  Elec       q    Type
REMARK                         _______ _______ _______ _____ _____    ______ ____
ROOT
ATOM      1  O   UNL     1       1.926   6.796  18.913  0.00  0.00    +0.000 OA
ATOM      2  N   UNL     1       2.623   5.778  18.609  0.00  0.00    +0.000 N 
ATOM      3  C   UNL     1       3.697   5.802  17.888  0.00  0.00    +0.000 A 
ATOM      4  C   UNL     1       4.446   6.915  17.343  0.00  0.00    +0.000 A 
ATOM      5  C   UNL     1       5.559   6.579  16.677  0.00  0.00    +0.000 A 
ATOM      6  C   UNL     1       5.977   5.203  16.376  0.00  0.00    +0.000 A 
ATOM      7  C   UNL     1       5.279   4.152  16.857  0.00  0.00    +0.000 A 
ATOM      8  C   UNL     1       4.133   4.397  17.742  0.00  0.00    +0.000 A 
ATOM      9  N   UNL     1       3.424   3.545  18.421  0.00  0.00    +0.000 NA
ATOM     10  C   UNL     1       2.470   4.422  19.195  0.00  0.00    +0.000 C 
ATOM     11  C   UNL     1       2.962   4.568  20.640  0.00  0.00    +0.000 C 
ATOM     12  C   UNL     1       2.679   3.371  21.531  0.00  0.00    +0.000 C 
ATOM     13  C   UNL     1       1.297   2.753  21.360  0.00  0.00    +0.000 C 
ATOM     14  C   UNL     1       0.785   2.676  19.923  0.00  0.00    +0.000 C 
ATOM     15  C   UNL     1       1.029   3.943  19.098  0.00  0.00    +0.000 C 
ENDROOT
BRANCH   6  16
ATOM     16  N   UNL     1       7.072   5.084  15.531  0.00  0.00    +0.000 N 
ATOM     17  H   UNL     1       7.870   4.628  15.969  0.00  0.00    +0.000 HD
BRANCH  16  18
ATOM     18  C   UNL     1       7.055   4.793  14.144  0.00  0.00    +0.000 A 
ATOM     19  C   UNL     1       7.883   5.410  13.202  0.00  0.00    +0.000 A 
ATOM     20  C   UNL     1       7.838   5.038  11.852  0.00  0.00    +0.000 A 
ATOM     21  C   UNL     1       6.978   4.036  11.427  0.00  0.00    +0.000 A 
ATOM     22  C   UNL     1       6.156   3.390  12.350  0.00  0.00    +0.000 A 
ATOM     23  C   UNL     1       6.204   3.764  13.698  0.00  0.00    +0.000 A 
ENDBRANCH  16  18
ENDBRANCH   6  16
TORSDOF 2
ENDMDL
MODEL 4
REMARK VINA RESULT:      -8.1      1.924      2.569
REMARK  Name = 
REMARK  2 active torsions:
REMARK  status: ('A' for Active; 'I' for Inactive)
REMARK    1  A    between atoms: C_6  and  N_7
REMARK    2  A    between atoms: N_7  and  C_8
REMARK                            x       y       z     vdW  Elec       q    Type
REMARK                         _______ _______ _______ _____ _____    ______ ____
ROOT
ATOM      1  O   UNL     1       1.977   6.799  18.991  0.00  0.00    +0.000 OA
ATOM      2  N   UNL     1       2.653   5.767  18.685  0.00  0.00    +0.000 N 
ATOM      3  C   UNL     1       3.738   5.772  17.980  0.00  0.00    +0.000 A 
ATOM      4  C   UNL     1       4.523   6.871  17.459  0.00  0.00    +0.000 A 
ATOM      5  C   UNL     1       5.637   6.513  16.805  0.00  0.00    +0.000 A 
ATOM      6  C   UNL     1       6.023   5.131  16.494  0.00  0.00    +0.000 A 
ATOM      7  C   UNL     1       5.291   4.093  16.952  0.00  0.00    +0.000 A 
ATOM      8  C   UNL     1       4.139   4.357  17.823  0.00  0.00    +0.000 A 
ATOM      9  N   UNL     1       3.399   3.516  18.482  0.00  0.00    +0.000 NA
ATOM     10  C   UNL     1       2.456   4.409  19.253  0.00  0.00    +0.000 C 
ATOM     11  C   UNL     1       2.930   4.524  20.706  0.00  0.00    +0.000 C 
ATOM     12  C   UNL     1       2.604   3.325  21.579  0.00  0.00    +0.000 C 
ATOM     13  C   UNL     1       1.209   2.745  21.380  0.00  0.00    +0.000 C 
ATOM     14  C   UNL     1       0.717   2.699  19.936  0.00  0.00    +0.000 C 
ATOM     15  C   UNL     1       1.005   3.969  19.130  0.00  0.00    +0.000 C 
ENDROOT
BRANCH   6  16
ATOM     16  N   UNL     1       7.127   4.994  15.664  0.00  0.00    +0.000 N 
ATOM     17  H   UNL     1       7.905   4.507  16.106  0.00  0.00    +0.000 HD
BRANCH  16  18
ATOM     18  C   UNL     1       7.123   4.724  14.272  0.00  0.00    +0.000 A 
ATOM     19  C   UNL     1       6.317   3.758  13.662  0.00  0.00    +0.000 A 
ATOM     20  C   UNL     1       6.338   3.578  12.272  0.00  0.00    +0.000 A 
ATOM     21  C   UNL     1       7.149   4.370  11.473  0.00  0.00    +0.000 A 
ATOM     22  C   UNL     1       7.947   5.356  12.055  0.00  0.00    +0.000 A 
ATOM     23  C   UNL     1       7.924   5.533  13.443  0.00  0.00    +0.000 A 
ENDBRANCH  16  18
ENDBRANCH   6  16
TORSDOF 2
ENDMDL
MODEL 5
REMARK VINA RESULT:      -7.9      4.515      8.225
REMARK  Name = 
REMARK  2 active torsions:
REMARK  status: ('A' for Active; 'I' for Inactive)
REMARK    1  A    between atoms: C_6  and  N_7
REMARK    2  A    between atoms: N_7  and  C_8
REMARK                            x       y       z     vdW  Elec       q    Type
REMARK                         _______ _______ _______ _____ _____    ______ ____
ROOT
ATOM      1  O   UNL     1       4.576   5.713  16.691  0.00  0.00    +0.000 OA
ATOM      2  N   UNL     1       3.853   5.712  17.737  0.00  0.00    +0.000 N 
ATOM      3  C   UNL     1       3.174   6.725  18.171  0.00  0.00    +0.000 A 
ATOM      4  C   UNL     1       2.949   8.033  17.590  0.00  0.00    +0.000 A 
ATOM      5  C   UNL     1       2.138   8.835  18.294  0.00  0.00    +0.000 A 
ATOM      6  C   UNL     1       1.590   8.523  19.620  0.00  0.00    +0.000 A 
ATOM      7  C   UNL     1       1.807   7.317  20.188  0.00  0.00    +0.000 A 
ATOM      8  C   UNL     1       2.543   6.293  19.435  0.00  0.00    +0.000 A 
ATOM      9  N   UNL     1       2.734   5.040  19.727  0.00  0.00    +0.000 NA
ATOM     10  C   UNL     1       3.476   4.511  18.523  0.00  0.00    +0.000 C 
ATOM     11  C   UNL     1       2.504   3.745  17.617  0.00  0.00    +0.000 C 
ATOM     12  C   UNL     1       2.158   2.345  18.095  0.00  0.00    +0.000 C 
ATOM     13  C   UNL     1       3.333   1.541  18.638  0.00  0.00    +0.000 C 
ATOM     14  C   UNL     1       4.334   2.328  19.481  0.00  0.00    +0.000 C 
ATOM     15  C   UNL     1       4.704   3.698  18.905  0.00  0.00    +0.000 C 
ENDROOT
BRANCH   6  16
ATOM     16  N   UNL     1       0.910   9.560  20.242  0.00  0.00    +0.000 N 
ATOM     17  H   UNL     1       1.341   9.856  21.116  0.00  0.00    +0.000 HD
BRANCH  16  18
ATOM     18  C   UNL     1       0.282  10.668  19.618  0.00  0.00    +0.000 A 
ATOM     19  C   UNL     1       0.840  11.948  19.543  0.00  0.00    +0.000 A 
ATOM     20  C   UNL     1       0.177  12.983  18.872  0.00  0.00    +0.000 A 
ATOM     21  C   UNL     1      -1.044  12.752  18.254  0.00  0.00    +0.000 A 
ATOM     22  C   UNL     1      -1.613  11.479  18.297  0.00  0.00    +0.000 A 
ATOM     23  C   UNL     1      -0.947  10.446  18.969  0.00  0.00    +0.000 A 
ENDBRANCH  16  18
ENDBRANCH   6  16
TORSDOF 2
ENDMDL
MODEL 6
REMARK VINA RESULT:      -7.9      4.292      8.216
REMARK  Name = 
REMARK  2 active torsions:
REMARK  status: ('A' for Active; 'I' for Inactive)
REMARK    1  A    between atoms: C_6  and  N_7
REMARK    2  A    between atoms: N_7  and  C_8
REMARK                            x       y       z     vdW  Elec       q    Type
REMARK                         _______ _______ _______ _____ _____    ______ ____
ROOT
ATOM      1  O   UNL     1       3.505   4.159  19.569  0.00  0.00    +0.000 OA
ATOM      2  N   UNL     1       3.575   5.202  18.846  0.00  0.00    +0.000 N 
ATOM      3  C   UNL     1       2.947   6.310  19.077  0.00  0.00    +0.000 A 
ATOM      4  C   UNL     1       2.128   6.716  20.199  0.00  0.00    +0.000 A 
ATOM      5  C   UNL     1       1.666   7.973  20.139  0.00  0.00    +0.000 A 
ATOM      6  C   UNL     1       1.834   8.878  18.995  0.00  0.00    +0.000 A 
ATOM      7  C   UNL     1       2.577   8.508  17.929  0.00  0.00    +0.000 A 
ATOM      8  C   UNL     1       3.272   7.215  17.954  0.00  0.00    +0.000 A 
ATOM      9  N   UNL     1       4.140   6.734  17.114  0.00  0.00    +0.000 NA
ATOM     10  C   UNL     1       4.544   5.422  17.742  0.00  0.00    +0.000 C 
ATOM     11  C   UNL     1       5.898   5.583  18.443  0.00  0.00    +0.000 C 
ATOM     12  C   UNL     1       7.100   5.577  17.515  0.00  0.00    +0.000 C 
ATOM     13  C   UNL     1       7.048   4.538  16.402  0.00  0.00    +0.000 C 
ATOM     14  C   UNL     1       5.680   4.334  15.757  0.00  0.00    +0.000 C 
ATOM     15  C   UNL     1       4.517   4.268  16.751  0.00  0.00    +0.000 C 
ENDROOT
BRANCH   6  16
ATOM     16  N   UNL     1       1.135  10.074  19.074  0.00  0.00    +0.000 N 
ATOM     17  H   UNL     1       1.721  10.893  18.921  0.00  0.00    +0.000 HD
BRANCH  16  18
ATOM     18  C   UNL     1      -0.178  10.331  18.605  0.00  0.00    +0.000 A 
ATOM     19  C   UNL     1      -0.789   9.630  17.560  0.00  0.00    +0.000 A 
ATOM     20  C   UNL     1      -2.108   9.912  17.181  0.00  0.00    +0.000 A 
ATOM     21  C   UNL     1      -2.839  10.886  17.847  0.00  0.00    +0.000 A 
ATOM     22  C   UNL     1      -2.259  11.584  18.907  0.00  0.00    +0.000 A 
ATOM     23  C   UNL     1      -0.941  11.300  19.283  0.00  0.00    +0.000 A 
ENDBRANCH  16  18
ENDBRANCH   6  16
TORSDOF 2
ENDMDL
MODEL 7
REMARK VINA RESULT:      -7.9      4.620      8.216
REMARK  Name = 
REMARK  2 active torsions:
REMARK  status: ('A' for Active; 'I' for Inactive)
REMARK    1  A    between atoms: C_6  and  N_7
REMARK    2  A    between atoms: N_7  and  C_8
REMARK                            x       y       z     vdW  Elec       q    Type
REMARK                         _______ _______ _______ _____ _____    ______ ____
ROOT
ATOM      1  O   UNL     1       4.529   5.702  16.677  0.00  0.00    +0.000 OA
ATOM      2  N   UNL     1       3.814   5.742  17.727  0.00  0.00    +0.000 N 
ATOM      3  C   UNL     1       3.150   6.775  18.134  0.00  0.00    +0.000 A 
ATOM      4  C   UNL     1       2.933   8.065  17.513  0.00  0.00    +0.000 A 
ATOM      5  C   UNL     1       2.136   8.898  18.197  0.00  0.00    +0.000 A 
ATOM      6  C   UNL     1       1.595   8.635  19.537  0.00  0.00    +0.000 A 
ATOM      7  C   UNL     1       1.805   7.445  20.141  0.00  0.00    +0.000 A 
ATOM      8  C   UNL     1       2.525   6.390  19.417  0.00  0.00    +0.000 A 
ATOM      9  N   UNL     1       2.706   5.145  19.747  0.00  0.00    +0.000 NA
ATOM     10  C   UNL     1       3.432   4.570  18.555  0.00  0.00    +0.000 C 
ATOM     11  C   UNL     1       2.445   3.785  17.682  0.00  0.00    +0.000 C 
ATOM     12  C   UNL     1       2.090   2.405  18.207  0.00  0.00    +0.000 C 
ATOM     13  C   UNL     1       3.261   1.608  18.766  0.00  0.00    +0.000 C 
ATOM     14  C   UNL     1       4.276   2.411  19.576  0.00  0.00    +0.000 C 
ATOM     15  C   UNL     1       4.655   3.758  18.954  0.00  0.00    +0.000 C 
ENDROOT
BRANCH   6  16
ATOM     16  N   UNL     1       0.931   9.699  20.131  0.00  0.00    +0.000 N 
ATOM     17  H   UNL     1       1.303   9.944  21.046  0.00  0.00    +0.000 HD
BRANCH  16  18
ATOM     18  C   UNL     1       0.430  10.860  19.490  0.00  0.00    +0.000 A 
ATOM     19  C   UNL     1      -0.807  10.927  18.841  0.00  0.00    +0.000 A 
ATOM     20  C   UNL     1      -1.253  12.124  18.266  0.00  0.00    +0.000 A 
ATOM     21  C   UNL     1      -0.478  13.273  18.344  0.00  0.00    +0.000 A 
ATOM     22  C   UNL     1       0.750  13.238  19.004  0.00  0.00    +0.000 A 
ATOM     23  C   UNL     1       1.193  12.040  19.577  0.00  0.00    +0.000 A 
ENDBRANCH  16  18
ENDBRANCH   6  16
TORSDOF 2
ENDMDL
MODEL 8
REMARK VINA RESULT:      -7.8      4.351      8.288
REMARK  Name = 
REMARK  2 active torsions:
REMARK  status: ('A' for Active; 'I' for Inactive)
REMARK    1  A    between atoms: C_6  and  N_7
REMARK    2  A    between atoms: N_7  and  C_8
REMARK                            x       y       z     vdW  Elec       q    Type
REMARK                         _______ _______ _______ _____ _____    ______ ____
ROOT
ATOM      1  O   UNL     1       3.152   4.113  19.820  0.00  0.00    +0.000 OA
ATOM      2  N   UNL     1       3.257   5.153  19.099  0.00  0.00    +0.000 N 
ATOM      3  C   UNL     1       2.664   6.280  19.329  0.00  0.00    +0.000 A 
ATOM      4  C   UNL     1       1.854   6.712  20.450  0.00  0.00    +0.000 A 
ATOM      5  C   UNL     1       1.433   7.983  20.389  0.00  0.00    +0.000 A 
ATOM      6  C   UNL     1       1.633   8.883  19.246  0.00  0.00    +0.000 A 
ATOM      7  C   UNL     1       2.367   8.490  18.183  0.00  0.00    +0.000 A 
ATOM      8  C   UNL     1       3.021   7.176  18.209  0.00  0.00    +0.000 A 
ATOM      9  N   UNL     1       3.876   6.668  17.371  0.00  0.00    +0.000 NA
ATOM     10  C   UNL     1       4.236   5.344  17.999  0.00  0.00    +0.000 C 
ATOM     11  C   UNL     1       5.593   5.461  18.704  0.00  0.00    +0.000 C 
ATOM     12  C   UNL     1       6.797   5.418  17.779  0.00  0.00    +0.000 C 
ATOM     13  C   UNL     1       6.716   4.382  16.665  0.00  0.00    +0.000 C 
ATOM     14  C   UNL     1       5.343   4.222  16.015  0.00  0.00    +0.000 C 
ATOM     15  C   UNL     1       4.176   4.192  17.006  0.00  0.00    +0.000 C 
ENDROOT
BRANCH   6  16
ATOM     16  N   UNL     1       0.972  10.100  19.324  0.00  0.00    +0.000 N 
ATOM     17  H   UNL     1       1.579  10.899  19.151  0.00  0.00    +0.000 HD
BRANCH  16  18
ATOM     18  C   UNL     1      -0.342  10.391  18.877  0.00  0.00    +0.000 A 
ATOM     19  C   UNL     1      -1.183  11.335  19.474  0.00  0.00    +0.000 A 
ATOM     20  C   UNL     1      -2.455  11.598  18.949  0.00  0.00    +0.000 A 
ATOM     21  C   UNL     1      -2.898  10.934  17.814  0.00  0.00    +0.000 A 
ATOM     22  C   UNL     1      -2.070  10.003  17.187  0.00  0.00    +0.000 A 
ATOM     23  C   UNL     1      -0.799   9.742  17.715  0.00  0.00    +0.000 A 
ENDBRANCH  16  18
ENDBRANCH   6  16
TORSDOF 2
ENDMDL
MODEL 9
REMARK VINA RESULT:      -7.8      4.560      8.299
REMARK  Name = 
REMARK  2 active torsions:
REMARK  status: ('A' for Active; 'I' for Inactive)
REMARK    1  A    between atoms: C_6  and  N_7
REMARK    2  A    between atoms: N_7  and  C_8
REMARK                            x       y       z     vdW  Elec       q    Type
REMARK                         _______ _______ _______ _____ _____    ______ ____
ROOT
ATOM      1  O   UNL     1       4.613   5.740  16.731  0.00  0.00    +0.000 OA
ATOM      2  N   UNL     1       3.846   5.797  17.743  0.00  0.00    +0.000 N 
ATOM      3  C   UNL     1       3.180   6.843  18.113  0.00  0.00    +0.000 A 
ATOM      4  C   UNL     1       3.020   8.135  17.479  0.00  0.00    +0.000 A 
ATOM      5  C   UNL     1       2.204   8.984  18.119  0.00  0.00    +0.000 A 
ATOM      6  C   UNL     1       1.590   8.734  19.430  0.00  0.00    +0.000 A 
ATOM      7  C   UNL     1       1.747   7.543  20.047  0.00  0.00    +0.000 A 
ATOM      8  C   UNL     1       2.483   6.473  19.363  0.00  0.00    +0.000 A 
ATOM      9  N   UNL     1       2.625   5.226  19.704  0.00  0.00    +0.000 NA
ATOM     10  C   UNL     1       3.400   4.634  18.553  0.00  0.00    +0.000 C 
ATOM     11  C   UNL     1       2.446   3.865  17.632  0.00  0.00    +0.000 C 
ATOM     12  C   UNL     1       2.038   2.493  18.141  0.00  0.00    +0.000 C 
ATOM     13  C   UNL     1       3.165   1.676  18.761  0.00  0.00    +0.000 C 
ATOM     14  C   UNL     1       4.152   2.464  19.620  0.00  0.00    +0.000 C 
ATOM     15  C   UNL     1       4.586   3.802  19.015  0.00  0.00    +0.000 C 
ENDROOT
BRANCH   6  16
ATOM     16  N   UNL     1       0.916   9.812  19.987  0.00  0.00    +0.000 N 
ATOM     17  H   UNL     1       1.537  10.512  20.388  0.00  0.00    +0.000 HD
BRANCH  16  18
ATOM     18  C   UNL     1      -0.255  10.439  19.489  0.00  0.00    +0.000 A 
ATOM     19  C   UNL     1      -0.904  10.065  18.308  0.00  0.00    +0.000 A 
ATOM     20  C   UNL     1      -2.082  10.705  17.902  0.00  0.00    +0.000 A 
ATOM     21  C   UNL     1      -2.635  11.717  18.674  0.00  0.00    +0.000 A 
ATOM     22  C   UNL     1      -2.017  12.095  19.867  0.00  0.00    +0.000 A 
ATOM     23  C   UNL     1      -0.841  11.453  20.270  0.00  0.00    +0.000 A 
ENDBRANCH  16  18
ENDBRANCH   6  16
TORSDOF 2
ENDMDL
