MODEL 1
REMARK VINA RESULT:      -7.9      0.000      0.000
REMARK  Name = 
REMARK  8 active torsions:
REMARK  status: ('A' for Active; 'I' for Inactive)
REMARK    1  A    between atoms: C_1  and  C_2
REMARK    2  A    between atoms: C_7  and  C_8
REMARK    3  A    between atoms: C_7  and  C_9
REMARK    4  A    between atoms: C_17  and  N_18
REMARK    5  A    between atoms: C_19  and  O_21
REMARK    6  A    between atoms: O_21  and  C_22
REMARK    7  A    between atoms: C_22  and  C_23
REMARK    8  A    between atoms: C_23  and  C_24
REMARK                            x       y       z     vdW  Elec       q    Type
REMARK                         _______ _______ _______ _____ _____    ______ ____
ROOT
ATOM      1  C   UNL     1       7.005   4.109  15.723  0.00  0.00    +0.000 C 
ATOM      2  C   UNL     1       6.136   5.282  16.134  0.00  0.00    +0.000 C 
ATOM      3  O   UNL     1       6.542   6.412  15.856  0.00  0.00    +0.000 OA
ATOM      4  N   UNL     1       4.923   4.977  16.781  0.00  0.00    +0.000 N 
ATOM      5  C   UNL     1       4.561   3.577  17.051  0.00  0.00    +0.000 C 
ATOM      6  C   UNL     1       3.080   3.312  16.907  0.00  0.00    +0.000 C 
ATOM      7  C   UNL     1       2.247   4.175  17.864  0.00  0.00    +0.000 C 
ATOM      8  C   UNL     1       0.806   4.172  17.259  0.00  0.00    +0.000 C 
ATOM      9  C   UNL     1       2.775   5.615  17.852  0.00  0.00    +0.000 A 
ATOM     10  C   UNL     1       1.941   6.590  18.446  0.00  0.00    +0.000 A 
ATOM     11  C   UNL     1       2.252   7.940  18.456  0.00  0.00    +0.000 A 
ATOM     12  C   UNL     1       3.497   8.313  17.964  0.00  0.00    +0.000 A 
ATOM     13  C   UNL     1       4.366   7.351  17.411  0.00  0.00    +0.000 A 
ATOM     14  C   UNL     1       4.032   5.985  17.327  0.00  0.00    +0.000 A 
ENDROOT
BRANCH   7  15
ATOM     15  C   UNL     1       2.296   3.571  19.291  0.00  0.00    +0.000 A 
ATOM     16  C   UNL     1       3.502   3.061  19.821  0.00  0.00    +0.000 A 
ATOM     17  C   UNL     1       3.555   2.472  21.085  0.00  0.00    +0.000 A 
ATOM     18  C   UNL     1       2.404   2.382  21.857  0.00  0.00    +0.000 A 
ATOM     19  C   UNL     1       1.205   2.894  21.370  0.00  0.00    +0.000 A 
ATOM     20  C   UNL     1       1.152   3.482  20.100  0.00  0.00    +0.000 A 
ENDBRANCH   7  15
BRANCH  11  21
ATOM     21  N   UNL     1       1.336   8.908  18.917  0.00  0.00    +0.000 N 
ATOM     22  C   UNL     1       1.003   9.118  20.239  0.00  0.00    +0.000 C 
ATOM     23  O   UNL     1       1.494   8.571  21.217  0.00  0.00    +0.000 OA
ATOM     24  H   UNL     1       0.709   9.337  18.252  0.00  0.00    +0.000 HD
BRANCH  22  25
ATOM     25  O   UNL     1      -0.062   9.961  20.313  0.00  0.00    +0.000 OA
BRANCH  25  26
ATOM     26  C   UNL     1       0.203  11.187  21.022  0.00  0.00    +0.000 C 
BRANCH  26  27
ATOM     27  C   UNL     1      -0.807  11.447  22.120  0.00  0.00    +0.000 C 
ATOM     28  C   UNL     1      -0.930  10.352  23.143  0.00  0.00    +0.000 C 
ATOM     29  C   UNL     1      -0.907  12.875  22.630  0.00  0.00    +0.000 C 
ATOM     30  C   UNL     1      -2.028  12.294  21.818  0.00  0.00    +0.000 C 
ENDBRANCH  26  27
ENDBRANCH  25  26
ENDBRANCH  22  25
ENDBRANCH  11  21
TORSDOF 5
ENDMDL
MODEL 2
REMARK VINA RESULT:      -7.9      1.942      2.359
REMARK  Name = 
REMARK  8 active torsions:
REMARK  status: ('A' for Active; 'I' for Inactive)
REMARK    1  A    between atoms: C_1  and  C_2
REMARK    2  A    between atoms: C_7  and  C_8
REMARK    3  A    between atoms: C_7  and  C_9
REMARK    4  A    between atoms: C_17  and  N_18
REMARK    5  A    between atoms: C_19  and  O_21
REMARK    6  A    between atoms: O_21  and  C_22
REMARK    7  A    between atoms: C_22  and  C_23
REMARK    8  A    between atoms: C_23  and  C_24
REMARK                            x       y       z     vdW  Elec       q    Type
REMARK                         _______ _______ _______ _____ _____    ______ ____
ROOT
ATOM      1  C   UNL     1       7.320   4.664  16.516  0.00  0.00    +0.000 C 
ATOM      2  C   UNL     1       6.305   5.779  16.689  0.00  0.00    +0.000 C 
ATOM      3  O   UNL     1       6.661   6.920  16.392  0.00  0.00    +0.000 OA
ATOM      4  N   UNL     1       5.028   5.407  17.155  0.00  0.00    +0.000 N 
ATOM      5  C   UNL     1       4.738   4.001  17.473  0.00  0.00    +0.000 C 
ATOM      6  C   UNL     1       3.328   3.593  17.114  0.00  0.00    +0.000 C 
ATOM      7  C   UNL     1       2.281   4.437  17.854  0.00  0.00    +0.000 C 
ATOM      8  C   UNL     1       0.967   4.265  17.027  0.00  0.00    +0.000 C 
ATOM      9  C   UNL     1       2.689   5.916  17.814  0.00  0.00    +0.000 A 
ATOM     10  C   UNL     1       1.694   6.848  18.188  0.00  0.00    +0.000 A 
ATOM     11  C   UNL     1       1.892   8.219  18.141  0.00  0.00    +0.000 A 
ATOM     12  C   UNL     1       3.167   8.670  17.828  0.00  0.00    +0.000 A 
ATOM     13  C   UNL     1       4.190   7.756  17.499  0.00  0.00    +0.000 A 
ATOM     14  C   UNL     1       3.983   6.363  17.470  0.00  0.00    +0.000 A 
ENDROOT
BRANCH   7  15
ATOM     15  C   UNL     1       2.140   3.934  19.313  0.00  0.00    +0.000 A 
ATOM     16  C   UNL     1       1.494   2.711  19.600  0.00  0.00    +0.000 A 
ATOM     17  C   UNL     1       1.316   2.265  20.909  0.00  0.00    +0.000 A 
ATOM     18  C   UNL     1       1.787   3.028  21.971  0.00  0.00    +0.000 A 
ATOM     19  C   UNL     1       2.446   4.228  21.720  0.00  0.00    +0.000 A 
ATOM     20  C   UNL     1       2.620   4.676  20.405  0.00  0.00    +0.000 A 
ENDBRANCH   7  15
BRANCH  11  21
ATOM     21  N   UNL     1       0.838   9.128  18.371  0.00  0.00    +0.000 N 
ATOM     22  C   UNL     1       0.537   9.699  19.591  0.00  0.00    +0.000 C 
ATOM     23  O   UNL     1       1.165   9.581  20.634  0.00  0.00    +0.000 OA
ATOM     24  H   UNL     1       0.112   9.214  17.675  0.00  0.00    +0.000 HD
BRANCH  22  25
ATOM     25  O   UNL     1      -0.659  10.343  19.509  0.00  0.00    +0.000 OA
BRANCH  25  26
ATOM     26  C   UNL     1      -0.877  11.031  18.262  0.00  0.00    +0.000 C 
BRANCH  26  27
ATOM     27  C   UNL     1      -2.310  10.921  17.787  0.00  0.00    +0.000 C 
ATOM     28  C   UNL     1      -3.296  11.776  18.535  0.00  0.00    +0.000 C 
ATOM     29  C   UNL     1      -2.522  10.783  16.289  0.00  0.00    +0.000 C 
ATOM     30  C   UNL     1      -2.795   9.614  17.191  0.00  0.00    +0.000 C 
ENDBRANCH  26  27
ENDBRANCH  25  26
ENDBRANCH  22  25
ENDBRANCH  11  21
TORSDOF 5
ENDMDL
MODEL 3
REMARK VINA RESULT:      -7.7      1.197      1.484
REMARK  Name = 
REMARK  8 active torsions:
REMARK  status: ('A' for Active; 'I' for Inactive)
REMARK    1  A    between atoms: C_1  and  C_2
REMARK    2  A    between atoms: C_7  and  C_8
REMARK    3  A    between atoms: C_7  and  C_9
REMARK    4  A    between atoms: C_17  and  N_18
REMARK    5  A    between atoms: C_19  and  O_21
REMARK    6  A    between atoms: O_21  and  C_22
REMARK    7  A    between atoms: C_22  and  C_23
REMARK    8  A    between atoms: C_23  and  C_24
REMARK                            x       y       z     vdW  Elec       q    Type
REMARK                         _______ _______ _______ _____ _____    ______ ____
ROOT
ATOM      1  C   UNL     1       6.809   3.853  15.415  0.00  0.00    +0.000 C 
ATOM      2  C   UNL     1       6.012   5.061  15.872  0.00  0.00    +0.000 C 
ATOM      3  O   UNL     1       6.441   6.173  15.560  0.00  0.00    +0.000 OA
ATOM      4  N   UNL     1       4.832   4.804  16.597  0.00  0.00    +0.000 N 
ATOM      5  C   UNL     1       4.437   3.420  16.900  0.00  0.00    +0.000 C 
ATOM      6  C   UNL     1       2.942   3.209  16.852  0.00  0.00    +0.000 C 
ATOM      7  C   UNL     1       2.203   4.107  17.855  0.00  0.00    +0.000 C 
ATOM      8  C   UNL     1       0.728   4.155  17.343  0.00  0.00    +0.000 C 
ATOM      9  C   UNL     1       2.782   5.527  17.799  0.00  0.00    +0.000 A 
ATOM     10  C   UNL     1       2.025   6.535  18.437  0.00  0.00    +0.000 A 
ATOM     11  C   UNL     1       2.386   7.873  18.418  0.00  0.00    +0.000 A 
ATOM     12  C   UNL     1       3.609   8.197  17.844  0.00  0.00    +0.000 A 
ATOM     13  C   UNL     1       4.405   7.200  17.244  0.00  0.00    +0.000 A 
ATOM     14  C   UNL     1       4.017   5.847  17.191  0.00  0.00    +0.000 A 
ENDROOT
BRANCH   7  15
ATOM     15  C   UNL     1       2.322   3.509  19.280  0.00  0.00    +0.000 A 
ATOM     16  C   UNL     1       3.559   3.030  19.765  0.00  0.00    +0.000 A 
ATOM     17  C   UNL     1       3.675   2.446  21.027  0.00  0.00    +0.000 A 
ATOM     18  C   UNL     1       2.557   2.331  21.843  0.00  0.00    +0.000 A 
ATOM     19  C   UNL     1       1.328   2.813  21.401  0.00  0.00    +0.000 A 
ATOM     20  C   UNL     1       1.212   3.396  20.133  0.00  0.00    +0.000 A 
ENDBRANCH   7  15
BRANCH  11  21
ATOM     21  N   UNL     1       1.537   8.877  18.928  0.00  0.00    +0.000 N 
ATOM     22  C   UNL     1       1.116   8.965  20.239  0.00  0.00    +0.000 C 
ATOM     23  O   UNL     1       1.462   8.256  21.174  0.00  0.00    +0.000 OA
ATOM     24  H   UNL     1       1.016   9.448  18.279  0.00  0.00    +0.000 HD
BRANCH  22  25
ATOM     25  O   UNL     1       0.140   9.908  20.342  0.00  0.00    +0.000 OA
BRANCH  25  26
ATOM     26  C   UNL     1       0.404  11.116  19.601  0.00  0.00    +0.000 C 
BRANCH  26  27
ATOM     27  C   UNL     1      -0.820  11.618  18.863  0.00  0.00    +0.000 C 
ATOM     28  C   UNL     1      -1.631  10.552  18.179  0.00  0.00    +0.000 C 
ATOM     29  C   UNL     1      -1.590  12.753  19.515  0.00  0.00    +0.000 C 
ATOM     30  C   UNL     1      -0.803  13.010  18.263  0.00  0.00    +0.000 C 
ENDBRANCH  26  27
ENDBRANCH  25  26
ENDBRANCH  22  25
ENDBRANCH  11  21
TORSDOF 5
ENDMDL
MODEL 4
REMARK VINA RESULT:      -7.5      2.837      9.320
REMARK  Name = 
REMARK  8 active torsions:
REMARK  status: ('A' for Active; 'I' for Inactive)
REMARK    1  A    between atoms: C_1  and  C_2
REMARK    2  A    between atoms: C_7  and  C_8
REMARK    3  A    between atoms: C_7  and  C_9
REMARK    4  A    between atoms: C_17  and  N_18
REMARK    5  A    between atoms: C_19  and  O_21
REMARK    6  A    between atoms: O_21  and  C_22
REMARK    7  A    between atoms: C_22  and  C_23
REMARK    8  A    between atoms: C_23  and  C_24
REMARK                            x       y       z     vdW  Elec       q    Type
REMARK                         _______ _______ _______ _____ _____    ______ ____
ROOT
ATOM      1  C   UNL     1      -3.444  13.827  22.994  0.00  0.00    +0.000 C 
ATOM      2  C   UNL     1      -2.719  12.496  22.928  0.00  0.00    +0.000 C 
ATOM      3  O   UNL     1      -3.001  11.654  23.782  0.00  0.00    +0.000 OA
ATOM      4  N   UNL     1      -1.797  12.328  21.875  0.00  0.00    +0.000 N 
ATOM      5  C   UNL     1      -1.557  13.420  20.921  0.00  0.00    +0.000 C 
ATOM      6  C   UNL     1      -1.320  12.932  19.511  0.00  0.00    +0.000 C 
ATOM      7  C   UNL     1      -0.106  11.996  19.424  0.00  0.00    +0.000 C 
ATOM      8  C   UNL     1      -0.301  11.206  18.091  0.00  0.00    +0.000 C 
ATOM      9  C   UNL     1      -0.140  10.998  20.589  0.00  0.00    +0.000 A 
ATOM     10  C   UNL     1       0.734   9.892  20.488  0.00  0.00    +0.000 A 
ATOM     11  C   UNL     1       0.772   8.875  21.429  0.00  0.00    +0.000 A 
ATOM     12  C   UNL     1      -0.003   9.031  22.571  0.00  0.00    +0.000 A 
ATOM     13  C   UNL     1      -0.847  10.152  22.716  0.00  0.00    +0.000 A 
ATOM     14  C   UNL     1      -0.951  11.157  21.734  0.00  0.00    +0.000 A 
ENDROOT
BRANCH   7  15
ATOM     15  C   UNL     1       1.200  12.831  19.439  0.00  0.00    +0.000 A 
ATOM     16  C   UNL     1       1.820  13.187  20.657  0.00  0.00    +0.000 A 
ATOM     17  C   UNL     1       2.969  13.977  20.691  0.00  0.00    +0.000 A 
ATOM     18  C   UNL     1       3.536  14.428  19.506  0.00  0.00    +0.000 A 
ATOM     19  C   UNL     1       2.960  14.076  18.288  0.00  0.00    +0.000 A 
ATOM     20  C   UNL     1       1.804  13.287  18.256  0.00  0.00    +0.000 A 
ENDBRANCH   7  15
BRANCH  11  21
ATOM     21  N   UNL     1       1.540   7.709  21.229  0.00  0.00    +0.000 N 
ATOM     22  C   UNL     1       2.073   7.310  20.020  0.00  0.00    +0.000 C 
ATOM     23  O   UNL     1       2.040   7.924  18.963  0.00  0.00    +0.000 OA
ATOM     24  H   UNL     1       1.530   6.995  21.942  0.00  0.00    +0.000 HD
BRANCH  22  25
ATOM     25  O   UNL     1       2.559   6.044  20.133  0.00  0.00    +0.000 OA
BRANCH  25  26
ATOM     26  C   UNL     1       1.716   5.151  20.885  0.00  0.00    +0.000 C 
BRANCH  26  27
ATOM     27  C   UNL     1       1.942   3.699  20.518  0.00  0.00    +0.000 C 
ATOM     28  C   UNL     1       2.347   2.810  21.662  0.00  0.00    +0.000 C 
ATOM     29  C   UNL     1       1.000   3.103  19.487  0.00  0.00    +0.000 C 
ATOM     30  C   UNL     1       2.436   3.355  19.126  0.00  0.00    +0.000 C 
ENDBRANCH  26  27
ENDBRANCH  25  26
ENDBRANCH  22  25
ENDBRANCH  11  21
TORSDOF 5
ENDMDL
MODEL 5
REMARK VINA RESULT:      -7.5      0.433      1.188
REMARK  Name = 
REMARK  8 active torsions:
REMARK  status: ('A' for Active; 'I' for Inactive)
REMARK    1  A    between atoms: C_1  and  C_2
REMARK    2  A    between atoms: C_7  and  C_8
REMARK    3  A    between atoms: C_7  and  C_9
REMARK    4  A    between atoms: C_17  and  N_18
REMARK    5  A    between atoms: C_19  and  O_21
REMARK    6  A    between atoms: O_21  and  C_22
REMARK    7  A    between atoms: C_22  and  C_23
REMARK    8  A    between atoms: C_23  and  C_24
REMARK                            x       y       z     vdW  Elec       q    Type
REMARK                         _______ _______ _______ _____ _____    ______ ____
ROOT
ATOM      1  C   UNL     1       7.145   4.185  15.836  0.00  0.00    +0.000 C 
ATOM      2  C   UNL     1       6.235   5.336  16.222  0.00  0.00    +0.000 C 
ATOM      3  O   UNL     1       6.622   6.476  15.960  0.00  0.00    +0.000 OA
ATOM      4  N   UNL     1       5.009   4.999  16.830  0.00  0.00    +0.000 N 
ATOM      5  C   UNL     1       4.673   3.591  17.085  0.00  0.00    +0.000 C 
ATOM      6  C   UNL     1       3.206   3.289  16.893  0.00  0.00    +0.000 C 
ATOM      7  C   UNL     1       2.321   4.129  17.825  0.00  0.00    +0.000 C 
ATOM      8  C   UNL     1       0.901   4.093  17.174  0.00  0.00    +0.000 C 
ATOM      9  C   UNL     1       2.814   5.582  17.833  0.00  0.00    +0.000 A 
ATOM     10  C   UNL     1       1.938   6.535  18.402  0.00  0.00    +0.000 A 
ATOM     11  C   UNL     1       2.216   7.892  18.425  0.00  0.00    +0.000 A 
ATOM     12  C   UNL     1       3.466   8.297  17.974  0.00  0.00    +0.000 A 
ATOM     13  C   UNL     1       4.376   7.357  17.447  0.00  0.00    +0.000 A 
ATOM     14  C   UNL     1       4.078   5.984  17.349  0.00  0.00    +0.000 A 
ENDROOT
BRANCH   7  15
ATOM     15  C   UNL     1       2.340   3.522  19.252  0.00  0.00    +0.000 A 
ATOM     16  C   UNL     1       1.183   3.536  20.061  0.00  0.00    +0.000 A 
ATOM     17  C   UNL     1       1.194   3.037  21.364  0.00  0.00    +0.000 A 
ATOM     18  C   UNL     1       2.363   2.503  21.892  0.00  0.00    +0.000 A 
ATOM     19  C   UNL     1       3.515   2.457  21.111  0.00  0.00    +0.000 A 
ATOM     20  C   UNL     1       3.503   2.961  19.805  0.00  0.00    +0.000 A 
ENDBRANCH   7  15
BRANCH  11  21
ATOM     21  N   UNL     1       1.262   8.836  18.859  0.00  0.00    +0.000 N 
ATOM     22  C   UNL     1       0.985   9.134  20.177  0.00  0.00    +0.000 C 
ATOM     23  O   UNL     1       1.561   8.702  21.166  0.00  0.00    +0.000 OA
ATOM     24  H   UNL     1       0.574   9.168  18.198  0.00  0.00    +0.000 HD
BRANCH  22  25
ATOM     25  O   UNL     1      -0.129   9.913  20.244  0.00  0.00    +0.000 OA
BRANCH  25  26
ATOM     26  C   UNL     1      -0.515  10.279  21.583  0.00  0.00    +0.000 C 
BRANCH  26  27
ATOM     27  C   UNL     1      -0.678  11.775  21.747  0.00  0.00    +0.000 C 
ATOM     28  C   UNL     1       0.361  12.608  21.048  0.00  0.00    +0.000 C 
ATOM     29  C   UNL     1      -2.100  12.310  21.744  0.00  0.00    +0.000 C 
ATOM     30  C   UNL     1      -1.304  12.317  23.017  0.00  0.00    +0.000 C 
ENDBRANCH  26  27
ENDBRANCH  25  26
ENDBRANCH  22  25
ENDBRANCH  11  21
TORSDOF 5
ENDMDL
MODEL 6
REMARK VINA RESULT:      -7.5      2.011      2.365
REMARK  Name = 
REMARK  8 active torsions:
REMARK  status: ('A' for Active; 'I' for Inactive)
REMARK    1  A    between atoms: C_1  and  C_2
REMARK    2  A    between atoms: C_7  and  C_8
REMARK    3  A    between atoms: C_7  and  C_9
REMARK    4  A    between atoms: C_17  and  N_18
REMARK    5  A    between atoms: C_19  and  O_21
REMARK    6  A    between atoms: O_21  and  C_22
REMARK    7  A    between atoms: C_22  and  C_23
REMARK    8  A    between atoms: C_23  and  C_24
REMARK                            x       y       z     vdW  Elec       q    Type
REMARK                         _______ _______ _______ _____ _____    ______ ____
ROOT
ATOM      1  C   UNL     1       7.482   4.497  16.773  0.00  0.00    +0.000 C 
ATOM      2  C   UNL     1       6.465   5.621  16.827  0.00  0.00    +0.000 C 
ATOM      3  O   UNL     1       6.842   6.743  16.487  0.00  0.00    +0.000 OA
ATOM      4  N   UNL     1       5.162   5.277  17.241  0.00  0.00    +0.000 N 
ATOM      5  C   UNL     1       4.848   3.892  17.619  0.00  0.00    +0.000 C 
ATOM      6  C   UNL     1       3.458   3.467  17.205  0.00  0.00    +0.000 C 
ATOM      7  C   UNL     1       2.375   4.353  17.837  0.00  0.00    +0.000 C 
ATOM      8  C   UNL     1       1.108   4.137  16.949  0.00  0.00    +0.000 C 
ATOM      9  C   UNL     1       2.792   5.826  17.738  0.00  0.00    +0.000 A 
ATOM     10  C   UNL     1       1.782   6.779  18.003  0.00  0.00    +0.000 A 
ATOM     11  C   UNL     1       1.988   8.145  17.892  0.00  0.00    +0.000 A 
ATOM     12  C   UNL     1       3.281   8.576  17.626  0.00  0.00    +0.000 A 
ATOM     13  C   UNL     1       4.317   7.644  17.406  0.00  0.00    +0.000 A 
ATOM     14  C   UNL     1       4.105   6.252  17.443  0.00  0.00    +0.000 A 
ENDROOT
BRANCH   7  15
ATOM     15  C   UNL     1       2.150   3.932  19.312  0.00  0.00    +0.000 A 
ATOM     16  C   UNL     1       2.766   4.637  20.370  0.00  0.00    +0.000 A 
ATOM     17  C   UNL     1       2.612   4.244  21.699  0.00  0.00    +0.000 A 
ATOM     18  C   UNL     1       1.832   3.137  22.010  0.00  0.00    +0.000 A 
ATOM     19  C   UNL     1       1.196   2.434  20.991  0.00  0.00    +0.000 A 
ATOM     20  C   UNL     1       1.354   2.827  19.656  0.00  0.00    +0.000 A 
ENDBRANCH   7  15
BRANCH  11  21
ATOM     21  N   UNL     1       0.927   9.067  18.012  0.00  0.00    +0.000 N 
ATOM     22  C   UNL     1       0.478   9.607  19.199  0.00  0.00    +0.000 C 
ATOM     23  O   UNL     1       0.962   9.446  20.311  0.00  0.00    +0.000 OA
ATOM     24  H   UNL     1       0.301   9.188  17.230  0.00  0.00    +0.000 HD
BRANCH  22  25
ATOM     25  O   UNL     1      -0.687  10.276  18.983  0.00  0.00    +0.000 OA
BRANCH  25  26
ATOM     26  C   UNL     1      -1.407   9.848  17.812  0.00  0.00    +0.000 C 
BRANCH  26  27
ATOM     27  C   UNL     1      -2.476  10.838  17.398  0.00  0.00    +0.000 C 
ATOM     28  C   UNL     1      -2.622  11.033  15.914  0.00  0.00    +0.000 C 
ATOM     29  C   UNL     1      -3.754  10.843  18.219  0.00  0.00    +0.000 C 
ATOM     30  C   UNL     1      -2.803  12.000  18.315  0.00  0.00    +0.000 C 
ENDBRANCH  26  27
ENDBRANCH  25  26
ENDBRANCH  22  25
ENDBRANCH  11  21
TORSDOF 5
ENDMDL
MODEL 7
REMARK VINA RESULT:      -7.4      3.347      8.495
REMARK  Name = 
REMARK  8 active torsions:
REMARK  status: ('A' for Active; 'I' for Inactive)
REMARK    1  A    between atoms: C_1  and  C_2
REMARK    2  A    between atoms: C_7  and  C_8
REMARK    3  A    between atoms: C_7  and  C_9
REMARK    4  A    between atoms: C_17  and  N_18
REMARK    5  A    between atoms: C_19  and  O_21
REMARK    6  A    between atoms: O_21  and  C_22
REMARK    7  A    between atoms: C_22  and  C_23
REMARK    8  A    between atoms: C_23  and  C_24
REMARK                            x       y       z     vdW  Elec       q    Type
REMARK                         _______ _______ _______ _____ _____    ______ ____
ROOT
ATOM      1  C   UNL     1       1.410  16.089  18.806  0.00  0.00    +0.000 C 
ATOM      2  C   UNL     1       1.921  14.675  18.607  0.00  0.00    +0.000 C 
ATOM      3  O   UNL     1       3.110  14.538  18.317  0.00  0.00    +0.000 OA
ATOM      4  N   UNL     1       0.991  13.633  18.795  0.00  0.00    +0.000 N 
ATOM      5  C   UNL     1      -0.405  13.941  19.142  0.00  0.00    +0.000 C 
ATOM      6  C   UNL     1      -1.010  12.941  20.099  0.00  0.00    +0.000 C 
ATOM      7  C   UNL     1      -1.003  11.518  19.523  0.00  0.00    +0.000 C 
ATOM      8  C   UNL     1      -1.161  10.581  20.762  0.00  0.00    +0.000 C 
ATOM      9  C   UNL     1       0.355  11.233  18.869  0.00  0.00    +0.000 A 
ATOM     10  C   UNL     1       0.627   9.882  18.557  0.00  0.00    +0.000 A 
ATOM     11  C   UNL     1       1.834   9.460  18.023  0.00  0.00    +0.000 A 
ATOM     12  C   UNL     1       2.755  10.439  17.675  0.00  0.00    +0.000 A 
ATOM     13  C   UNL     1       2.486  11.800  17.931  0.00  0.00    +0.000 A 
ATOM     14  C   UNL     1       1.294  12.236  18.542  0.00  0.00    +0.000 A 
ENDROOT
BRANCH   7  15
ATOM     15  C   UNL     1      -2.160  11.361  18.503  0.00  0.00    +0.000 A 
ATOM     16  C   UNL     1      -1.931  10.802  17.227  0.00  0.00    +0.000 A 
ATOM     17  C   UNL     1      -2.950  10.695  16.280  0.00  0.00    +0.000 A 
ATOM     18  C   UNL     1      -4.230  11.140  16.585  0.00  0.00    +0.000 A 
ATOM     19  C   UNL     1      -4.491  11.677  17.843  0.00  0.00    +0.000 A 
ATOM     20  C   UNL     1      -3.467  11.787  18.791  0.00  0.00    +0.000 A 
ENDBRANCH   7  15
BRANCH  11  21
ATOM     21  N   UNL     1       2.136   8.092  17.864  0.00  0.00    +0.000 N 
ATOM     22  C   UNL     1       2.377   7.209  18.897  0.00  0.00    +0.000 C 
ATOM     23  O   UNL     1       2.290   7.438  20.096  0.00  0.00    +0.000 OA
ATOM     24  H   UNL     1       2.416   7.760  16.953  0.00  0.00    +0.000 HD
BRANCH  22  25
ATOM     25  O   UNL     1       2.851   6.037  18.394  0.00  0.00    +0.000 OA
BRANCH  25  26
ATOM     26  C   UNL     1       1.843   5.027  18.194  0.00  0.00    +0.000 C 
BRANCH  26  27
ATOM     27  C   UNL     1       1.956   3.895  19.193  0.00  0.00    +0.000 C 
ATOM     28  C   UNL     1       3.361   3.452  19.496  0.00  0.00    +0.000 C 
ATOM     29  C   UNL     1       0.977   3.912  20.355  0.00  0.00    +0.000 C 
ATOM     30  C   UNL     1       0.841   2.872  19.282  0.00  0.00    +0.000 C 
ENDBRANCH  26  27
ENDBRANCH  25  26
ENDBRANCH  22  25
ENDBRANCH  11  21
TORSDOF 5
ENDMDL
MODEL 8
REMARK VINA RESULT:      -7.3      1.346      1.692
REMARK  Name = 
REMARK  8 active torsions:
REMARK  status: ('A' for Active; 'I' for Inactive)
REMARK    1  A    between atoms: C_1  and  C_2
REMARK    2  A    between atoms: C_7  and  C_8
REMARK    3  A    between atoms: C_7  and  C_9
REMARK    4  A    between atoms: C_17  and  N_18
REMARK    5  A    between atoms: C_19  and  O_21
REMARK    6  A    between atoms: O_21  and  C_22
REMARK    7  A    between atoms: C_22  and  C_23
REMARK    8  A    between atoms: C_23  and  C_24
REMARK                            x       y       z     vdW  Elec       q    Type
REMARK                         _______ _______ _______ _____ _____    ______ ____
ROOT
ATOM      1  C   UNL     1       7.393   4.504  16.528  0.00  0.00    +0.000 C 
ATOM      2  C   UNL     1       6.401   5.640  16.684  0.00  0.00    +0.000 C 
ATOM      3  O   UNL     1       6.780   6.770  16.373  0.00  0.00    +0.000 OA
ATOM      4  N   UNL     1       5.116   5.300  17.151  0.00  0.00    +0.000 N 
ATOM      5  C   UNL     1       4.796   3.904  17.486  0.00  0.00    +0.000 C 
ATOM      6  C   UNL     1       3.380   3.520  17.128  0.00  0.00    +0.000 C 
ATOM      7  C   UNL     1       2.348   4.394  17.854  0.00  0.00    +0.000 C 
ATOM      8  C   UNL     1       1.032   4.236  17.026  0.00  0.00    +0.000 C 
ATOM      9  C   UNL     1       2.785   5.863  17.797  0.00  0.00    +0.000 A 
ATOM     10  C   UNL     1       1.807   6.819  18.155  0.00  0.00    +0.000 A 
ATOM     11  C   UNL     1       2.032   8.185  18.092  0.00  0.00    +0.000 A 
ATOM     12  C   UNL     1       3.317   8.607  17.776  0.00  0.00    +0.000 A 
ATOM     13  C   UNL     1       4.323   7.669  17.463  0.00  0.00    +0.000 A 
ATOM     14  C   UNL     1       4.089   6.281  17.451  0.00  0.00    +0.000 A 
ENDROOT
BRANCH   7  15
ATOM     15  C   UNL     1       2.193   3.912  19.320  0.00  0.00    +0.000 A 
ATOM     16  C   UNL     1       1.551   2.690  19.618  0.00  0.00    +0.000 A 
ATOM     17  C   UNL     1       1.361   2.263  20.932  0.00  0.00    +0.000 A 
ATOM     18  C   UNL     1       1.814   3.045  21.987  0.00  0.00    +0.000 A 
ATOM     19  C   UNL     1       2.469   4.245  21.725  0.00  0.00    +0.000 A 
ATOM     20  C   UNL     1       2.655   4.674  20.405  0.00  0.00    +0.000 A 
ENDBRANCH   7  15
BRANCH  11  21
ATOM     21  N   UNL     1       0.996   9.117  18.307  0.00  0.00    +0.000 N 
ATOM     22  C   UNL     1       0.574   9.561  19.544  0.00  0.00    +0.000 C 
ATOM     23  O   UNL     1       1.067   9.290  20.630  0.00  0.00    +0.000 OA
ATOM     24  H   UNL     1       0.363   9.322  17.548  0.00  0.00    +0.000 HD
BRANCH  22  25
ATOM     25  O   UNL     1      -0.577  10.274  19.404  0.00  0.00    +0.000 OA
BRANCH  25  26
ATOM     26  C   UNL     1      -0.451  11.441  18.569  0.00  0.00    +0.000 C 
BRANCH  26  27
ATOM     27  C   UNL     1      -0.354  12.719  19.375  0.00  0.00    +0.000 C 
ATOM     28  C   UNL     1      -1.097  12.703  20.683  0.00  0.00    +0.000 C 
ATOM     29  C   UNL     1       0.984  13.436  19.356  0.00  0.00    +0.000 C 
ATOM     30  C   UNL     1      -0.195  14.041  18.651  0.00  0.00    +0.000 C 
ENDBRANCH  26  27
ENDBRANCH  25  26
ENDBRANCH  22  25
ENDBRANCH  11  21
TORSDOF 5
ENDMDL
MODEL 9
REMARK VINA RESULT:      -7.3      0.942      1.430
REMARK  Name = 
REMARK  8 active torsions:
REMARK  status: ('A' for Active; 'I' for Inactive)
REMARK    1  A    between atoms: C_1  and  C_2
REMARK    2  A    between atoms: C_7  and  C_8
REMARK    3  A    between atoms: C_7  and  C_9
REMARK    4  A    between atoms: C_17  and  N_18
REMARK    5  A    between atoms: C_19  and  O_21
REMARK    6  A    between atoms: O_21  and  C_22
REMARK    7  A    between atoms: C_22  and  C_23
REMARK    8  A    between atoms: C_23  and  C_24
REMARK                            x       y       z     vdW  Elec       q    Type
REMARK                         _______ _______ _______ _____ _____    ______ ____
ROOT
ATOM      1  C   UNL     1       6.598   3.921  15.105  0.00  0.00    +0.000 C 
ATOM      2  C   UNL     1       5.843   5.100  15.689  0.00  0.00    +0.000 C 
ATOM      3  O   UNL     1       6.240   6.228  15.395  0.00  0.00    +0.000 OA
ATOM      4  N   UNL     1       4.733   4.801  16.505  0.00  0.00    +0.000 N 
ATOM      5  C   UNL     1       4.369   3.402  16.774  0.00  0.00    +0.000 C 
ATOM      6  C   UNL     1       2.876   3.184  16.850  0.00  0.00    +0.000 C 
ATOM      7  C   UNL     1       2.229   4.029  17.956  0.00  0.00    +0.000 C 
ATOM      8  C   UNL     1       0.714   4.092  17.581  0.00  0.00    +0.000 C 
ATOM      9  C   UNL     1       2.798   5.453  17.918  0.00  0.00    +0.000 A 
ATOM     10  C   UNL     1       2.099   6.425  18.669  0.00  0.00    +0.000 A 
ATOM     11  C   UNL     1       2.455   7.764  18.682  0.00  0.00    +0.000 A 
ATOM     12  C   UNL     1       3.621   8.123  18.019  0.00  0.00    +0.000 A 
ATOM     13  C   UNL     1       4.362   7.160  17.302  0.00  0.00    +0.000 A 
ATOM     14  C   UNL     1       3.973   5.809  17.219  0.00  0.00    +0.000 A 
ENDROOT
BRANCH   7  15
ATOM     15  C   UNL     1       2.476   3.364  19.334  0.00  0.00    +0.000 A 
ATOM     16  C   UNL     1       3.745   2.845  19.673  0.00  0.00    +0.000 A 
ATOM     17  C   UNL     1       3.973   2.202  20.889  0.00  0.00    +0.000 A 
ATOM     18  C   UNL     1       2.939   2.065  21.806  0.00  0.00    +0.000 A 
ATOM     19  C   UNL     1       1.681   2.584  21.510  0.00  0.00    +0.000 A 
ATOM     20  C   UNL     1       1.453   3.226  20.287  0.00  0.00    +0.000 A 
ENDBRANCH   7  15
BRANCH  11  21
ATOM     21  N   UNL     1       1.653   8.737  19.315  0.00  0.00    +0.000 N 
ATOM     22  C   UNL     1       0.818   9.621  18.663  0.00  0.00    +0.000 C 
ATOM     23  O   UNL     1       0.576   9.657  17.465  0.00  0.00    +0.000 OA
ATOM     24  H   UNL     1       1.845   8.971  20.278  0.00  0.00    +0.000 HD
BRANCH  22  25
ATOM     25  O   UNL     1       0.370  10.558  19.542  0.00  0.00    +0.000 OA
BRANCH  25  26
ATOM     26  C   UNL     1      -0.664  10.089  20.430  0.00  0.00    +0.000 C 
BRANCH  26  27
ATOM     27  C   UNL     1      -0.344  10.368  21.884  0.00  0.00    +0.000 C 
ATOM     28  C   UNL     1      -0.721  11.743  22.365  0.00  0.00    +0.000 C 
ATOM     29  C   UNL     1      -0.549   9.221  22.858  0.00  0.00    +0.000 C 
ATOM     30  C   UNL     1       0.842   9.678  22.528  0.00  0.00    +0.000 C 
ENDBRANCH  26  27
ENDBRANCH  25  26
ENDBRANCH  22  25
ENDBRANCH  11  21
TORSDOF 5
ENDMDL
