MODEL 1
REMARK VINA RESULT:      -8.3      0.000      0.000
REMARK  Name = 
REMARK  6 active torsions:
REMARK  status: ('A' for Active; 'I' for Inactive)
REMARK    1  A    between atoms: C_2  and  C_10
REMARK    2  A    between atoms: N_3  and  C_4
REMARK    3  A    between atoms: C_4  and  C_5
REMARK    4  A    between atoms: N_13  and  S_14
REMARK    5  A    between atoms: S_14  and  C_17
REMARK    6  A    between atoms: C_17  and  C_18
REMARK                            x       y       z     vdW  Elec       q    Type
REMARK                         _______ _______ _______ _____ _____    ______ ____
ROOT
ATOM      1  C   UNL     1       7.840   5.759  18.577  0.00  0.00    +0.000 C 
ATOM      2  C   UNL     1       7.877   4.579  17.599  0.00  0.00    +0.000 C 
ATOM      3  C   UNL     1       6.533   4.381  16.896  0.00  0.00    +0.000 C 
ATOM      4  N   UNL     1       5.422   4.212  17.884  0.00  0.00    +0.000 NA
ATOM      5  C   UNL     1       5.374   5.334  18.879  0.00  0.00    +0.000 C 
ATOM      6  C   UNL     1       6.716   5.505  19.581  0.00  0.00    +0.000 C 
ENDROOT
BRANCH   1   8
ATOM      7  O   UNL     1       7.126   7.179  16.746  0.00  0.00    +0.000 OA
ATOM      8  C   UNL     1       7.693   7.089  17.831  0.00  0.00    +0.000 C 
ATOM      9  N   UNL     1       8.281   8.166  18.445  0.00  0.00    +0.000 N 
ATOM     10  H   UNL     1       8.884   8.041  19.249  0.00  0.00    +0.000 HD
BRANCH   9  11
ATOM     11  C   UNL     1       8.217   9.514  17.895  0.00  0.00    +0.000 C 
BRANCH  11  12
ATOM     12  C   UNL     1       9.341  10.411  18.418  0.00  0.00    +0.000 C 
ATOM     13  C   UNL     1       9.413  10.521  19.934  0.00  0.00    +0.000 C 
ATOM     14  C   UNL     1       9.977  11.905  20.133  0.00  0.00    +0.000 C 
ATOM     15  C   UNL     1       9.372  12.677  18.981  0.00  0.00    +0.000 C 
ATOM     16  O   UNL     1       9.167  11.750  17.908  0.00  0.00    +0.000 OA
ENDBRANCH  11  12
ENDBRANCH   9  11
ENDBRANCH   1   8
BRANCH   4  17
ATOM     17  S   UNL     1       3.861   4.021  17.140  0.00  0.00    +0.000 S 
ATOM     18  O   UNL     1       3.008   5.038  17.722  0.00  0.00    +0.000 OA
ATOM     19  O   UNL     1       4.096   3.972  15.711  0.00  0.00    +0.000 OA
BRANCH  17  20
ATOM     20  C   UNL     1       3.331   2.401  17.732  0.00  0.00    +0.000 C 
BRANCH  20  21
ATOM     21  C   UNL     1       2.623   2.586  19.052  0.00  0.00    +0.000 A 
ATOM     22  C   UNL     1       1.243   2.840  19.090  0.00  0.00    +0.000 A 
ATOM     23  C   UNL     1       0.596   3.053  20.308  0.00  0.00    +0.000 A 
ATOM     24  C   UNL     1       1.319   3.012  21.498  0.00  0.00    +0.000 A 
ATOM     25  C   UNL     1       2.689   2.758  21.472  0.00  0.00    +0.000 A 
ATOM     26  C   UNL     1       3.340   2.547  20.253  0.00  0.00    +0.000 A 
ENDBRANCH  20  21
ENDBRANCH  17  20
ENDBRANCH   4  17
TORSDOF 6
ENDMDL
MODEL 2
REMARK VINA RESULT:      -7.6      0.981      1.397
REMARK  Name = 
REMARK  6 active torsions:
REMARK  status: ('A' for Active; 'I' for Inactive)
REMARK    1  A    between atoms: C_2  and  C_10
REMARK    2  A    between atoms: N_3  and  C_4
REMARK    3  A    between atoms: C_4  and  C_5
REMARK    4  A    between atoms: N_13  and  S_14
REMARK    5  A    between atoms: S_14  and  C_17
REMARK    6  A    between atoms: C_17  and  C_18
REMARK                            x       y       z     vdW  Elec       q    Type
REMARK                         _______ _______ _______ _____ _____    ______ ____
ROOT
ATOM      1  C   UNL     1       8.008   5.839  18.774  0.00  0.00    +0.000 C 
ATOM      2  C   UNL     1       8.126   4.658  17.804  0.00  0.00    +0.000 C 
ATOM      3  C   UNL     1       6.832   4.432  17.022  0.00  0.00    +0.000 C 
ATOM      4  N   UNL     1       5.666   4.245  17.941  0.00  0.00    +0.000 NA
ATOM      5  C   UNL     1       5.536   5.369  18.927  0.00  0.00    +0.000 C 
ATOM      6  C   UNL     1       6.830   5.567  19.709  0.00  0.00    +0.000 C 
ENDROOT
BRANCH   1   8
ATOM      7  O   UNL     1       7.348   7.247  16.913  0.00  0.00    +0.000 OA
ATOM      8  C   UNL     1       7.881   7.164  18.015  0.00  0.00    +0.000 C 
ATOM      9  N   UNL     1       8.450   8.247  18.640  0.00  0.00    +0.000 N 
ATOM     10  H   UNL     1       9.029   8.127  19.462  0.00  0.00    +0.000 HD
BRANCH   9  11
ATOM     11  C   UNL     1       8.401   9.590  18.079  0.00  0.00    +0.000 C 
BRANCH  11  12
ATOM     12  C   UNL     1       9.453  10.516  18.693  0.00  0.00    +0.000 C 
ATOM     13  C   UNL     1       9.405  10.617  20.210  0.00  0.00    +0.000 C 
ATOM     14  C   UNL     1       9.909  12.016  20.459  0.00  0.00    +0.000 C 
ATOM     15  C   UNL     1       9.373  12.778  19.268  0.00  0.00    +0.000 C 
ATOM     16  O   UNL     1       9.280  11.853  18.177  0.00  0.00    +0.000 OA
ENDBRANCH  11  12
ENDBRANCH   9  11
ENDBRANCH   1   8
BRANCH   4  17
ATOM     17  S   UNL     1       4.157   4.023  17.104  0.00  0.00    +0.000 S 
ATOM     18  O   UNL     1       4.369   4.498  15.751  0.00  0.00    +0.000 OA
ATOM     19  O   UNL     1       3.749   2.656  17.359  0.00  0.00    +0.000 OA
BRANCH  17  20
ATOM     20  C   UNL     1       3.052   5.165  17.960  0.00  0.00    +0.000 C 
BRANCH  20  21
ATOM     21  C   UNL     1       2.326   4.402  19.040  0.00  0.00    +0.000 A 
ATOM     22  C   UNL     1       2.715   4.528  20.384  0.00  0.00    +0.000 A 
ATOM     23  C   UNL     1       2.070   3.790  21.378  0.00  0.00    +0.000 A 
ATOM     24  C   UNL     1       1.031   2.925  21.041  0.00  0.00    +0.000 A 
ATOM     25  C   UNL     1       0.636   2.795  19.712  0.00  0.00    +0.000 A 
ATOM     26  C   UNL     1       1.282   3.530  18.713  0.00  0.00    +0.000 A 
ENDBRANCH  20  21
ENDBRANCH  17  20
ENDBRANCH   4  17
TORSDOF 6
ENDMDL
MODEL 3
REMARK VINA RESULT:      -7.4      1.077      1.191
REMARK  Name = 
REMARK  6 active torsions:
REMARK  status: ('A' for Active; 'I' for Inactive)
REMARK    1  A    between atoms: C_2  and  C_10
REMARK    2  A    between atoms: N_3  and  C_4
REMARK    3  A    between atoms: C_4  and  C_5
REMARK    4  A    between atoms: N_13  and  S_14
REMARK    5  A    between atoms: S_14  and  C_17
REMARK    6  A    between atoms: C_17  and  C_18
REMARK                            x       y       z     vdW  Elec       q    Type
REMARK                         _______ _______ _______ _____ _____    ______ ____
ROOT
ATOM      1  C   UNL     1       8.020   5.841  18.855  0.00  0.00    +0.000 C 
ATOM      2  C   UNL     1       8.149   4.677  17.866  0.00  0.00    +0.000 C 
ATOM      3  C   UNL     1       6.880   4.496  17.032  0.00  0.00    +0.000 C 
ATOM      4  N   UNL     1       5.678   4.314  17.904  0.00  0.00    +0.000 NA
ATOM      5  C   UNL     1       5.534   5.420  18.909  0.00  0.00    +0.000 C 
ATOM      6  C   UNL     1       6.802   5.574  19.741  0.00  0.00    +0.000 C 
ENDROOT
BRANCH   1   8
ATOM      7  O   UNL     1       7.439   7.304  17.011  0.00  0.00    +0.000 OA
ATOM      8  C   UNL     1       7.948   7.184  18.121  0.00  0.00    +0.000 C 
ATOM      9  N   UNL     1       8.537   8.236  18.778  0.00  0.00    +0.000 N 
ATOM     10  H   UNL     1       9.095   8.083  19.609  0.00  0.00    +0.000 HD
BRANCH   9  11
ATOM     11  C   UNL     1       8.539   9.591  18.244  0.00  0.00    +0.000 C 
BRANCH  11  12
ATOM     12  C   UNL     1       9.695  10.430  18.791  0.00  0.00    +0.000 C 
ATOM     13  C   UNL     1       9.313  11.390  19.908  0.00  0.00    +0.000 C 
ATOM     14  C   UNL     1      10.294  12.518  19.718  0.00  0.00    +0.000 C 
ATOM     15  C   UNL     1      10.467  12.559  18.216  0.00  0.00    +0.000 C 
ATOM     16  O   UNL     1      10.260  11.227  17.728  0.00  0.00    +0.000 OA
ENDBRANCH  11  12
ENDBRANCH   9  11
ENDBRANCH   1   8
BRANCH   4  17
ATOM     17  S   UNL     1       4.196   4.142  17.008  0.00  0.00    +0.000 S 
ATOM     18  O   UNL     1       4.448   4.701  15.695  0.00  0.00    +0.000 OA
ATOM     19  O   UNL     1       3.786   2.760  17.164  0.00  0.00    +0.000 OA
BRANCH  17  20
ATOM     20  C   UNL     1       3.061   5.225  17.900  0.00  0.00    +0.000 C 
BRANCH  20  21
ATOM     21  C   UNL     1       2.381   4.416  18.977  0.00  0.00    +0.000 A 
ATOM     22  C   UNL     1       1.350   3.520  18.650  0.00  0.00    +0.000 A 
ATOM     23  C   UNL     1       0.693   2.803  19.651  0.00  0.00    +0.000 A 
ATOM     24  C   UNL     1       1.059   2.971  20.984  0.00  0.00    +0.000 A 
ATOM     25  C   UNL     1       2.083   3.855  21.319  0.00  0.00    +0.000 A 
ATOM     26  C   UNL     1       2.741   4.577  20.320  0.00  0.00    +0.000 A 
ENDBRANCH  20  21
ENDBRANCH  17  20
ENDBRANCH   4  17
TORSDOF 6
ENDMDL
MODEL 4
REMARK VINA RESULT:      -7.3      4.028      6.880
REMARK  Name = 
REMARK  6 active torsions:
REMARK  status: ('A' for Active; 'I' for Inactive)
REMARK    1  A    between atoms: C_2  and  C_10
REMARK    2  A    between atoms: N_3  and  C_4
REMARK    3  A    between atoms: C_4  and  C_5
REMARK    4  A    between atoms: N_13  and  S_14
REMARK    5  A    between atoms: S_14  and  C_17
REMARK    6  A    between atoms: C_17  and  C_18
REMARK                            x       y       z     vdW  Elec       q    Type
REMARK                         _______ _______ _______ _____ _____    ______ ____
ROOT
ATOM      1  C   UNL     1       2.592   3.030  19.235  0.00  0.00    +0.000 C 
ATOM      2  C   UNL     1       4.062   2.601  19.293  0.00  0.00    +0.000 C 
ATOM      3  C   UNL     1       5.002   3.729  18.865  0.00  0.00    +0.000 C 
ATOM      4  N   UNL     1       4.656   4.237  17.501  0.00  0.00    +0.000 NA
ATOM      5  C   UNL     1       3.214   4.639  17.396  0.00  0.00    +0.000 C 
ATOM      6  C   UNL     1       2.293   3.497  17.810  0.00  0.00    +0.000 C 
ENDROOT
BRANCH   1   8
ATOM      7  O   UNL     1       2.305   3.854  21.497  0.00  0.00    +0.000 OA
ATOM      8  C   UNL     1       2.286   4.094  20.294  0.00  0.00    +0.000 C 
ATOM      9  N   UNL     1       1.944   5.327  19.796  0.00  0.00    +0.000 N 
ATOM     10  H   UNL     1       1.771   5.458  18.806  0.00  0.00    +0.000 HD
BRANCH   9  11
ATOM     11  C   UNL     1       1.648   6.465  20.655  0.00  0.00    +0.000 C 
BRANCH  11  12
ATOM     12  C   UNL     1       2.070   7.795  20.026  0.00  0.00    +0.000 C 
ATOM     13  C   UNL     1       1.015   8.889  20.082  0.00  0.00    +0.000 C 
ATOM     14  C   UNL     1       1.316   9.696  18.844  0.00  0.00    +0.000 C 
ATOM     15  C   UNL     1       1.785   8.641  17.868  0.00  0.00    +0.000 C 
ATOM     16  O   UNL     1       2.389   7.590  18.633  0.00  0.00    +0.000 OA
ENDBRANCH  11  12
ENDBRANCH   9  11
ENDBRANCH   1   8
BRANCH   4  17
ATOM     17  S   UNL     1       5.670   5.550  16.977  0.00  0.00    +0.000 S 
ATOM     18  O   UNL     1       4.975   6.184  15.874  0.00  0.00    +0.000 OA
ATOM     19  O   UNL     1       6.013   6.299  18.170  0.00  0.00    +0.000 OA
BRANCH  17  20
ATOM     20  C   UNL     1       7.129   4.701  16.342  0.00  0.00    +0.000 C 
BRANCH  20  21
ATOM     21  C   UNL     1       6.982   4.557  14.847  0.00  0.00    +0.000 A 
ATOM     22  C   UNL     1       6.076   3.630  14.308  0.00  0.00    +0.000 A 
ATOM     23  C   UNL     1       5.971   3.468  12.925  0.00  0.00    +0.000 A 
ATOM     24  C   UNL     1       6.764   4.230  12.071  0.00  0.00    +0.000 A 
ATOM     25  C   UNL     1       7.664   5.155  12.596  0.00  0.00    +0.000 A 
ATOM     26  C   UNL     1       7.775   5.318  13.980  0.00  0.00    +0.000 A 
ENDBRANCH  20  21
ENDBRANCH  17  20
ENDBRANCH   4  17
TORSDOF 6
ENDMDL
MODEL 5
REMARK VINA RESULT:      -7.2      4.148      6.855
REMARK  Name = 
REMARK  6 active torsions:
REMARK  status: ('A' for Active; 'I' for Inactive)
REMARK    1  A    between atoms: C_2  and  C_10
REMARK    2  A    between atoms: N_3  and  C_4
REMARK    3  A    between atoms: C_4  and  C_5
REMARK    4  A    between atoms: N_13  and  S_14
REMARK    5  A    between atoms: S_14  and  C_17
REMARK    6  A    between atoms: C_17  and  C_18
REMARK                            x       y       z     vdW  Elec       q    Type
REMARK                         _______ _______ _______ _____ _____    ______ ____
ROOT
ATOM      1  C   UNL     1       3.193   2.892  19.202  0.00  0.00    +0.000 C 
ATOM      2  C   UNL     1       4.476   3.246  19.964  0.00  0.00    +0.000 C 
ATOM      3  C   UNL     1       5.292   4.316  19.238  0.00  0.00    +0.000 C 
ATOM      4  N   UNL     1       5.610   3.900  17.836  0.00  0.00    +0.000 NA
ATOM      5  C   UNL     1       4.379   3.516  17.067  0.00  0.00    +0.000 C 
ATOM      6  C   UNL     1       3.589   2.436  17.797  0.00  0.00    +0.000 C 
ENDROOT
BRANCH   1   8
ATOM      7  O   UNL     1       1.355   4.212  18.333  0.00  0.00    +0.000 OA
ATOM      8  C   UNL     1       2.211   4.068  19.200  0.00  0.00    +0.000 C 
ATOM      9  N   UNL     1       2.389   4.974  20.216  0.00  0.00    +0.000 N 
ATOM     10  H   UNL     1       3.202   4.926  20.818  0.00  0.00    +0.000 HD
BRANCH   9  11
ATOM     11  C   UNL     1       1.530   6.138  20.387  0.00  0.00    +0.000 C 
BRANCH  11  12
ATOM     12  C   UNL     1       2.174   7.420  19.855  0.00  0.00    +0.000 C 
ATOM     13  C   UNL     1       1.295   8.658  19.942  0.00  0.00    +0.000 C 
ATOM     14  C   UNL     1       1.767   9.476  18.767  0.00  0.00    +0.000 C 
ATOM     15  C   UNL     1       2.112   8.417  17.744  0.00  0.00    +0.000 C 
ATOM     16  O   UNL     1       2.517   7.246  18.463  0.00  0.00    +0.000 OA
ENDBRANCH  11  12
ENDBRANCH   9  11
ENDBRANCH   1   8
BRANCH   4  17
ATOM     17  S   UNL     1       6.505   5.099  16.948  0.00  0.00    +0.000 S 
ATOM     18  O   UNL     1       6.572   6.269  17.799  0.00  0.00    +0.000 OA
ATOM     19  O   UNL     1       7.712   4.442  16.485  0.00  0.00    +0.000 OA
BRANCH  17  20
ATOM     20  C   UNL     1       5.422   5.452  15.548  0.00  0.00    +0.000 C 
BRANCH  20  21
ATOM     21  C   UNL     1       6.050   4.873  14.304  0.00  0.00    +0.000 A 
ATOM     22  C   UNL     1       7.251   5.400  13.802  0.00  0.00    +0.000 A 
ATOM     23  C   UNL     1       7.809   4.893  12.628  0.00  0.00    +0.000 A 
ATOM     24  C   UNL     1       7.178   3.854  11.948  0.00  0.00    +0.000 A 
ATOM     25  C   UNL     1       5.988   3.322  12.439  0.00  0.00    +0.000 A 
ATOM     26  C   UNL     1       5.424   3.830  13.612  0.00  0.00    +0.000 A 
ENDBRANCH  20  21
ENDBRANCH  17  20
ENDBRANCH   4  17
TORSDOF 6
ENDMDL
MODEL 6
REMARK VINA RESULT:      -7.2      2.434      3.141
REMARK  Name = 
REMARK  6 active torsions:
REMARK  status: ('A' for Active; 'I' for Inactive)
REMARK    1  A    between atoms: C_2  and  C_10
REMARK    2  A    between atoms: N_3  and  C_4
REMARK    3  A    between atoms: C_4  and  C_5
REMARK    4  A    between atoms: N_13  and  S_14
REMARK    5  A    between atoms: S_14  and  C_17
REMARK    6  A    between atoms: C_17  and  C_18
REMARK                            x       y       z     vdW  Elec       q    Type
REMARK                         _______ _______ _______ _____ _____    ______ ____
ROOT
ATOM      1  C   UNL     1       7.499   5.525  17.583  0.00  0.00    +0.000 C 
ATOM      2  C   UNL     1       6.683   4.673  16.604  0.00  0.00    +0.000 C 
ATOM      3  C   UNL     1       5.185   4.742  16.902  0.00  0.00    +0.000 C 
ATOM      4  N   UNL     1       4.892   4.347  18.315  0.00  0.00    +0.000 NA
ATOM      5  C   UNL     1       5.697   5.139  19.303  0.00  0.00    +0.000 C 
ATOM      6  C   UNL     1       7.188   5.044  19.000  0.00  0.00    +0.000 C 
ENDROOT
BRANCH   1   8
ATOM      7  O   UNL     1       6.302   7.429  16.677  0.00  0.00    +0.000 OA
ATOM      8  C   UNL     1       7.221   7.018  17.378  0.00  0.00    +0.000 C 
ATOM      9  N   UNL     1       8.105   7.863  18.003  0.00  0.00    +0.000 N 
ATOM     10  H   UNL     1       8.949   7.506  18.435  0.00  0.00    +0.000 HD
BRANCH   9  11
ATOM     11  C   UNL     1       7.979   9.313  17.942  0.00  0.00    +0.000 C 
BRANCH  11  12
ATOM     12  C   UNL     1       9.220  10.028  18.480  0.00  0.00    +0.000 C 
ATOM     13  C   UNL     1       9.173  10.356  19.965  0.00  0.00    +0.000 C 
ATOM     14  C   UNL     1      10.010  11.607  20.048  0.00  0.00    +0.000 C 
ATOM     15  C   UNL     1       9.704  12.298  18.739  0.00  0.00    +0.000 C 
ATOM     16  O   UNL     1       9.399  11.278  17.780  0.00  0.00    +0.000 OA
ENDBRANCH  11  12
ENDBRANCH   9  11
ENDBRANCH   1   8
BRANCH   4  17
ATOM     17  S   UNL     1       3.204   4.444  18.723  0.00  0.00    +0.000 S 
ATOM     18  O   UNL     1       2.538   5.004  17.564  0.00  0.00    +0.000 OA
ATOM     19  O   UNL     1       2.835   3.140  19.238  0.00  0.00    +0.000 OA
BRANCH  17  20
ATOM     20  C   UNL     1       3.183   5.661  20.055  0.00  0.00    +0.000 C 
BRANCH  20  21
ATOM     21  C   UNL     1       2.609   6.947  19.515  0.00  0.00    +0.000 A 
ATOM     22  C   UNL     1       1.690   7.689  20.274  0.00  0.00    +0.000 A 
ATOM     23  C   UNL     1       1.126   8.857  19.756  0.00  0.00    +0.000 A 
ATOM     24  C   UNL     1       1.477   9.295  18.482  0.00  0.00    +0.000 A 
ATOM     25  C   UNL     1       2.390   8.567  17.722  0.00  0.00    +0.000 A 
ATOM     26  C   UNL     1       2.953   7.395  18.235  0.00  0.00    +0.000 A 
ENDBRANCH  20  21
ENDBRANCH  17  20
ENDBRANCH   4  17
TORSDOF 6
ENDMDL
MODEL 7
REMARK VINA RESULT:      -7.2      4.103      6.804
REMARK  Name = 
REMARK  6 active torsions:
REMARK  status: ('A' for Active; 'I' for Inactive)
REMARK    1  A    between atoms: C_2  and  C_10
REMARK    2  A    between atoms: N_3  and  C_4
REMARK    3  A    between atoms: C_4  and  C_5
REMARK    4  A    between atoms: N_13  and  S_14
REMARK    5  A    between atoms: S_14  and  C_17
REMARK    6  A    between atoms: C_17  and  C_18
REMARK                            x       y       z     vdW  Elec       q    Type
REMARK                         _______ _______ _______ _____ _____    ______ ____
ROOT
ATOM      1  C   UNL     1       2.153   3.585  19.185  0.00  0.00    +0.000 C 
ATOM      2  C   UNL     1       3.388   2.695  19.362  0.00  0.00    +0.000 C 
ATOM      3  C   UNL     1       4.686   3.467  19.116  0.00  0.00    +0.000 C 
ATOM      4  N   UNL     1       4.688   4.109  17.765  0.00  0.00    +0.000 NA
ATOM      5  C   UNL     1       3.476   4.966  17.542  0.00  0.00    +0.000 C 
ATOM      6  C   UNL     1       2.194   4.175  17.775  0.00  0.00    +0.000 C 
ENDROOT
BRANCH   1   8
ATOM      7  O   UNL     1       2.410   4.429  21.444  0.00  0.00    +0.000 OA
ATOM      8  C   UNL     1       2.080   4.652  20.283  0.00  0.00    +0.000 C 
ATOM      9  N   UNL     1       1.576   5.864  19.881  0.00  0.00    +0.000 N 
ATOM     10  H   UNL     1       1.155   5.974  18.966  0.00  0.00    +0.000 HD
BRANCH   9  11
ATOM     11  C   UNL     1       1.460   7.002  20.782  0.00  0.00    +0.000 C 
BRANCH  11  12
ATOM     12  C   UNL     1       1.825   8.323  20.101  0.00  0.00    +0.000 C 
ATOM     13  C   UNL     1       0.715   9.362  20.089  0.00  0.00    +0.000 C 
ATOM     14  C   UNL     1       0.999  10.128  18.822  0.00  0.00    +0.000 C 
ATOM     15  C   UNL     1       1.540   9.057  17.902  0.00  0.00    +0.000 C 
ATOM     16  O   UNL     1       2.182   8.074  18.724  0.00  0.00    +0.000 OA
ENDBRANCH  11  12
ENDBRANCH   9  11
ENDBRANCH   1   8
BRANCH   4  17
ATOM     17  S   UNL     1       6.126   5.035  17.445  0.00  0.00    +0.000 S 
ATOM     18  O   UNL     1       6.304   5.915  18.582  0.00  0.00    +0.000 OA
ATOM     19  O   UNL     1       7.151   4.078  17.075  0.00  0.00    +0.000 OA
BRANCH  17  20
ATOM     20  C   UNL     1       5.657   6.020  16.008  0.00  0.00    +0.000 C 
BRANCH  20  21
ATOM     21  C   UNL     1       6.043   5.258  14.763  0.00  0.00    +0.000 A 
ATOM     22  C   UNL     1       5.187   4.279  14.234  0.00  0.00    +0.000 A 
ATOM     23  C   UNL     1       5.563   3.545  13.108  0.00  0.00    +0.000 A 
ATOM     24  C   UNL     1       6.793   3.784  12.499  0.00  0.00    +0.000 A 
ATOM     25  C   UNL     1       7.648   4.755  13.015  0.00  0.00    +0.000 A 
ATOM     26  C   UNL     1       7.276   5.489  14.144  0.00  0.00    +0.000 A 
ENDBRANCH  20  21
ENDBRANCH  17  20
ENDBRANCH   4  17
TORSDOF 6
ENDMDL
MODEL 8
REMARK VINA RESULT:      -7.1      3.966      6.893
REMARK  Name = 
REMARK  6 active torsions:
REMARK  status: ('A' for Active; 'I' for Inactive)
REMARK    1  A    between atoms: C_2  and  C_10
REMARK    2  A    between atoms: N_3  and  C_4
REMARK    3  A    between atoms: C_4  and  C_5
REMARK    4  A    between atoms: N_13  and  S_14
REMARK    5  A    between atoms: S_14  and  C_17
REMARK    6  A    between atoms: C_17  and  C_18
REMARK                            x       y       z     vdW  Elec       q    Type
REMARK                         _______ _______ _______ _____ _____    ______ ____
ROOT
ATOM      1  C   UNL     1       2.607   2.613  19.086  0.00  0.00    +0.000 C 
ATOM      2  C   UNL     1       4.054   2.586  19.590  0.00  0.00    +0.000 C 
ATOM      3  C   UNL     1       4.836   3.823  19.143  0.00  0.00    +0.000 C 
ATOM      4  N   UNL     1       4.799   3.981  17.656  0.00  0.00    +0.000 NA
ATOM      5  C   UNL     1       3.397   3.981  17.121  0.00  0.00    +0.000 C 
ATOM      6  C   UNL     1       2.640   2.734  17.562  0.00  0.00    +0.000 C 
ENDROOT
BRANCH   1   8
ATOM      7  O   UNL     1       0.667   3.570  20.180  0.00  0.00    +0.000 OA
ATOM      8  C   UNL     1       1.809   3.733  19.761  0.00  0.00    +0.000 C 
ATOM      9  N   UNL     1       2.449   4.946  19.823  0.00  0.00    +0.000 N 
ATOM     10  H   UNL     1       3.316   5.101  19.325  0.00  0.00    +0.000 HD
BRANCH   9  11
ATOM     11  C   UNL     1       1.853   6.115  20.455  0.00  0.00    +0.000 C 
BRANCH  11  12
ATOM     12  C   UNL     1       2.335   7.425  19.828  0.00  0.00    +0.000 C 
ATOM     13  C   UNL     1       1.306   8.545  19.822  0.00  0.00    +0.000 C 
ATOM     14  C   UNL     1       1.682   9.327  18.589  0.00  0.00    +0.000 C 
ATOM     15  C   UNL     1       2.167   8.247  17.648  0.00  0.00    +0.000 C 
ATOM     16  O   UNL     1       2.710   7.193  18.453  0.00  0.00    +0.000 OA
ENDBRANCH  11  12
ENDBRANCH   9  11
ENDBRANCH   1   8
BRANCH   4  17
ATOM     17  S   UNL     1       5.640   5.396  17.093  0.00  0.00    +0.000 S 
ATOM     18  O   UNL     1       4.855   5.925  15.995  0.00  0.00    +0.000 OA
ATOM     19  O   UNL     1       5.916   6.199  18.268  0.00  0.00    +0.000 OA
BRANCH  17  20
ATOM     20  C   UNL     1       7.178   4.714  16.439  0.00  0.00    +0.000 C 
BRANCH  20  21
ATOM     21  C   UNL     1       7.024   4.540  14.948  0.00  0.00    +0.000 A 
ATOM     22  C   UNL     1       7.809   5.292  14.059  0.00  0.00    +0.000 A 
ATOM     23  C   UNL     1       7.636   5.162  12.680  0.00  0.00    +0.000 A 
ATOM     24  C   UNL     1       6.683   4.279  12.177  0.00  0.00    +0.000 A 
ATOM     25  C   UNL     1       5.902   3.526  13.050  0.00  0.00    +0.000 A 
ATOM     26  C   UNL     1       6.069   3.657  14.432  0.00  0.00    +0.000 A 
ENDBRANCH  20  21
ENDBRANCH  17  20
ENDBRANCH   4  17
TORSDOF 6
ENDMDL
MODEL 9
REMARK VINA RESULT:      -7.0      3.988      6.940
REMARK  Name = 
REMARK  6 active torsions:
REMARK  status: ('A' for Active; 'I' for Inactive)
REMARK    1  A    between atoms: C_2  and  C_10
REMARK    2  A    between atoms: N_3  and  C_4
REMARK    3  A    between atoms: C_4  and  C_5
REMARK    4  A    between atoms: N_13  and  S_14
REMARK    5  A    between atoms: S_14  and  C_17
REMARK    6  A    between atoms: C_17  and  C_18
REMARK                            x       y       z     vdW  Elec       q    Type
REMARK                         _______ _______ _______ _____ _____    ______ ____
ROOT
ATOM      1  C   UNL     1       3.138   4.139  19.179  0.00  0.00    +0.000 C 
ATOM      2  C   UNL     1       4.350   4.635  19.975  0.00  0.00    +0.000 C 
ATOM      3  C   UNL     1       5.390   5.300  19.073  0.00  0.00    +0.000 C 
ATOM      4  N   UNL     1       5.822   4.383  17.972  0.00  0.00    +0.000 NA
ATOM      5  C   UNL     1       4.658   3.852  17.188  0.00  0.00    +0.000 C 
ATOM      6  C   UNL     1       3.641   3.178  18.102  0.00  0.00    +0.000 C 
ENDROOT
BRANCH   1   8
ATOM      7  O   UNL     1       1.473   5.169  17.749  0.00  0.00    +0.000 OA
ATOM      8  C   UNL     1       2.334   5.313  18.610  0.00  0.00    +0.000 C 
ATOM      9  N   UNL     1       2.681   6.546  19.104  0.00  0.00    +0.000 N 
ATOM     10  H   UNL     1       3.503   6.662  19.685  0.00  0.00    +0.000 HD
BRANCH   9  11
ATOM     11  C   UNL     1       2.004   7.771  18.699  0.00  0.00    +0.000 C 
BRANCH  11  12
ATOM     12  C   UNL     1       1.670   8.673  19.889  0.00  0.00    +0.000 C 
ATOM     13  C   UNL     1       1.185   7.936  21.129  0.00  0.00    +0.000 C 
ATOM     14  C   UNL     1       0.266   8.945  21.769  0.00  0.00    +0.000 C 
ATOM     15  C   UNL     1      -0.341   9.644  20.573  0.00  0.00    +0.000 C 
ATOM     16  O   UNL     1       0.626   9.598  19.516  0.00  0.00    +0.000 OA
ENDBRANCH  11  12
ENDBRANCH   9  11
ENDBRANCH   1   8
BRANCH   4  17
ATOM     17  S   UNL     1       6.978   5.103  16.889  0.00  0.00    +0.000 S 
ATOM     18  O   UNL     1       7.582   6.204  17.612  0.00  0.00    +0.000 OA
ATOM     19  O   UNL     1       7.786   4.013  16.377  0.00  0.00    +0.000 OA
BRANCH  17  20
ATOM     20  C   UNL     1       5.935   5.766  15.574  0.00  0.00    +0.000 C 
BRANCH  20  21
ATOM     21  C   UNL     1       6.298   5.070  14.285  0.00  0.00    +0.000 A 
ATOM     22  C   UNL     1       5.489   4.038  13.782  0.00  0.00    +0.000 A 
ATOM     23  C   UNL     1       5.847   3.367  12.612  0.00  0.00    +0.000 A 
ATOM     24  C   UNL     1       7.011   3.720  11.933  0.00  0.00    +0.000 A 
ATOM     25  C   UNL     1       7.818   4.744  12.422  0.00  0.00    +0.000 A 
ATOM     26  C   UNL     1       7.465   5.417  13.595  0.00  0.00    +0.000 A 
ENDBRANCH  20  21
ENDBRANCH  17  20
ENDBRANCH   4  17
TORSDOF 6
ENDMDL
