MODEL 1
REMARK VINA RESULT:      -6.9      0.000      0.000
REMARK  Name = 
REMARK  7 active torsions:
REMARK  status: ('A' for Active; 'I' for Inactive)
REMARK    1  A    between atoms: C_1  and  C_2
REMARK    2  A    between atoms: C_9  and  C_10
REMARK    3  A    between atoms: C_10  and  O_12
REMARK    4  A    between atoms: C_14  and  C_16
REMARK    5  A    between atoms: C_16  and  C_17
REMARK    6  A    between atoms: C_16  and  C_18
REMARK    7  A    between atoms: C_18  and  S_19
REMARK                            x       y       z     vdW  Elec       q    Type
REMARK                         _______ _______ _______ _____ _____    ______ ____
ROOT
ATOM      1  C   UNL     1       0.958   9.501  18.865  0.00  0.00    +0.000 C 
ATOM      2  C   UNL     1       1.927   8.368  18.686  0.00  0.00    +0.000 A 
ATOM      3  C   UNL     1       2.895   8.413  17.675  0.00  0.00    +0.000 A 
ATOM      4  C   UNL     1       3.831   7.381  17.518  0.00  0.00    +0.000 A 
ATOM      5  C   UNL     1       3.807   6.290  18.373  0.00  0.00    +0.000 A 
ATOM      6  C   UNL     1       2.815   6.239  19.355  0.00  0.00    +0.000 A 
ATOM      7  C   UNL     1       1.875   7.251  19.523  0.00  0.00    +0.000 A 
ATOM      8  C   UNL     1       2.889   4.980  20.151  0.00  0.00    +0.000 C 
ATOM      9  C   UNL     1       4.245   4.395  19.710  0.00  0.00    +0.000 C 
ATOM     10  N   UNL     1       4.677   5.176  18.503  0.00  0.00    +0.000 N 
ATOM     11  C   UNL     1       5.916   4.933  17.932  0.00  0.00    +0.000 C 
ATOM     12  O   UNL     1       6.650   4.072  18.429  0.00  0.00    +0.000 OA
ENDROOT
BRANCH   9  13
ATOM     13  C   UNL     1       4.115   2.865  19.543  0.00  0.00    +0.000 C 
ATOM     14  O   UNL     1       3.107   2.298  19.141  0.00  0.00    +0.000 OA
BRANCH  13  15
ATOM     15  O   UNL     1       5.164   2.149  19.996  0.00  0.00    +0.000 OA
ATOM     16  H   UNL     1       4.939   1.210  20.215  0.00  0.00    +0.000 HD
ENDBRANCH  13  15
ENDBRANCH   9  13
BRANCH  11  17
ATOM     17  C   UNL     1       6.406   5.724  16.728  0.00  0.00    +0.000 C 
ATOM     18  C   UNL     1       7.376   6.802  17.220  0.00  0.00    +0.000 C 
BRANCH  17  19
ATOM     19  C   UNL     1       7.056   4.776  15.706  0.00  0.00    +0.000 C 
BRANCH  19  20
ATOM     20  S   UNL     1       5.889   4.217  14.419  0.00  0.00    +0.000 S 
ATOM     21  H   UNL     1       5.227   3.325  15.170  0.00  0.00    +0.000 HD
ENDBRANCH  19  20
ENDBRANCH  17  19
ENDBRANCH  11  17
TORSDOF 5
ENDMDL
MODEL 2
REMARK VINA RESULT:      -6.5      1.136      1.225
REMARK  Name = 
REMARK  7 active torsions:
REMARK  status: ('A' for Active; 'I' for Inactive)
REMARK    1  A    between atoms: C_1  and  C_2
REMARK    2  A    between atoms: C_9  and  C_10
REMARK    3  A    between atoms: C_10  and  O_12
REMARK    4  A    between atoms: C_14  and  C_16
REMARK    5  A    between atoms: C_16  and  C_17
REMARK    6  A    between atoms: C_16  and  C_18
REMARK    7  A    between atoms: C_18  and  S_19
REMARK                            x       y       z     vdW  Elec       q    Type
REMARK                         _______ _______ _______ _____ _____    ______ ____
ROOT
ATOM      1  C   UNL     1       1.133  10.048  18.689  0.00  0.00    +0.000 C 
ATOM      2  C   UNL     1       1.837   8.722  18.703  0.00  0.00    +0.000 A 
ATOM      3  C   UNL     1       2.787   8.411  17.722  0.00  0.00    +0.000 A 
ATOM      4  C   UNL     1       3.481   7.193  17.742  0.00  0.00    +0.000 A 
ATOM      5  C   UNL     1       3.229   6.270  18.745  0.00  0.00    +0.000 A 
ATOM      6  C   UNL     1       2.253   6.576  19.698  0.00  0.00    +0.000 A 
ATOM      7  C   UNL     1       1.552   7.777  19.692  0.00  0.00    +0.000 A 
ATOM      8  C   UNL     1       2.061   5.461  20.670  0.00  0.00    +0.000 C 
ATOM      9  C   UNL     1       3.258   4.544  20.355  0.00  0.00    +0.000 C 
ATOM     10  N   UNL     1       3.841   5.029  19.060  0.00  0.00    +0.000 N 
ATOM     11  C   UNL     1       4.997   4.447  18.563  0.00  0.00    +0.000 C 
ATOM     12  O   UNL     1       5.533   3.534  19.199  0.00  0.00    +0.000 OA
ENDROOT
BRANCH   9  13
ATOM     13  C   UNL     1       2.805   3.069  20.409  0.00  0.00    +0.000 C 
ATOM     14  O   UNL     1       1.702   2.673  20.052  0.00  0.00    +0.000 OA
BRANCH  13  15
ATOM     15  O   UNL     1       3.670   2.225  21.007  0.00  0.00    +0.000 OA
ATOM     16  H   UNL     1       4.579   2.246  20.616  0.00  0.00    +0.000 HD
ENDBRANCH  13  15
ENDBRANCH   9  13
BRANCH  11  17
ATOM     17  C   UNL     1       5.639   4.930  17.271  0.00  0.00    +0.000 C 
ATOM     18  C   UNL     1       7.157   4.769  17.395  0.00  0.00    +0.000 C 
BRANCH  17  19
ATOM     19  C   UNL     1       5.065   4.150  16.076  0.00  0.00    +0.000 C 
BRANCH  19  20
ATOM     20  S   UNL     1       6.210   4.091  14.655  0.00  0.00    +0.000 S 
ATOM     21  H   UNL     1       7.210   4.785  15.218  0.00  0.00    +0.000 HD
ENDBRANCH  19  20
ENDBRANCH  17  19
ENDBRANCH  11  17
TORSDOF 5
ENDMDL
MODEL 3
REMARK VINA RESULT:      -6.3      2.527      5.509
REMARK  Name = 
REMARK  7 active torsions:
REMARK  status: ('A' for Active; 'I' for Inactive)
REMARK    1  A    between atoms: C_1  and  C_2
REMARK    2  A    between atoms: C_9  and  C_10
REMARK    3  A    between atoms: C_10  and  O_12
REMARK    4  A    between atoms: C_14  and  C_16
REMARK    5  A    between atoms: C_16  and  C_17
REMARK    6  A    between atoms: C_16  and  C_18
REMARK    7  A    between atoms: C_18  and  S_19
REMARK                            x       y       z     vdW  Elec       q    Type
REMARK                         _______ _______ _______ _____ _____    ______ ____
ROOT
ATOM      1  C   UNL     1       6.390   3.522  12.369  0.00  0.00    +0.000 C 
ATOM      2  C   UNL     1       6.146   4.043  13.755  0.00  0.00    +0.000 A 
ATOM      3  C   UNL     1       4.896   4.568  14.108  0.00  0.00    +0.000 A 
ATOM      4  C   UNL     1       4.640   5.025  15.408  0.00  0.00    +0.000 A 
ATOM      5  C   UNL     1       5.634   4.962  16.371  0.00  0.00    +0.000 A 
ATOM      6  C   UNL     1       6.888   4.471  15.999  0.00  0.00    +0.000 A 
ATOM      7  C   UNL     1       7.163   4.016  14.713  0.00  0.00    +0.000 A 
ATOM      8  C   UNL     1       7.860   4.523  17.129  0.00  0.00    +0.000 C 
ATOM      9  C   UNL     1       6.949   4.847  18.328  0.00  0.00    +0.000 C 
ATOM     10  N   UNL     1       5.621   5.255  17.760  0.00  0.00    +0.000 N 
ATOM     11  C   UNL     1       4.560   5.523  18.611  0.00  0.00    +0.000 C 
ATOM     12  O   UNL     1       4.725   5.420  19.831  0.00  0.00    +0.000 OA
ENDROOT
BRANCH   9  13
ATOM     13  C   UNL     1       7.656   5.863  19.252  0.00  0.00    +0.000 C 
ATOM     14  O   UNL     1       8.171   6.905  18.865  0.00  0.00    +0.000 OA
BRANCH  13  15
ATOM     15  O   UNL     1       7.793   5.472  20.535  0.00  0.00    +0.000 OA
ATOM     16  H   UNL     1       7.169   4.751  20.799  0.00  0.00    +0.000 HD
ENDBRANCH  13  15
ENDBRANCH   9  13
BRANCH  11  17
ATOM     17  C   UNL     1       3.188   5.907  18.076  0.00  0.00    +0.000 C 
ATOM     18  C   UNL     1       2.292   4.667  18.104  0.00  0.00    +0.000 C 
BRANCH  17  19
ATOM     19  C   UNL     1       2.608   7.066  18.903  0.00  0.00    +0.000 C 
BRANCH  19  20
ATOM     20  S   UNL     1       2.256   8.547  17.895  0.00  0.00    +0.000 S 
ATOM     21  H   UNL     1       1.186   8.968  18.585  0.00  0.00    +0.000 HD
ENDBRANCH  19  20
ENDBRANCH  17  19
ENDBRANCH  11  17
TORSDOF 5
ENDMDL
MODEL 4
REMARK VINA RESULT:      -6.3      2.332      4.084
REMARK  Name = 
REMARK  7 active torsions:
REMARK  status: ('A' for Active; 'I' for Inactive)
REMARK    1  A    between atoms: C_1  and  C_2
REMARK    2  A    between atoms: C_9  and  C_10
REMARK    3  A    between atoms: C_10  and  O_12
REMARK    4  A    between atoms: C_14  and  C_16
REMARK    5  A    between atoms: C_16  and  C_17
REMARK    6  A    between atoms: C_16  and  C_18
REMARK    7  A    between atoms: C_18  and  S_19
REMARK                            x       y       z     vdW  Elec       q    Type
REMARK                         _______ _______ _______ _____ _____    ______ ____
ROOT
ATOM      1  C   UNL     1       1.697   9.860  18.110  0.00  0.00    +0.000 C 
ATOM      2  C   UNL     1       2.356   8.510  18.084  0.00  0.00    +0.000 A 
ATOM      3  C   UNL     1       1.794   7.431  18.777  0.00  0.00    +0.000 A 
ATOM      4  C   UNL     1       2.375   6.156  18.732  0.00  0.00    +0.000 A 
ATOM      5  C   UNL     1       3.529   5.948  17.993  0.00  0.00    +0.000 A 
ATOM      6  C   UNL     1       4.101   7.040  17.335  0.00  0.00    +0.000 A 
ATOM      7  C   UNL     1       3.541   8.313  17.371  0.00  0.00    +0.000 A 
ATOM      8  C   UNL     1       5.364   6.665  16.635  0.00  0.00    +0.000 C 
ATOM      9  C   UNL     1       5.336   5.126  16.715  0.00  0.00    +0.000 C 
ATOM     10  N   UNL     1       4.259   4.767  17.697  0.00  0.00    +0.000 N 
ATOM     11  C   UNL     1       3.937   3.436  17.911  0.00  0.00    +0.000 C 
ATOM     12  O   UNL     1       4.545   2.562  17.286  0.00  0.00    +0.000 OA
ENDROOT
BRANCH   9  13
ATOM     13  C   UNL     1       6.757   4.601  17.013  0.00  0.00    +0.000 C 
ATOM     14  O   UNL     1       7.625   4.441  16.164  0.00  0.00    +0.000 OA
BRANCH  13  15
ATOM     15  O   UNL     1       6.962   4.193  18.282  0.00  0.00    +0.000 OA
ATOM     16  H   UNL     1       6.689   3.256  18.446  0.00  0.00    +0.000 HD
ENDBRANCH  13  15
ENDBRANCH   9  13
BRANCH  11  17
ATOM     17  C   UNL     1       2.830   3.030  18.873  0.00  0.00    +0.000 C 
ATOM     18  C   UNL     1       2.113   1.807  18.296  0.00  0.00    +0.000 C 
BRANCH  17  19
ATOM     19  C   UNL     1       3.420   2.757  20.267  0.00  0.00    +0.000 C 
BRANCH  19  20
ATOM     20  S   UNL     1       2.183   2.918  21.600  0.00  0.00    +0.000 S 
ATOM     21  H   UNL     1       2.060   1.610  21.871  0.00  0.00    +0.000 HD
ENDBRANCH  19  20
ENDBRANCH  17  19
ENDBRANCH  11  17
TORSDOF 5
ENDMDL
MODEL 5
REMARK VINA RESULT:      -6.2      1.172      1.448
REMARK  Name = 
REMARK  7 active torsions:
REMARK  status: ('A' for Active; 'I' for Inactive)
REMARK    1  A    between atoms: C_1  and  C_2
REMARK    2  A    between atoms: C_9  and  C_10
REMARK    3  A    between atoms: C_10  and  O_12
REMARK    4  A    between atoms: C_14  and  C_16
REMARK    5  A    between atoms: C_16  and  C_17
REMARK    6  A    between atoms: C_16  and  C_18
REMARK    7  A    between atoms: C_18  and  S_19
REMARK                            x       y       z     vdW  Elec       q    Type
REMARK                         _______ _______ _______ _____ _____    ______ ____
ROOT
ATOM      1  C   UNL     1       0.789  10.419  19.355  0.00  0.00    +0.000 C 
ATOM      2  C   UNL     1       1.497   9.117  19.111  0.00  0.00    +0.000 A 
ATOM      3  C   UNL     1       2.268   8.934  17.956  0.00  0.00    +0.000 A 
ATOM      4  C   UNL     1       2.966   7.739  17.730  0.00  0.00    +0.000 A 
ATOM      5  C   UNL     1       2.897   6.713  18.659  0.00  0.00    +0.000 A 
ATOM      6  C   UNL     1       2.096   6.893  19.790  0.00  0.00    +0.000 A 
ATOM      7  C   UNL     1       1.393   8.070  20.029  0.00  0.00    +0.000 A 
ATOM      8  C   UNL     1       2.083   5.681  20.658  0.00  0.00    +0.000 C 
ATOM      9  C   UNL     1       3.217   4.833  20.051  0.00  0.00    +0.000 C 
ATOM     10  N   UNL     1       3.566   5.462  18.734  0.00  0.00    +0.000 N 
ATOM     11  C   UNL     1       4.625   4.966  17.991  0.00  0.00    +0.000 C 
ATOM     12  O   UNL     1       5.269   4.007  18.428  0.00  0.00    +0.000 OA
ENDROOT
BRANCH   9  13
ATOM     13  C   UNL     1       2.792   3.348  20.025  0.00  0.00    +0.000 C 
ATOM     14  O   UNL     1       3.315   2.469  20.699  0.00  0.00    +0.000 OA
BRANCH  13  15
ATOM     15  O   UNL     1       1.865   3.033  19.098  0.00  0.00    +0.000 OA
ATOM     16  H   UNL     1       2.092   2.231  18.566  0.00  0.00    +0.000 HD
ENDBRANCH  13  15
ENDBRANCH   9  13
BRANCH  11  17
ATOM     17  C   UNL     1       5.032   5.594  16.667  0.00  0.00    +0.000 C 
ATOM     18  C   UNL     1       6.299   6.424  16.894  0.00  0.00    +0.000 C 
BRANCH  17  19
ATOM     19  C   UNL     1       5.235   4.499  15.606  0.00  0.00    +0.000 C 
BRANCH  19  20
ATOM     20  S   UNL     1       6.791   4.700  14.672  0.00  0.00    +0.000 S 
ATOM     21  H   UNL     1       6.248   4.726  13.446  0.00  0.00    +0.000 HD
ENDBRANCH  19  20
ENDBRANCH  17  19
ENDBRANCH  11  17
TORSDOF 5
ENDMDL
MODEL 6
REMARK VINA RESULT:      -6.2      1.615      1.878
REMARK  Name = 
REMARK  7 active torsions:
REMARK  status: ('A' for Active; 'I' for Inactive)
REMARK    1  A    between atoms: C_1  and  C_2
REMARK    2  A    between atoms: C_9  and  C_10
REMARK    3  A    between atoms: C_10  and  O_12
REMARK    4  A    between atoms: C_14  and  C_16
REMARK    5  A    between atoms: C_16  and  C_17
REMARK    6  A    between atoms: C_16  and  C_18
REMARK    7  A    between atoms: C_18  and  S_19
REMARK                            x       y       z     vdW  Elec       q    Type
REMARK                         _______ _______ _______ _____ _____    ______ ____
ROOT
ATOM      1  C   UNL     1       0.782   8.839  21.475  0.00  0.00    +0.000 C 
ATOM      2  C   UNL     1       1.408   7.761  20.638  0.00  0.00    +0.000 A 
ATOM      3  C   UNL     1       2.150   8.088  19.496  0.00  0.00    +0.000 A 
ATOM      4  C   UNL     1       2.772   7.097  18.724  0.00  0.00    +0.000 A 
ATOM      5  C   UNL     1       2.657   5.764  19.087  0.00  0.00    +0.000 A 
ATOM      6  C   UNL     1       1.884   5.446  20.207  0.00  0.00    +0.000 A 
ATOM      7  C   UNL     1       1.256   6.416  20.983  0.00  0.00    +0.000 A 
ATOM      8  C   UNL     1       1.812   3.973  20.430  0.00  0.00    +0.000 C 
ATOM      9  C   UNL     1       2.885   3.444  19.459  0.00  0.00    +0.000 C 
ATOM     10  N   UNL     1       3.251   4.588  18.559  0.00  0.00    +0.000 N 
ATOM     11  C   UNL     1       4.268   4.437  17.630  0.00  0.00    +0.000 C 
ATOM     12  O   UNL     1       4.861   3.355  17.557  0.00  0.00    +0.000 OA
ENDROOT
BRANCH   9  13
ATOM     13  C   UNL     1       2.373   2.156  18.779  0.00  0.00    +0.000 C 
ATOM     14  O   UNL     1       1.194   1.919  18.549  0.00  0.00    +0.000 OA
BRANCH  13  15
ATOM     15  O   UNL     1       3.313   1.214  18.554  0.00  0.00    +0.000 OA
ATOM     16  H   UNL     1       3.790   1.329  17.695  0.00  0.00    +0.000 HD
ENDBRANCH  13  15
ENDBRANCH   9  13
BRANCH  11  17
ATOM     17  C   UNL     1       4.692   5.581  16.720  0.00  0.00    +0.000 C 
ATOM     18  C   UNL     1       5.867   6.311  17.377  0.00  0.00    +0.000 C 
BRANCH  17  19
ATOM     19  C   UNL     1       5.048   5.038  15.326  0.00  0.00    +0.000 C 
BRANCH  19  20
ATOM     20  S   UNL     1       6.848   4.857  15.077  0.00  0.00    +0.000 S 
ATOM     21  H   UNL     1       6.866   3.521  14.962  0.00  0.00    +0.000 HD
ENDBRANCH  19  20
ENDBRANCH  17  19
ENDBRANCH  11  17
TORSDOF 5
ENDMDL
MODEL 7
REMARK VINA RESULT:      -6.2      3.088      4.031
REMARK  Name = 
REMARK  7 active torsions:
REMARK  status: ('A' for Active; 'I' for Inactive)
REMARK    1  A    between atoms: C_1  and  C_2
REMARK    2  A    between atoms: C_9  and  C_10
REMARK    3  A    between atoms: C_10  and  O_12
REMARK    4  A    between atoms: C_14  and  C_16
REMARK    5  A    between atoms: C_16  and  C_17
REMARK    6  A    between atoms: C_16  and  C_18
REMARK    7  A    between atoms: C_18  and  S_19
REMARK                            x       y       z     vdW  Elec       q    Type
REMARK                         _______ _______ _______ _____ _____    ______ ____
ROOT
ATOM      1  C   UNL     1       0.840   4.018  20.128  0.00  0.00    +0.000 C 
ATOM      2  C   UNL     1       2.160   4.271  19.459  0.00  0.00    +0.000 A 
ATOM      3  C   UNL     1       3.140   5.046  20.092  0.00  0.00    +0.000 A 
ATOM      4  C   UNL     1       4.392   5.261  19.499  0.00  0.00    +0.000 A 
ATOM      5  C   UNL     1       4.676   4.702  18.263  0.00  0.00    +0.000 A 
ATOM      6  C   UNL     1       3.679   3.961  17.624  0.00  0.00    +0.000 A 
ATOM      7  C   UNL     1       2.429   3.740  18.195  0.00  0.00    +0.000 A 
ATOM      8  C   UNL     1       4.119   3.478  16.284  0.00  0.00    +0.000 C 
ATOM      9  C   UNL     1       5.630   3.783  16.308  0.00  0.00    +0.000 C 
ATOM     10  N   UNL     1       5.869   4.673  17.492  0.00  0.00    +0.000 N 
ATOM     11  C   UNL     1       7.161   5.045  17.826  0.00  0.00    +0.000 C 
ATOM     12  O   UNL     1       8.102   4.633  17.140  0.00  0.00    +0.000 OA
ENDROOT
BRANCH   9  13
ATOM     13  C   UNL     1       6.069   4.321  14.929  0.00  0.00    +0.000 C 
ATOM     14  O   UNL     1       6.097   5.508  14.628  0.00  0.00    +0.000 OA
BRANCH  13  15
ATOM     15  O   UNL     1       6.309   3.376  13.996  0.00  0.00    +0.000 OA
ATOM     16  H   UNL     1       6.753   3.726  13.184  0.00  0.00    +0.000 HD
ENDBRANCH  13  15
ENDBRANCH   9  13
BRANCH  11  17
ATOM     17  C   UNL     1       7.451   5.919  19.037  0.00  0.00    +0.000 C 
ATOM     18  C   UNL     1       8.218   5.084  20.066  0.00  0.00    +0.000 C 
BRANCH  17  19
ATOM     19  C   UNL     1       8.230   7.173  18.605  0.00  0.00    +0.000 C 
BRANCH  19  20
ATOM     20  S   UNL     1       7.319   8.187  17.390  0.00  0.00    +0.000 S 
ATOM     21  H   UNL     1       7.604   9.384  17.924  0.00  0.00    +0.000 HD
ENDBRANCH  19  20
ENDBRANCH  17  19
ENDBRANCH  11  17
TORSDOF 5
ENDMDL
MODEL 8
REMARK VINA RESULT:      -6.1      1.510      1.909
REMARK  Name = 
REMARK  7 active torsions:
REMARK  status: ('A' for Active; 'I' for Inactive)
REMARK    1  A    between atoms: C_1  and  C_2
REMARK    2  A    between atoms: C_9  and  C_10
REMARK    3  A    between atoms: C_10  and  O_12
REMARK    4  A    between atoms: C_14  and  C_16
REMARK    5  A    between atoms: C_16  and  C_17
REMARK    6  A    between atoms: C_16  and  C_18
REMARK    7  A    between atoms: C_18  and  S_19
REMARK                            x       y       z     vdW  Elec       q    Type
REMARK                         _______ _______ _______ _____ _____    ______ ____
ROOT
ATOM      1  C   UNL     1       0.860  10.806  18.957  0.00  0.00    +0.000 C 
ATOM      2  C   UNL     1       1.433   9.418  18.945  0.00  0.00    +0.000 A 
ATOM      3  C   UNL     1       2.220   8.983  17.872  0.00  0.00    +0.000 A 
ATOM      4  C   UNL     1       2.793   7.704  17.862  0.00  0.00    +0.000 A 
ATOM      5  C   UNL     1       2.584   6.844  18.929  0.00  0.00    +0.000 A 
ATOM      6  C   UNL     1       1.767   7.275  19.978  0.00  0.00    +0.000 A 
ATOM      7  C   UNL     1       1.186   8.540  20.003  0.00  0.00    +0.000 A 
ATOM      8  C   UNL     1       1.595   6.218  21.015  0.00  0.00    +0.000 C 
ATOM      9  C   UNL     1       2.652   5.178  20.599  0.00  0.00    +0.000 C 
ATOM     10  N   UNL     1       3.112   5.560  19.223  0.00  0.00    +0.000 N 
ATOM     11  C   UNL     1       4.137   4.851  18.616  0.00  0.00    +0.000 C 
ATOM     12  O   UNL     1       4.660   3.911  19.223  0.00  0.00    +0.000 OA
ENDROOT
BRANCH   9  13
ATOM     13  C   UNL     1       2.073   3.757  20.774  0.00  0.00    +0.000 C 
ATOM     14  O   UNL     1       1.413   3.171  19.924  0.00  0.00    +0.000 OA
BRANCH  13  15
ATOM     15  O   UNL     1       2.230   3.221  22.002  0.00  0.00    +0.000 OA
ATOM     16  H   UNL     1       2.989   2.589  22.065  0.00  0.00    +0.000 HD
ENDBRANCH  13  15
ENDBRANCH   9  13
BRANCH  11  17
ATOM     17  C   UNL     1       4.655   5.225  17.235  0.00  0.00    +0.000 C 
ATOM     18  C   UNL     1       6.002   5.935  17.399  0.00  0.00    +0.000 C 
BRANCH  17  19
ATOM     19  C   UNL     1       4.761   3.968  16.356  0.00  0.00    +0.000 C 
BRANCH  19  20
ATOM     20  S   UNL     1       6.114   4.072  15.135  0.00  0.00    +0.000 S 
ATOM     21  H   UNL     1       5.450   3.529  14.104  0.00  0.00    +0.000 HD
ENDBRANCH  19  20
ENDBRANCH  17  19
ENDBRANCH  11  17
TORSDOF 5
ENDMDL
MODEL 9
REMARK VINA RESULT:      -6.1      2.835      5.313
REMARK  Name = 
REMARK  7 active torsions:
REMARK  status: ('A' for Active; 'I' for Inactive)
REMARK    1  A    between atoms: C_1  and  C_2
REMARK    2  A    between atoms: C_9  and  C_10
REMARK    3  A    between atoms: C_10  and  O_12
REMARK    4  A    between atoms: C_14  and  C_16
REMARK    5  A    between atoms: C_16  and  C_17
REMARK    6  A    between atoms: C_16  and  C_18
REMARK    7  A    between atoms: C_18  and  S_19
REMARK                            x       y       z     vdW  Elec       q    Type
REMARK                         _______ _______ _______ _____ _____    ______ ____
ROOT
ATOM      1  C   UNL     1       6.995   4.733  13.768  0.00  0.00    +0.000 C 
ATOM      2  C   UNL     1       6.084   4.784  14.960  0.00  0.00    +0.000 A 
ATOM      3  C   UNL     1       5.628   3.602  15.557  0.00  0.00    +0.000 A 
ATOM      4  C   UNL     1       4.807   3.630  16.693  0.00  0.00    +0.000 A 
ATOM      5  C   UNL     1       4.433   4.846  17.245  0.00  0.00    +0.000 A 
ATOM      6  C   UNL     1       4.864   6.019  16.620  0.00  0.00    +0.000 A 
ATOM      7  C   UNL     1       5.675   6.010  15.490  0.00  0.00    +0.000 A 
ATOM      8  C   UNL     1       4.331   7.235  17.299  0.00  0.00    +0.000 C 
ATOM      9  C   UNL     1       3.746   6.653  18.600  0.00  0.00    +0.000 C 
ATOM     10  N   UNL     1       3.708   5.163  18.424  0.00  0.00    +0.000 N 
ATOM     11  C   UNL     1       3.309   4.354  19.476  0.00  0.00    +0.000 C 
ATOM     12  O   UNL     1       2.988   4.876  20.549  0.00  0.00    +0.000 OA
ENDROOT
BRANCH   9  13
ATOM     13  C   UNL     1       2.407   7.353  18.921  0.00  0.00    +0.000 C 
ATOM     14  O   UNL     1       1.671   7.853  18.080  0.00  0.00    +0.000 OA
BRANCH  13  15
ATOM     15  O   UNL     1       2.140   7.501  20.235  0.00  0.00    +0.000 OA
ATOM     16  H   UNL     1       2.018   8.444  20.510  0.00  0.00    +0.000 HD
ENDBRANCH  13  15
ENDBRANCH   9  13
BRANCH  11  17
ATOM     17  C   UNL     1       3.287   2.838  19.351  0.00  0.00    +0.000 C 
ATOM     18  C   UNL     1       4.511   2.274  20.077  0.00  0.00    +0.000 C 
BRANCH  17  19
ATOM     19  C   UNL     1       1.967   2.283  19.914  0.00  0.00    +0.000 C 
BRANCH  19  20
ATOM     20  S   UNL     1       0.535   2.645  18.842  0.00  0.00    +0.000 S 
ATOM     21  H   UNL     1       0.671   3.979  18.825  0.00  0.00    +0.000 HD
ENDBRANCH  19  20
ENDBRANCH  17  19
ENDBRANCH  11  17
TORSDOF 5
ENDMDL
