MODEL 1
REMARK VINA RESULT:      -8.3      0.000      0.000
REMARK  Name = 
REMARK  6 active torsions:
REMARK  status: ('A' for Active; 'I' for Inactive)
REMARK    1  A    between atoms: C_1  and  C_2
REMARK    2  A    between atoms: C_5  and  C_6
REMARK    3  A    between atoms: C_8  and  S_9
REMARK    4  A    between atoms: S_9  and  N_12
REMARK    5  A    between atoms: N_12  and  C_13
REMARK    6  A    between atoms: C_21  and  C_22
REMARK                            x       y       z     vdW  Elec       q    Type
REMARK                         _______ _______ _______ _____ _____    ______ ____
ROOT
ATOM      1  S   UNL     1       4.269   3.099  18.800  0.00  0.00    +0.000 S 
ATOM      2  O   UNL     1       5.200   2.735  19.844  0.00  0.00    +0.000 OA
ATOM      3  O   UNL     1       3.337   2.131  18.259  0.00  0.00    +0.000 OA
ENDROOT
BRANCH   1   6
ATOM      4  C   UNL     1       2.323   6.496  19.544  0.00  0.00    +0.000 A 
ATOM      5  C   UNL     1       3.182   5.636  18.891  0.00  0.00    +0.000 A 
ATOM      6  C   UNL     1       3.253   4.335  19.490  0.00  0.00    +0.000 A 
ATOM      7  C   UNL     1       2.441   4.234  20.606  0.00  0.00    +0.000 A 
ATOM      8  C   UNL     1       2.150   3.100  21.532  0.00  0.00    +0.000 C 
ATOM      9  S   UNL     1       1.620   5.720  20.900  0.00  0.00    +0.000 S 
BRANCH   4  14
ATOM     10  C   UNL     1       0.444  10.954  20.212  0.00  0.00    +0.000 C 
ATOM     11  C   UNL     1       1.164   9.911  19.439  0.00  0.00    +0.000 A 
ATOM     12  C   UNL     1       1.689  10.036  18.169  0.00  0.00    +0.000 A 
ATOM     13  S   UNL     1       2.428   8.569  17.692  0.00  0.00    +0.000 S 
ATOM     14  C   UNL     1       1.996   7.862  19.204  0.00  0.00    +0.000 A 
ATOM     15  N   UNL     1       1.349   8.669  20.023  0.00  0.00    +0.000 NA
ENDBRANCH   4  14
ENDBRANCH   1   6
BRANCH   1  16
ATOM     16  N   UNL     1       5.178   3.747  17.516  0.00  0.00    +0.000 N 
ATOM     17  H   UNL     1       4.494   4.028  16.808  0.00  0.00    +0.000 HD
BRANCH  16  18
ATOM     18  C   UNL     1       6.069   4.837  17.834  0.00  0.00    +0.000 A 
ATOM     19  C   UNL     1       6.846   4.742  18.993  0.00  0.00    +0.000 A 
ATOM     20  C   UNL     1       7.745   5.760  19.319  0.00  0.00    +0.000 A 
ATOM     21  C   UNL     1       7.852   6.876  18.495  0.00  0.00    +0.000 A 
ATOM     22  F   UNL     1       8.736   7.837  18.797  0.00  0.00    +0.000 F 
ATOM     23  C   UNL     1       7.073   6.999  17.350  0.00  0.00    +0.000 A 
ATOM     24  C   UNL     1       6.180   5.978  17.018  0.00  0.00    +0.000 A 
ATOM     25 CL   UNL     1       5.276   6.125  15.554  0.00  0.00    +0.000 Cl
ENDBRANCH  16  18
ENDBRANCH   1  16
TORSDOF 4
ENDMDL
MODEL 2
REMARK VINA RESULT:      -7.8      1.132      1.272
REMARK  Name = 
REMARK  6 active torsions:
REMARK  status: ('A' for Active; 'I' for Inactive)
REMARK    1  A    between atoms: C_1  and  C_2
REMARK    2  A    between atoms: C_5  and  C_6
REMARK    3  A    between atoms: C_8  and  S_9
REMARK    4  A    between atoms: S_9  and  N_12
REMARK    5  A    between atoms: N_12  and  C_13
REMARK    6  A    between atoms: C_21  and  C_22
REMARK                            x       y       z     vdW  Elec       q    Type
REMARK                         _______ _______ _______ _____ _____    ______ ____
ROOT
ATOM      1  S   UNL     1       3.026   3.135  17.717  0.00  0.00    +0.000 S 
ATOM      2  O   UNL     1       2.435   1.932  18.258  0.00  0.00    +0.000 OA
ATOM      3  O   UNL     1       2.618   3.652  16.427  0.00  0.00    +0.000 OA
ENDROOT
BRANCH   1   6
ATOM      4  C   UNL     1       2.075   6.628  19.381  0.00  0.00    +0.000 A 
ATOM      5  C   UNL     1       2.409   5.744  18.376  0.00  0.00    +0.000 A 
ATOM      6  C   UNL     1       2.616   4.403  18.839  0.00  0.00    +0.000 A 
ATOM      7  C   UNL     1       2.439   4.295  20.207  0.00  0.00    +0.000 A 
ATOM      8  C   UNL     1       2.508   3.128  21.136  0.00  0.00    +0.000 C 
ATOM      9  S   UNL     1       2.034   5.822  20.892  0.00  0.00    +0.000 S 
BRANCH   4  14
ATOM     10  C   UNL     1       0.508  11.009  20.865  0.00  0.00    +0.000 C 
ATOM     11  C   UNL     1       1.082  10.061  19.878  0.00  0.00    +0.000 A 
ATOM     12  C   UNL     1       1.464  10.345  18.582  0.00  0.00    +0.000 A 
ATOM     13  S   UNL     1       2.070   8.935  17.827  0.00  0.00    +0.000 S 
ATOM     14  C   UNL     1       1.780   8.039  19.270  0.00  0.00    +0.000 A 
ATOM     15  N   UNL     1       1.271   8.744  20.262  0.00  0.00    +0.000 NA
ENDBRANCH   4  14
ENDBRANCH   1   6
BRANCH   1  16
ATOM     16  N   UNL     1       4.712   2.903  17.696  0.00  0.00    +0.000 N 
ATOM     17  H   UNL     1       4.901   2.329  16.869  0.00  0.00    +0.000 HD
BRANCH  16  18
ATOM     18  C   UNL     1       5.532   4.091  17.700  0.00  0.00    +0.000 A 
ATOM     19  C   UNL     1       5.923   4.623  18.932  0.00  0.00    +0.000 A 
ATOM     20  C   UNL     1       6.744   5.752  18.978  0.00  0.00    +0.000 A 
ATOM     21  C   UNL     1       7.157   6.354  17.794  0.00  0.00    +0.000 A 
ATOM     22  F   UNL     1       7.967   7.420  17.843  0.00  0.00    +0.000 F 
ATOM     23  C   UNL     1       6.760   5.853  16.559  0.00  0.00    +0.000 A 
ATOM     24  C   UNL     1       5.947   4.719  16.511  0.00  0.00    +0.000 A 
ATOM     25 CL   UNL     1       5.528   4.077  14.964  0.00  0.00    +0.000 Cl
ENDBRANCH  16  18
ENDBRANCH   1  16
TORSDOF 4
ENDMDL
MODEL 3
REMARK VINA RESULT:      -7.8      3.361      6.466
REMARK  Name = 
REMARK  6 active torsions:
REMARK  status: ('A' for Active; 'I' for Inactive)
REMARK    1  A    between atoms: C_1  and  C_2
REMARK    2  A    between atoms: C_5  and  C_6
REMARK    3  A    between atoms: C_8  and  S_9
REMARK    4  A    between atoms: S_9  and  N_12
REMARK    5  A    between atoms: N_12  and  C_13
REMARK    6  A    between atoms: C_21  and  C_22
REMARK                            x       y       z     vdW  Elec       q    Type
REMARK                         _______ _______ _______ _____ _____    ______ ____
ROOT
ATOM      1  S   UNL     1       1.927   5.269  20.465  0.00  0.00    +0.000 S 
ATOM      2  O   UNL     1       0.501   5.401  20.274  0.00  0.00    +0.000 OA
ATOM      3  O   UNL     1       2.465   4.523  21.585  0.00  0.00    +0.000 OA
ENDROOT
BRANCH   1   6
ATOM      4  C   UNL     1       4.002   4.106  17.268  0.00  0.00    +0.000 A 
ATOM      5  C   UNL     1       3.656   4.897  18.344  0.00  0.00    +0.000 A 
ATOM      6  C   UNL     1       2.511   4.418  19.061  0.00  0.00    +0.000 A 
ATOM      7  C   UNL     1       1.998   3.259  18.504  0.00  0.00    +0.000 A 
ATOM      8  C   UNL     1       0.858   2.378  18.897  0.00  0.00    +0.000 C 
ATOM      9  S   UNL     1       2.915   2.790  17.123  0.00  0.00    +0.000 S 
BRANCH   4  14
ATOM     10  C   UNL     1       6.369   3.824  13.006  0.00  0.00    +0.000 C 
ATOM     11  C   UNL     1       6.242   4.182  14.441  0.00  0.00    +0.000 A 
ATOM     12  C   UNL     1       7.202   4.776  15.235  0.00  0.00    +0.000 A 
ATOM     13  S   UNL     1       6.600   4.993  16.821  0.00  0.00    +0.000 S 
ATOM     14  C   UNL     1       5.104   4.278  16.349  0.00  0.00    +0.000 A 
ATOM     15  N   UNL     1       5.047   3.907  15.085  0.00  0.00    +0.000 NA
ENDBRANCH   4  14
ENDBRANCH   1   6
BRANCH   1  16
ATOM     16  N   UNL     1       2.579   6.840  20.502  0.00  0.00    +0.000 N 
ATOM     17  H   UNL     1       3.291   6.860  19.766  0.00  0.00    +0.000 HD
BRANCH  16  18
ATOM     18  C   UNL     1       1.650   7.934  20.353  0.00  0.00    +0.000 A 
ATOM     19  C   UNL     1       0.860   8.287  21.451  0.00  0.00    +0.000 A 
ATOM     20  C   UNL     1      -0.028   9.363  21.357  0.00  0.00    +0.000 A 
ATOM     21  C   UNL     1      -0.135  10.067  20.162  0.00  0.00    +0.000 A 
ATOM     22  F   UNL     1      -0.967  11.114  20.086  0.00  0.00    +0.000 F 
ATOM     23  C   UNL     1       0.626   9.716  19.053  0.00  0.00    +0.000 A 
ATOM     24  C   UNL     1       1.521   8.649  19.148  0.00  0.00    +0.000 A 
ATOM     25 CL   UNL     1       2.504   8.280  17.776  0.00  0.00    +0.000 Cl
ENDBRANCH  16  18
ENDBRANCH   1  16
TORSDOF 4
ENDMDL
MODEL 4
REMARK VINA RESULT:      -7.7      3.557      6.417
REMARK  Name = 
REMARK  6 active torsions:
REMARK  status: ('A' for Active; 'I' for Inactive)
REMARK    1  A    between atoms: C_1  and  C_2
REMARK    2  A    between atoms: C_5  and  C_6
REMARK    3  A    between atoms: C_8  and  S_9
REMARK    4  A    between atoms: S_9  and  N_12
REMARK    5  A    between atoms: N_12  and  C_13
REMARK    6  A    between atoms: C_21  and  C_22
REMARK                            x       y       z     vdW  Elec       q    Type
REMARK                         _______ _______ _______ _____ _____    ______ ____
ROOT
ATOM      1  S   UNL     1       1.937   5.248  20.535  0.00  0.00    +0.000 S 
ATOM      2  O   UNL     1       0.518   5.431  20.328  0.00  0.00    +0.000 OA
ATOM      3  O   UNL     1       2.434   4.467  21.649  0.00  0.00    +0.000 OA
ENDROOT
BRANCH   1   6
ATOM      4  C   UNL     1       3.998   4.079  17.332  0.00  0.00    +0.000 A 
ATOM      5  C   UNL     1       3.662   4.867  18.414  0.00  0.00    +0.000 A 
ATOM      6  C   UNL     1       2.509   4.399  19.125  0.00  0.00    +0.000 A 
ATOM      7  C   UNL     1       1.981   3.252  18.558  0.00  0.00    +0.000 A 
ATOM      8  C   UNL     1       0.828   2.385  18.944  0.00  0.00    +0.000 C 
ATOM      9  S   UNL     1       2.893   2.780  17.176  0.00  0.00    +0.000 S 
BRANCH   4  14
ATOM     10  C   UNL     1       6.347   3.851  13.056  0.00  0.00    +0.000 C 
ATOM     11  C   UNL     1       6.235   4.167  14.502  0.00  0.00    +0.000 A 
ATOM     12  C   UNL     1       7.217   4.702  15.312  0.00  0.00    +0.000 A 
ATOM     13  S   UNL     1       6.625   4.891  16.905  0.00  0.00    +0.000 S 
ATOM     14  C   UNL     1       5.104   4.243  16.415  0.00  0.00    +0.000 A 
ATOM     15  N   UNL     1       5.033   3.913  15.141  0.00  0.00    +0.000 NA
ENDBRANCH   4  14
ENDBRANCH   1   6
BRANCH   1  16
ATOM     16  N   UNL     1       2.640   6.795  20.605  0.00  0.00    +0.000 N 
ATOM     17  H   UNL     1       3.591   6.682  20.242  0.00  0.00    +0.000 HD
BRANCH  16  18
ATOM     18  C   UNL     1       1.947   7.857  19.916  0.00  0.00    +0.000 A 
ATOM     19  C   UNL     1       2.136   7.988  18.537  0.00  0.00    +0.000 A 
ATOM     20  C   UNL     1       1.457   8.982  17.828  0.00  0.00    +0.000 A 
ATOM     21  C   UNL     1       0.606   9.852  18.503  0.00  0.00    +0.000 A 
ATOM     22  F   UNL     1      -0.064  10.785  17.815  0.00  0.00    +0.000 F 
ATOM     23  C   UNL     1       0.422   9.752  19.877  0.00  0.00    +0.000 A 
ATOM     24  C   UNL     1       1.093   8.753  20.586  0.00  0.00    +0.000 A 
ATOM     25 CL   UNL     1       0.791   8.607  22.280  0.00  0.00    +0.000 Cl
ENDBRANCH  16  18
ENDBRANCH   1  16
TORSDOF 4
ENDMDL
MODEL 5
REMARK VINA RESULT:      -7.6      4.202      5.721
REMARK  Name = 
REMARK  6 active torsions:
REMARK  status: ('A' for Active; 'I' for Inactive)
REMARK    1  A    between atoms: C_1  and  C_2
REMARK    2  A    between atoms: C_5  and  C_6
REMARK    3  A    between atoms: C_8  and  S_9
REMARK    4  A    between atoms: S_9  and  N_12
REMARK    5  A    between atoms: N_12  and  C_13
REMARK    6  A    between atoms: C_21  and  C_22
REMARK                            x       y       z     vdW  Elec       q    Type
REMARK                         _______ _______ _______ _____ _____    ______ ____
ROOT
ATOM      1  S   UNL     1       6.431   6.689  16.218  0.00  0.00    +0.000 S 
ATOM      2  O   UNL     1       5.273   6.841  15.367  0.00  0.00    +0.000 OA
ATOM      3  O   UNL     1       7.102   7.844  16.780  0.00  0.00    +0.000 OA
ENDROOT
BRANCH   1   6
ATOM      4  C   UNL     1       4.241   4.629  18.833  0.00  0.00    +0.000 A 
ATOM      5  C   UNL     1       4.521   5.333  17.681  0.00  0.00    +0.000 A 
ATOM      6  C   UNL     1       5.876   5.796  17.607  0.00  0.00    +0.000 A 
ATOM      7  C   UNL     1       6.607   5.434  18.725  0.00  0.00    +0.000 A 
ATOM      8  C   UNL     1       8.038   5.646  19.097  0.00  0.00    +0.000 C 
ATOM      9  S   UNL     1       5.629   4.551  19.834  0.00  0.00    +0.000 S 
BRANCH   4  14
ATOM     10  C   UNL     1       1.076   2.421  21.826  0.00  0.00    +0.000 C 
ATOM     11  C   UNL     1       1.505   2.999  20.527  0.00  0.00    +0.000 A 
ATOM     12  C   UNL     1       0.766   3.056  19.363  0.00  0.00    +0.000 A 
ATOM     13  S   UNL     1       1.677   3.812  18.128  0.00  0.00    +0.000 S 
ATOM     14  C   UNL     1       2.995   4.008  19.222  0.00  0.00    +0.000 A 
ATOM     15  N   UNL     1       2.772   3.548  20.438  0.00  0.00    +0.000 NA
ENDBRANCH   4  14
ENDBRANCH   1   6
BRANCH   1  16
ATOM     16  N   UNL     1       7.573   5.769  15.357  0.00  0.00    +0.000 N 
ATOM     17  H   UNL     1       8.064   5.210  16.061  0.00  0.00    +0.000 HD
BRANCH  16  18
ATOM     18  C   UNL     1       7.068   4.934  14.294  0.00  0.00    +0.000 A 
ATOM     19  C   UNL     1       6.009   4.067  14.578  0.00  0.00    +0.000 A 
ATOM     20  C   UNL     1       5.470   3.266  13.567  0.00  0.00    +0.000 A 
ATOM     21  C   UNL     1       6.002   3.323  12.283  0.00  0.00    +0.000 A 
ATOM     22  F   UNL     1       5.463   2.574  11.312  0.00  0.00    +0.000 F 
ATOM     23  C   UNL     1       7.070   4.162  11.987  0.00  0.00    +0.000 A 
ATOM     24  C   UNL     1       7.604   4.970  12.993  0.00  0.00    +0.000 A 
ATOM     25 CL   UNL     1       8.883   6.054  12.579  0.00  0.00    +0.000 Cl
ENDBRANCH  16  18
ENDBRANCH   1  16
TORSDOF 4
ENDMDL
MODEL 6
REMARK VINA RESULT:      -7.5      1.434      1.667
REMARK  Name = 
REMARK  6 active torsions:
REMARK  status: ('A' for Active; 'I' for Inactive)
REMARK    1  A    between atoms: C_1  and  C_2
REMARK    2  A    between atoms: C_5  and  C_6
REMARK    3  A    between atoms: C_8  and  S_9
REMARK    4  A    between atoms: S_9  and  N_12
REMARK    5  A    between atoms: N_12  and  C_13
REMARK    6  A    between atoms: C_21  and  C_22
REMARK                            x       y       z     vdW  Elec       q    Type
REMARK                         _______ _______ _______ _____ _____    ______ ____
ROOT
ATOM      1  S   UNL     1       3.043   3.038  17.618  0.00  0.00    +0.000 S 
ATOM      2  O   UNL     1       2.520   1.761  18.045  0.00  0.00    +0.000 OA
ATOM      3  O   UNL     1       2.541   3.690  16.426  0.00  0.00    +0.000 OA
ENDROOT
BRANCH   1   6
ATOM      4  C   UNL     1       2.086   6.271  19.742  0.00  0.00    +0.000 A 
ATOM      5  C   UNL     1       2.377   5.524  18.620  0.00  0.00    +0.000 A 
ATOM      6  C   UNL     1       2.670   4.151  18.907  0.00  0.00    +0.000 A 
ATOM      7  C   UNL     1       2.601   3.879  20.262  0.00  0.00    +0.000 A 
ATOM      8  C   UNL     1       2.786   2.618  21.041  0.00  0.00    +0.000 C 
ATOM      9  S   UNL     1       2.191   5.298  21.148  0.00  0.00    +0.000 S 
BRANCH   4  14
ATOM     10  C   UNL     1       1.616  10.869  18.165  0.00  0.00    +0.000 C 
ATOM     11  C   UNL     1       1.485   9.782  19.168  0.00  0.00    +0.000 A 
ATOM     12  C   UNL     1       0.977   9.891  20.446  0.00  0.00    +0.000 A 
ATOM     13  S   UNL     1       1.029   8.371  21.229  0.00  0.00    +0.000 S 
ATOM     14  C   UNL     1       1.729   7.670  19.818  0.00  0.00    +0.000 A 
ATOM     15  N   UNL     1       1.906   8.510  18.818  0.00  0.00    +0.000 NA
ENDBRANCH   4  14
ENDBRANCH   1   6
BRANCH   1  16
ATOM     16  N   UNL     1       4.730   2.869  17.470  0.00  0.00    +0.000 N 
ATOM     17  H   UNL     1       4.881   2.399  16.573  0.00  0.00    +0.000 HD
BRANCH  16  18
ATOM     18  C   UNL     1       5.515   4.076  17.561  0.00  0.00    +0.000 A 
ATOM     19  C   UNL     1       5.930   4.504  18.826  0.00  0.00    +0.000 A 
ATOM     20  C   UNL     1       6.721   5.649  18.953  0.00  0.00    +0.000 A 
ATOM     21  C   UNL     1       7.078   6.371  17.819  0.00  0.00    +0.000 A 
ATOM     22  F   UNL     1       7.858   7.452  17.944  0.00  0.00    +0.000 F 
ATOM     23  C   UNL     1       6.656   5.974  16.555  0.00  0.00    +0.000 A 
ATOM     24  C   UNL     1       5.874   4.825  16.425  0.00  0.00    +0.000 A 
ATOM     25 CL   UNL     1       5.425   4.316  14.837  0.00  0.00    +0.000 Cl
ENDBRANCH  16  18
ENDBRANCH   1  16
TORSDOF 4
ENDMDL
MODEL 7
REMARK VINA RESULT:      -7.5      0.916      1.132
REMARK  Name = 
REMARK  6 active torsions:
REMARK  status: ('A' for Active; 'I' for Inactive)
REMARK    1  A    between atoms: C_1  and  C_2
REMARK    2  A    between atoms: C_5  and  C_6
REMARK    3  A    between atoms: C_8  and  S_9
REMARK    4  A    between atoms: S_9  and  N_12
REMARK    5  A    between atoms: N_12  and  C_13
REMARK    6  A    between atoms: C_21  and  C_22
REMARK                            x       y       z     vdW  Elec       q    Type
REMARK                         _______ _______ _______ _____ _____    ______ ____
ROOT
ATOM      1  S   UNL     1       4.332   3.177  18.601  0.00  0.00    +0.000 S 
ATOM      2  O   UNL     1       5.355   2.866  19.572  0.00  0.00    +0.000 OA
ATOM      3  O   UNL     1       3.495   2.137  18.038  0.00  0.00    +0.000 OA
ENDROOT
BRANCH   1   6
ATOM      4  C   UNL     1       2.207   6.323  19.812  0.00  0.00    +0.000 A 
ATOM      5  C   UNL     1       3.152   5.626  19.088  0.00  0.00    +0.000 A 
ATOM      6  C   UNL     1       3.214   4.233  19.420  0.00  0.00    +0.000 A 
ATOM      7  C   UNL     1       2.306   3.896  20.410  0.00  0.00    +0.000 A 
ATOM      8  C   UNL     1       1.972   2.593  21.060  0.00  0.00    +0.000 C 
ATOM      9  S   UNL     1       1.411   5.278  20.912  0.00  0.00    +0.000 S 
BRANCH   4  14
ATOM     10  C   UNL     1       1.924  10.742  17.754  0.00  0.00    +0.000 C 
ATOM     11  C   UNL     1       1.702   9.762  18.846  0.00  0.00    +0.000 A 
ATOM     12  C   UNL     1       1.100  10.002  20.065  0.00  0.00    +0.000 A 
ATOM     13  S   UNL     1       1.069   8.568  20.997  0.00  0.00    +0.000 S 
ATOM     14  C   UNL     1       1.865   7.724  19.721  0.00  0.00    +0.000 A 
ATOM     15  N   UNL     1       2.130   8.459  18.659  0.00  0.00    +0.000 NA
ENDBRANCH   4  14
ENDBRANCH   1   6
BRANCH   1  16
ATOM     16  N   UNL     1       5.085   4.012  17.324  0.00  0.00    +0.000 N 
ATOM     17  H   UNL     1       4.323   4.379  16.747  0.00  0.00    +0.000 HD
BRANCH  16  18
ATOM     18  C   UNL     1       6.010   5.059  17.686  0.00  0.00    +0.000 A 
ATOM     19  C   UNL     1       6.904   4.820  18.734  0.00  0.00    +0.000 A 
ATOM     20  C   UNL     1       7.838   5.796  19.093  0.00  0.00    +0.000 A 
ATOM     21  C   UNL     1       7.861   7.012  18.417  0.00  0.00    +0.000 A 
ATOM     22  F   UNL     1       8.776   7.933  18.747  0.00  0.00    +0.000 F 
ATOM     23  C   UNL     1       6.965   7.276  17.388  0.00  0.00    +0.000 A 
ATOM     24  C   UNL     1       6.038   6.298  17.021  0.00  0.00    +0.000 A 
ATOM     25 CL   UNL     1       4.985   6.627  15.692  0.00  0.00    +0.000 Cl
ENDBRANCH  16  18
ENDBRANCH   1  16
TORSDOF 4
ENDMDL
MODEL 8
REMARK VINA RESULT:      -7.4      3.033      4.626
REMARK  Name = 
REMARK  6 active torsions:
REMARK  status: ('A' for Active; 'I' for Inactive)
REMARK    1  A    between atoms: C_1  and  C_2
REMARK    2  A    between atoms: C_5  and  C_6
REMARK    3  A    between atoms: C_8  and  S_9
REMARK    4  A    between atoms: S_9  and  N_12
REMARK    5  A    between atoms: N_12  and  C_13
REMARK    6  A    between atoms: C_21  and  C_22
REMARK                            x       y       z     vdW  Elec       q    Type
REMARK                         _______ _______ _______ _____ _____    ______ ____
ROOT
ATOM      1  S   UNL     1       5.510   4.496  18.366  0.00  0.00    +0.000 S 
ATOM      2  O   UNL     1       6.417   4.482  17.241  0.00  0.00    +0.000 OA
ATOM      3  O   UNL     1       6.000   4.673  19.718  0.00  0.00    +0.000 OA
ENDROOT
BRANCH   1   6
ATOM      4  C   UNL     1       2.813   7.400  18.781  0.00  0.00    +0.000 A 
ATOM      5  C   UNL     1       3.562   6.297  19.134  0.00  0.00    +0.000 A 
ATOM      6  C   UNL     1       4.463   5.864  18.106  0.00  0.00    +0.000 A 
ATOM      7  C   UNL     1       4.374   6.655  16.973  0.00  0.00    +0.000 A 
ATOM      8  C   UNL     1       5.111   6.631  15.675  0.00  0.00    +0.000 C 
ATOM      9  S   UNL     1       3.197   7.894  17.187  0.00  0.00    +0.000 S 
BRANCH   4  14
ATOM     10  C   UNL     1      -0.371  10.943  19.857  0.00  0.00    +0.000 C 
ATOM     11  C   UNL     1       0.370   9.686  20.131  0.00  0.00    +0.000 A 
ATOM     12  C   UNL     1       0.277   8.899  21.260  0.00  0.00    +0.000 A 
ATOM     13  S   UNL     1       1.321   7.551  21.124  0.00  0.00    +0.000 S 
ATOM     14  C   UNL     1       1.833   8.107  19.575  0.00  0.00    +0.000 A 
ATOM     15  N   UNL     1       1.257   9.223  19.174  0.00  0.00    +0.000 NA
ENDBRANCH   4  14
ENDBRANCH   1   6
BRANCH   1  16
ATOM     16  N   UNL     1       4.607   3.055  18.305  0.00  0.00    +0.000 N 
ATOM     17  H   UNL     1       5.293   2.297  18.367  0.00  0.00    +0.000 HD
BRANCH  16  18
ATOM     18  C   UNL     1       3.569   2.895  19.295  0.00  0.00    +0.000 A 
ATOM     19  C   UNL     1       3.935   2.480  20.579  0.00  0.00    +0.000 A 
ATOM     20  C   UNL     1       2.964   2.346  21.575  0.00  0.00    +0.000 A 
ATOM     21  C   UNL     1       1.631   2.610  21.279  0.00  0.00    +0.000 A 
ATOM     22  F   UNL     1       0.708   2.506  22.244  0.00  0.00    +0.000 F 
ATOM     23  C   UNL     1       1.244   3.002  20.002  0.00  0.00    +0.000 A 
ATOM     24  C   UNL     1       2.215   3.146  19.008  0.00  0.00    +0.000 A 
ATOM     25 CL   UNL     1       1.715   3.703  17.452  0.00  0.00    +0.000 Cl
ENDBRANCH  16  18
ENDBRANCH   1  16
TORSDOF 4
ENDMDL
MODEL 9
REMARK VINA RESULT:      -7.4      4.387      7.322
REMARK  Name = 
REMARK  6 active torsions:
REMARK  status: ('A' for Active; 'I' for Inactive)
REMARK    1  A    between atoms: C_1  and  C_2
REMARK    2  A    between atoms: C_5  and  C_6
REMARK    3  A    between atoms: C_8  and  S_9
REMARK    4  A    between atoms: S_9  and  N_12
REMARK    5  A    between atoms: N_12  and  C_13
REMARK    6  A    between atoms: C_21  and  C_22
REMARK                            x       y       z     vdW  Elec       q    Type
REMARK                         _______ _______ _______ _____ _____    ______ ____
ROOT
ATOM      1  S   UNL     1       5.165   4.471  18.337  0.00  0.00    +0.000 S 
ATOM      2  O   UNL     1       6.304   4.287  19.208  0.00  0.00    +0.000 OA
ATOM      3  O   UNL     1       4.257   5.584  18.521  0.00  0.00    +0.000 OA
ENDROOT
BRANCH   1   6
ATOM      4  C   UNL     1       5.966   4.266  14.439  0.00  0.00    +0.000 A 
ATOM      5  C   UNL     1       5.354   3.944  15.633  0.00  0.00    +0.000 A 
ATOM      6  C   UNL     1       5.829   4.715  16.745  0.00  0.00    +0.000 A 
ATOM      7  C   UNL     1       6.811   5.615  16.369  0.00  0.00    +0.000 A 
ATOM      8  C   UNL     1       7.576   6.641  17.138  0.00  0.00    +0.000 C 
ATOM      9  S   UNL     1       7.134   5.495  14.681  0.00  0.00    +0.000 S 
BRANCH   4  14
ATOM     10  C   UNL     1       3.322   2.994  10.535  0.00  0.00    +0.000 C 
ATOM     11  C   UNL     1       4.578   3.100  11.320  0.00  0.00    +0.000 A 
ATOM     12  C   UNL     1       5.829   2.657  10.944  0.00  0.00    +0.000 A 
ATOM     13  S   UNL     1       6.967   2.999  12.174  0.00  0.00    +0.000 S 
ATOM     14  C   UNL     1       5.719   3.708  13.129  0.00  0.00    +0.000 A 
ATOM     15  N   UNL     1       4.527   3.702  12.566  0.00  0.00    +0.000 NA
ENDBRANCH   4  14
ENDBRANCH   1   6
BRANCH   1  16
ATOM     16  N   UNL     1       4.264   3.028  18.374  0.00  0.00    +0.000 N 
ATOM     17  H   UNL     1       4.954   2.273  18.418  0.00  0.00    +0.000 HD
BRANCH  16  18
ATOM     18  C   UNL     1       3.287   2.898  19.428  0.00  0.00    +0.000 A 
ATOM     19  C   UNL     1       3.706   2.388  20.661  0.00  0.00    +0.000 A 
ATOM     20  C   UNL     1       2.798   2.278  21.717  0.00  0.00    +0.000 A 
ATOM     21  C   UNL     1       1.473   2.660  21.532  0.00  0.00    +0.000 A 
ATOM     22  F   UNL     1       0.614   2.578  22.556  0.00  0.00    +0.000 F 
ATOM     23  C   UNL     1       1.033   3.148  20.307  0.00  0.00    +0.000 A 
ATOM     24  C   UNL     1       1.941   3.268  19.253  0.00  0.00    +0.000 A 
ATOM     25 CL   UNL     1       1.382   3.943  17.765  0.00  0.00    +0.000 Cl
ENDBRANCH  16  18
ENDBRANCH   1  16
TORSDOF 4
ENDMDL
