MODEL 1
REMARK VINA RESULT:      -7.3      0.000      0.000
REMARK  Name = 
REMARK  5 active torsions:
REMARK  status: ('A' for Active; 'I' for Inactive)
REMARK    1  A    between atoms: C_1  and  O_2
REMARK    2  A    between atoms: O_2  and  C_3
REMARK    3  A    between atoms: C_3  and  C_5
REMARK    4  A    between atoms: C_8  and  C_9
REMARK    5  A    between atoms: C_9  and  N_10
REMARK                            x       y       z     vdW  Elec       q    Type
REMARK                         _______ _______ _______ _____ _____    ______ ____
ROOT
ATOM      1  C   UNL     1       6.619   5.135  15.361  0.00  0.00    +0.000 A 
ATOM      2  C   UNL     1       5.467   5.936  15.373  0.00  0.00    +0.000 A 
ATOM      3  C   UNL     1       4.830   6.254  16.595  0.00  0.00    +0.000 A 
ATOM      4  C   UNL     1       5.280   5.760  17.832  0.00  0.00    +0.000 A 
ATOM      5  C   UNL     1       6.470   5.009  17.803  0.00  0.00    +0.000 A 
ATOM      6  C   UNL     1       7.136   4.705  16.586  0.00  0.00    +0.000 A 
ENDROOT
BRANCH   1   7
ATOM      7  C   UNL     1       7.231   4.807  14.029  0.00  0.00    +0.000 C 
ATOM      8  O   UNL     1       8.070   5.503  13.475  0.00  0.00    +0.000 OA
BRANCH   7  10
ATOM      9  C   UNL     1       6.559   3.664  12.066  0.00  0.00    +0.000 C 
ATOM     10  O   UNL     1       6.705   3.661  13.493  0.00  0.00    +0.000 OA
ENDBRANCH   7  10
ENDBRANCH   1   7
BRANCH   4  11
ATOM     11  C   UNL     1       4.516   6.038  19.158  0.00  0.00    +0.000 C 
BRANCH  11  12
ATOM     12  N   UNL     1       3.071   5.703  19.061  0.00  0.00    +0.000 N 
ATOM     13  C   UNL     1       2.207   6.263  20.138  0.00  0.00    +0.000 C 
ATOM     14  C   UNL     1       1.997   5.181  21.192  0.00  0.00    +0.000 C 
ATOM     15  C   UNL     1       1.808   4.071  20.234  0.00  0.00    +0.000 A 
ATOM     16  C   UNL     1       0.849   3.061  20.308  0.00  0.00    +0.000 A 
ATOM     17  C   UNL     1       0.649   2.285  19.181  0.00  0.00    +0.000 A 
ATOM     18  C   UNL     1       1.459   2.471  18.055  0.00  0.00    +0.000 A 
ATOM     19  C   UNL     1       2.455   3.479  18.007  0.00  0.00    +0.000 A 
ATOM     20  C   UNL     1       2.588   4.340  19.091  0.00  0.00    +0.000 A 
ENDBRANCH  11  12
ENDBRANCH   4  11
TORSDOF 4
ENDMDL
MODEL 2
REMARK VINA RESULT:      -7.2      0.989      1.868
REMARK  Name = 
REMARK  5 active torsions:
REMARK  status: ('A' for Active; 'I' for Inactive)
REMARK    1  A    between atoms: C_1  and  O_2
REMARK    2  A    between atoms: O_2  and  C_3
REMARK    3  A    between atoms: C_3  and  C_5
REMARK    4  A    between atoms: C_8  and  C_9
REMARK    5  A    between atoms: C_9  and  N_10
REMARK                            x       y       z     vdW  Elec       q    Type
REMARK                         _______ _______ _______ _____ _____    ______ ____
ROOT
ATOM      1  C   UNL     1       6.614   5.003  15.145  0.00  0.00    +0.000 A 
ATOM      2  C   UNL     1       5.382   5.616  15.419  0.00  0.00    +0.000 A 
ATOM      3  C   UNL     1       4.957   5.802  16.754  0.00  0.00    +0.000 A 
ATOM      4  C   UNL     1       5.709   5.353  17.855  0.00  0.00    +0.000 A 
ATOM      5  C   UNL     1       6.967   4.796  17.560  0.00  0.00    +0.000 A 
ATOM      6  C   UNL     1       7.418   4.628  16.224  0.00  0.00    +0.000 A 
ENDROOT
BRANCH   1   7
ATOM      7  C   UNL     1       6.995   4.806  13.705  0.00  0.00    +0.000 C 
ATOM      8  O   UNL     1       7.847   5.468  13.130  0.00  0.00    +0.000 OA
BRANCH   7  10
ATOM      9  C   UNL     1       6.750   3.353  11.851  0.00  0.00    +0.000 C 
ATOM     10  O   UNL     1       6.244   3.828  13.107  0.00  0.00    +0.000 OA
ENDBRANCH   7  10
ENDBRANCH   1   7
BRANCH   4  11
ATOM     11  C   UNL     1       5.186   5.477  19.315  0.00  0.00    +0.000 C 
BRANCH  11  12
ATOM     12  N   UNL     1       4.398   4.290  19.739  0.00  0.00    +0.000 N 
ATOM     13  C   UNL     1       4.800   2.997  19.118  0.00  0.00    +0.000 C 
ATOM     14  C   UNL     1       3.866   2.721  17.945  0.00  0.00    +0.000 C 
ATOM     15  C   UNL     1       2.631   3.163  18.627  0.00  0.00    +0.000 A 
ATOM     16  C   UNL     1       1.389   2.529  18.595  0.00  0.00    +0.000 A 
ATOM     17  C   UNL     1       0.440   2.932  19.515  0.00  0.00    +0.000 A 
ATOM     18  C   UNL     1       0.715   4.004  20.373  0.00  0.00    +0.000 A 
ATOM     19  C   UNL     1       1.970   4.663  20.370  0.00  0.00    +0.000 A 
ATOM     20  C   UNL     1       2.972   4.191  19.529  0.00  0.00    +0.000 A 
ENDBRANCH  11  12
ENDBRANCH   4  11
TORSDOF 4
ENDMDL
MODEL 3
REMARK VINA RESULT:      -7.0      1.033      2.139
REMARK  Name = 
REMARK  5 active torsions:
REMARK  status: ('A' for Active; 'I' for Inactive)
REMARK    1  A    between atoms: C_1  and  O_2
REMARK    2  A    between atoms: O_2  and  C_3
REMARK    3  A    between atoms: C_3  and  C_5
REMARK    4  A    between atoms: C_8  and  C_9
REMARK    5  A    between atoms: C_9  and  N_10
REMARK                            x       y       z     vdW  Elec       q    Type
REMARK                         _______ _______ _______ _____ _____    ______ ____
ROOT
ATOM      1  C   UNL     1       6.586   5.000  15.171  0.00  0.00    +0.000 A 
ATOM      2  C   UNL     1       7.363   4.528  16.240  0.00  0.00    +0.000 A 
ATOM      3  C   UNL     1       6.890   4.631  17.569  0.00  0.00    +0.000 A 
ATOM      4  C   UNL     1       5.662   5.239  17.887  0.00  0.00    +0.000 A 
ATOM      5  C   UNL     1       4.873   5.651  16.797  0.00  0.00    +0.000 A 
ATOM      6  C   UNL     1       5.324   5.528  15.456  0.00  0.00    +0.000 A 
ENDROOT
BRANCH   1   7
ATOM      7  C   UNL     1       7.158   4.890  13.787  0.00  0.00    +0.000 C 
ATOM      8  O   UNL     1       8.075   5.585  13.372  0.00  0.00    +0.000 OA
BRANCH   7  10
ATOM      9  C   UNL     1       7.074   3.692  11.745  0.00  0.00    +0.000 C 
ATOM     10  O   UNL     1       6.502   3.951  13.035  0.00  0.00    +0.000 OA
ENDBRANCH   7  10
ENDBRANCH   1   7
BRANCH   4  11
ATOM     11  C   UNL     1       5.197   5.433  19.359  0.00  0.00    +0.000 C 
BRANCH  11  12
ATOM     12  N   UNL     1       4.382   4.291  19.853  0.00  0.00    +0.000 N 
ATOM     13  C   UNL     1       4.790   2.948  19.355  0.00  0.00    +0.000 C 
ATOM     14  C   UNL     1       3.893   2.583  18.177  0.00  0.00    +0.000 C 
ATOM     15  C   UNL     1       2.641   3.090  18.778  0.00  0.00    +0.000 A 
ATOM     16  C   UNL     1       1.394   2.465  18.756  0.00  0.00    +0.000 A 
ATOM     17  C   UNL     1       0.420   2.951  19.608  0.00  0.00    +0.000 A 
ATOM     18  C   UNL     1       0.677   4.088  20.383  0.00  0.00    +0.000 A 
ATOM     19  C   UNL     1       1.938   4.735  20.368  0.00  0.00    +0.000 A 
ATOM     20  C   UNL     1       2.963   4.187  19.603  0.00  0.00    +0.000 A 
ENDBRANCH  11  12
ENDBRANCH   4  11
TORSDOF 4
ENDMDL
MODEL 4
REMARK VINA RESULT:      -6.9      0.614      1.206
REMARK  Name = 
REMARK  5 active torsions:
REMARK  status: ('A' for Active; 'I' for Inactive)
REMARK    1  A    between atoms: C_1  and  O_2
REMARK    2  A    between atoms: O_2  and  C_3
REMARK    3  A    between atoms: C_3  and  C_5
REMARK    4  A    between atoms: C_8  and  C_9
REMARK    5  A    between atoms: C_9  and  N_10
REMARK                            x       y       z     vdW  Elec       q    Type
REMARK                         _______ _______ _______ _____ _____    ______ ____
ROOT
ATOM      1  C   UNL     1       6.081   5.259  15.540  0.00  0.00    +0.000 A 
ATOM      2  C   UNL     1       6.194   4.565  16.754  0.00  0.00    +0.000 A 
ATOM      3  C   UNL     1       5.446   4.971  17.883  0.00  0.00    +0.000 A 
ATOM      4  C   UNL     1       4.599   6.093  17.863  0.00  0.00    +0.000 A 
ATOM      5  C   UNL     1       4.454   6.738  16.620  0.00  0.00    +0.000 A 
ATOM      6  C   UNL     1       5.179   6.324  15.472  0.00  0.00    +0.000 A 
ENDROOT
BRANCH   1   7
ATOM      7  C   UNL     1       6.926   4.798  14.387  0.00  0.00    +0.000 C 
ATOM      8  O   UNL     1       7.873   5.432  13.942  0.00  0.00    +0.000 OA
BRANCH   7  10
ATOM      9  C   UNL     1       6.211   3.620  12.462  0.00  0.00    +0.000 C 
ATOM     10  O   UNL     1       6.483   3.610  13.870  0.00  0.00    +0.000 OA
ENDBRANCH   7  10
ENDBRANCH   1   7
BRANCH   4  11
ATOM     11  C   UNL     1       3.854   6.587  19.137  0.00  0.00    +0.000 C 
BRANCH  11  12
ATOM     12  N   UNL     1       2.502   5.984  19.274  0.00  0.00    +0.000 N 
ATOM     13  C   UNL     1       1.889   6.084  20.628  0.00  0.00    +0.000 C 
ATOM     14  C   UNL     1       2.131   4.768  21.359  0.00  0.00    +0.000 C 
ATOM     15  C   UNL     1       1.856   3.896  20.198  0.00  0.00    +0.000 A 
ATOM     16  C   UNL     1       1.112   2.717  20.199  0.00  0.00    +0.000 A 
ATOM     17  C   UNL     1       0.731   2.199  18.975  0.00  0.00    +0.000 A 
ATOM     18  C   UNL     1       1.172   2.808  17.795  0.00  0.00    +0.000 A 
ATOM     19  C   UNL     1       1.959   3.986  17.808  0.00  0.00    +0.000 A 
ATOM     20  C   UNL     1       2.251   4.582  19.031  0.00  0.00    +0.000 A 
ENDBRANCH  11  12
ENDBRANCH   4  11
TORSDOF 4
ENDMDL
MODEL 5
REMARK VINA RESULT:      -6.9      2.828      4.145
REMARK  Name = 
REMARK  5 active torsions:
REMARK  status: ('A' for Active; 'I' for Inactive)
REMARK    1  A    between atoms: C_1  and  O_2
REMARK    2  A    between atoms: O_2  and  C_3
REMARK    3  A    between atoms: C_3  and  C_5
REMARK    4  A    between atoms: C_8  and  C_9
REMARK    5  A    between atoms: C_9  and  N_10
REMARK                            x       y       z     vdW  Elec       q    Type
REMARK                         _______ _______ _______ _____ _____    ______ ____
ROOT
ATOM      1  C   UNL     1       7.250   7.433  17.765  0.00  0.00    +0.000 A 
ATOM      2  C   UNL     1       6.074   7.408  17.001  0.00  0.00    +0.000 A 
ATOM      3  C   UNL     1       5.354   6.202  16.834  0.00  0.00    +0.000 A 
ATOM      4  C   UNL     1       5.792   4.981  17.377  0.00  0.00    +0.000 A 
ATOM      5  C   UNL     1       6.940   5.040  18.189  0.00  0.00    +0.000 A 
ATOM      6  C   UNL     1       7.657   6.249  18.387  0.00  0.00    +0.000 A 
ENDROOT
BRANCH   1   7
ATOM      7  C   UNL     1       7.986   8.738  17.878  0.00  0.00    +0.000 C 
ATOM      8  O   UNL     1       7.843   9.670  17.099  0.00  0.00    +0.000 OA
BRANCH   7  10
ATOM      9  C   UNL     1       9.288  10.038  19.368  0.00  0.00    +0.000 C 
ATOM     10  O   UNL     1       8.864   8.740  18.930  0.00  0.00    +0.000 OA
ENDBRANCH   7  10
ENDBRANCH   1   7
BRANCH   4  11
ATOM     11  C   UNL     1       5.044   3.644  17.106  0.00  0.00    +0.000 C 
BRANCH  11  12
ATOM     12  N   UNL     1       4.312   3.151  18.302  0.00  0.00    +0.000 N 
ATOM     13  C   UNL     1       3.654   1.823  18.151  0.00  0.00    +0.000 C 
ATOM     14  C   UNL     1       2.183   2.054  17.818  0.00  0.00    +0.000 C 
ATOM     15  C   UNL     1       1.986   3.166  18.772  0.00  0.00    +0.000 A 
ATOM     16  C   UNL     1       0.891   3.355  19.615  0.00  0.00    +0.000 A 
ATOM     17  C   UNL     1       1.017   4.288  20.628  0.00  0.00    +0.000 A 
ATOM     18  C   UNL     1       2.178   5.063  20.719  0.00  0.00    +0.000 A 
ATOM     19  C   UNL     1       3.270   4.886  19.832  0.00  0.00    +0.000 A 
ATOM     20  C   UNL     1       3.201   3.872  18.882  0.00  0.00    +0.000 A 
ENDBRANCH  11  12
ENDBRANCH   4  11
TORSDOF 4
ENDMDL
MODEL 6
REMARK VINA RESULT:      -6.8      5.239      7.674
REMARK  Name = 
REMARK  5 active torsions:
REMARK  status: ('A' for Active; 'I' for Inactive)
REMARK    1  A    between atoms: C_1  and  O_2
REMARK    2  A    between atoms: O_2  and  C_3
REMARK    3  A    between atoms: C_3  and  C_5
REMARK    4  A    between atoms: C_8  and  C_9
REMARK    5  A    between atoms: C_9  and  N_10
REMARK                            x       y       z     vdW  Elec       q    Type
REMARK                         _______ _______ _______ _____ _____    ______ ____
ROOT
ATOM      1  C   UNL     1       0.411   9.807  21.180  0.00  0.00    +0.000 A 
ATOM      2  C   UNL     1       0.461  10.273  19.857  0.00  0.00    +0.000 A 
ATOM      3  C   UNL     1       1.131   9.527  18.860  0.00  0.00    +0.000 A 
ATOM      4  C   UNL     1       1.806   8.326  19.143  0.00  0.00    +0.000 A 
ATOM      5  C   UNL     1       1.693   7.847  20.461  0.00  0.00    +0.000 A 
ATOM      6  C   UNL     1       1.000   8.573  21.466  0.00  0.00    +0.000 A 
ENDROOT
BRANCH   1   7
ATOM      7  C   UNL     1      -0.288  10.661  22.199  0.00  0.00    +0.000 C 
ATOM      8  O   UNL     1      -0.317  10.407  23.395  0.00  0.00    +0.000 OA
BRANCH   7  10
ATOM      9  C   UNL     1      -0.541  13.015  22.134  0.00  0.00    +0.000 C 
ATOM     10  O   UNL     1      -0.922  11.730  21.622  0.00  0.00    +0.000 OA
ENDBRANCH   7  10
ENDBRANCH   1   7
BRANCH   4  11
ATOM     11  C   UNL     1       2.621   7.564  18.058  0.00  0.00    +0.000 C 
BRANCH  11  12
ATOM     12  N   UNL     1       3.163   6.273  18.557  0.00  0.00    +0.000 N 
ATOM     13  C   UNL     1       4.577   5.985  18.190  0.00  0.00    +0.000 C 
ATOM     14  C   UNL     1       4.576   5.073  16.967  0.00  0.00    +0.000 C 
ATOM     15  C   UNL     1       3.465   4.211  17.422  0.00  0.00    +0.000 A 
ATOM     16  C   UNL     1       3.400   2.821  17.337  0.00  0.00    +0.000 A 
ATOM     17  C   UNL     1       2.416   2.179  18.066  0.00  0.00    +0.000 A 
ATOM     18  C   UNL     1       1.477   2.932  18.780  0.00  0.00    +0.000 A 
ATOM     19  C   UNL     1       1.533   4.348  18.829  0.00  0.00    +0.000 A 
ATOM     20  C   UNL     1       2.586   4.998  18.194  0.00  0.00    +0.000 A 
ENDBRANCH  11  12
ENDBRANCH   4  11
TORSDOF 4
ENDMDL
MODEL 7
REMARK VINA RESULT:      -6.8      4.882      6.972
REMARK  Name = 
REMARK  5 active torsions:
REMARK  status: ('A' for Active; 'I' for Inactive)
REMARK    1  A    between atoms: C_1  and  O_2
REMARK    2  A    between atoms: O_2  and  C_3
REMARK    3  A    between atoms: C_3  and  C_5
REMARK    4  A    between atoms: C_8  and  C_9
REMARK    5  A    between atoms: C_9  and  N_10
REMARK                            x       y       z     vdW  Elec       q    Type
REMARK                         _______ _______ _______ _____ _____    ______ ____
ROOT
ATOM      1  C   UNL     1       0.892   9.905  19.944  0.00  0.00    +0.000 A 
ATOM      2  C   UNL     1       1.215  10.096  18.592  0.00  0.00    +0.000 A 
ATOM      3  C   UNL     1       1.926   9.103  17.879  0.00  0.00    +0.000 A 
ATOM      4  C   UNL     1       2.377   7.917  18.485  0.00  0.00    +0.000 A 
ATOM      5  C   UNL     1       1.991   7.719  19.824  0.00  0.00    +0.000 A 
ATOM      6  C   UNL     1       1.253   8.695  20.543  0.00  0.00    +0.000 A 
ENDROOT
BRANCH   1   7
ATOM      7  C   UNL     1       0.164  11.010  20.654  0.00  0.00    +0.000 C 
ATOM      8  O   UNL     1       0.676  11.729  21.500  0.00  0.00    +0.000 OA
BRANCH   7  10
ATOM      9  C   UNL     1      -1.566  12.361  19.764  0.00  0.00    +0.000 C 
ATOM     10  O   UNL     1      -1.150  11.085  20.271  0.00  0.00    +0.000 OA
ENDBRANCH   7  10
ENDBRANCH   1   7
BRANCH   4  11
ATOM     11  C   UNL     1       3.241   6.876  17.716  0.00  0.00    +0.000 C 
BRANCH  11  12
ATOM     12  N   UNL     1       3.450   5.626  18.493  0.00  0.00    +0.000 N 
ATOM     13  C   UNL     1       4.773   4.968  18.308  0.00  0.00    +0.000 C 
ATOM     14  C   UNL     1       4.610   3.850  17.283  0.00  0.00    +0.000 C 
ATOM     15  C   UNL     1       3.313   3.362  17.796  0.00  0.00    +0.000 A 
ATOM     16  C   UNL     1       2.932   2.032  17.968  0.00  0.00    +0.000 A 
ATOM     17  C   UNL     1       1.799   1.782  18.720  0.00  0.00    +0.000 A 
ATOM     18  C   UNL     1       1.032   2.850  19.197  0.00  0.00    +0.000 A 
ATOM     19  C   UNL     1       1.411   4.200  18.983  0.00  0.00    +0.000 A 
ATOM     20  C   UNL     1       2.610   4.462  18.329  0.00  0.00    +0.000 A 
ENDBRANCH  11  12
ENDBRANCH   4  11
TORSDOF 4
ENDMDL
MODEL 8
REMARK VINA RESULT:      -6.8      2.044      3.584
REMARK  Name = 
REMARK  5 active torsions:
REMARK  status: ('A' for Active; 'I' for Inactive)
REMARK    1  A    between atoms: C_1  and  O_2
REMARK    2  A    between atoms: O_2  and  C_3
REMARK    3  A    between atoms: C_3  and  C_5
REMARK    4  A    between atoms: C_8  and  C_9
REMARK    5  A    between atoms: C_9  and  N_10
REMARK                            x       y       z     vdW  Elec       q    Type
REMARK                         _______ _______ _______ _____ _____    ______ ____
ROOT
ATOM      1  C   UNL     1       6.058   4.857  15.770  0.00  0.00    +0.000 A 
ATOM      2  C   UNL     1       6.393   5.956  16.574  0.00  0.00    +0.000 A 
ATOM      3  C   UNL     1       5.704   6.192  17.787  0.00  0.00    +0.000 A 
ATOM      4  C   UNL     1       4.641   5.381  18.221  0.00  0.00    +0.000 A 
ATOM      5  C   UNL     1       4.362   4.250  17.430  0.00  0.00    +0.000 A 
ATOM      6  C   UNL     1       5.064   3.986  16.224  0.00  0.00    +0.000 A 
ENDROOT
BRANCH   1   7
ATOM      7  C   UNL     1       6.805   4.679  14.479  0.00  0.00    +0.000 C 
ATOM      8  O   UNL     1       7.685   5.435  14.092  0.00  0.00    +0.000 OA
BRANCH   7  10
ATOM      9  C   UNL     1       6.511   3.688  12.348  0.00  0.00    +0.000 C 
ATOM     10  O   UNL     1       6.352   3.597  13.771  0.00  0.00    +0.000 OA
ENDBRANCH   7  10
ENDBRANCH   1   7
BRANCH   4  11
ATOM     11  C   UNL     1       3.828   5.705  19.507  0.00  0.00    +0.000 C 
BRANCH  11  12
ATOM     12  N   UNL     1       2.508   6.318  19.205  0.00  0.00    +0.000 N 
ATOM     13  C   UNL     1       2.319   6.780  17.802  0.00  0.00    +0.000 C 
ATOM     14  C   UNL     1       2.598   8.279  17.751  0.00  0.00    +0.000 C 
ATOM     15  C   UNL     1       1.902   8.604  19.014  0.00  0.00    +0.000 A 
ATOM     16  C   UNL     1       1.051   9.686  19.241  0.00  0.00    +0.000 A 
ATOM     17  C   UNL     1       0.279   9.664  20.388  0.00  0.00    +0.000 A 
ATOM     18  C   UNL     1       0.438   8.625  21.313  0.00  0.00    +0.000 A 
ATOM     19  C   UNL     1       1.334   7.550  21.086  0.00  0.00    +0.000 A 
ATOM     20  C   UNL     1       2.030   7.502  19.883  0.00  0.00    +0.000 A 
ENDBRANCH  11  12
ENDBRANCH   4  11
TORSDOF 4
ENDMDL
MODEL 9
REMARK VINA RESULT:      -6.8      4.721      7.343
REMARK  Name = 
REMARK  5 active torsions:
REMARK  status: ('A' for Active; 'I' for Inactive)
REMARK    1  A    between atoms: C_1  and  O_2
REMARK    2  A    between atoms: O_2  and  C_3
REMARK    3  A    between atoms: C_3  and  C_5
REMARK    4  A    between atoms: C_8  and  C_9
REMARK    5  A    between atoms: C_9  and  N_10
REMARK                            x       y       z     vdW  Elec       q    Type
REMARK                         _______ _______ _______ _____ _____    ______ ____
ROOT
ATOM      1  C   UNL     1       0.722   9.769  19.678  0.00  0.00    +0.000 A 
ATOM      2  C   UNL     1       0.852   8.914  20.783  0.00  0.00    +0.000 A 
ATOM      3  C   UNL     1       1.615   7.728  20.685  0.00  0.00    +0.000 A 
ATOM      4  C   UNL     1       2.235   7.326  19.488  0.00  0.00    +0.000 A 
ATOM      5  C   UNL     1       2.142   8.226  18.410  0.00  0.00    +0.000 A 
ATOM      6  C   UNL     1       1.402   9.434  18.504  0.00  0.00    +0.000 A 
ENDROOT
BRANCH   1   7
ATOM      7  C   UNL     1      -0.127  10.997  19.837  0.00  0.00    +0.000 C 
ATOM      8  O   UNL     1      -0.218  11.632  20.878  0.00  0.00    +0.000 OA
BRANCH   7  10
ATOM      9  C   UNL     1      -0.829  12.680  18.326  0.00  0.00    +0.000 C 
ATOM     10  O   UNL     1      -0.818  11.293  18.691  0.00  0.00    +0.000 OA
ENDBRANCH   7  10
ENDBRANCH   1   7
BRANCH   4  11
ATOM     11  C   UNL     1       2.990   5.972  19.366  0.00  0.00    +0.000 C 
BRANCH  11  12
ATOM     12  N   UNL     1       3.037   5.472  17.967  0.00  0.00    +0.000 N 
ATOM     13  C   UNL     1       2.591   4.064  17.772  0.00  0.00    +0.000 C 
ATOM     14  C   UNL     1       3.829   3.174  17.727  0.00  0.00    +0.000 C 
ATOM     15  C   UNL     1       4.644   4.089  16.900  0.00  0.00    +0.000 A 
ATOM     16  C   UNL     1       5.460   3.737  15.826  0.00  0.00    +0.000 A 
ATOM     17  C   UNL     1       5.915   4.754  15.007  0.00  0.00    +0.000 A 
ATOM     18  C   UNL     1       5.624   6.085  15.325  0.00  0.00    +0.000 A 
ATOM     19  C   UNL     1       4.823   6.431  16.442  0.00  0.00    +0.000 A 
ATOM     20  C   UNL     1       4.264   5.412  17.206  0.00  0.00    +0.000 A 
ENDBRANCH  11  12
ENDBRANCH   4  11
TORSDOF 4
ENDMDL
