MODEL 1
REMARK VINA RESULT:      -7.1      0.000      0.000
REMARK  Name = 
REMARK  6 active torsions:
REMARK  status: ('A' for Active; 'I' for Inactive)
REMARK    1  A    between atoms: C_1  and  O_2
REMARK    2  A    between atoms: O_2  and  C_3
REMARK    3  A    between atoms: C_8  and  O_9
REMARK    4  A    between atoms: O_9  and  C_10
REMARK    5  A    between atoms: C_10  and  C_11
REMARK    6  A    between atoms: N_13  and  C_14
REMARK                            x       y       z     vdW  Elec       q    Type
REMARK                         _______ _______ _______ _____ _____    ______ ____
ROOT
ATOM      1  C   UNL     1       3.721   2.577  18.154  0.00  0.00    +0.000 C 
ATOM      2  O   UNL     1       4.413   2.282  19.125  0.00  0.00    +0.000 OA
ATOM      3  N   UNL     1       4.174   3.388  17.127  0.00  0.00    +0.000 N 
ATOM      4  H   UNL     1       3.530   3.643  16.390  0.00  0.00    +0.000 HD
ENDROOT
BRANCH   3   5
ATOM      5  C   UNL     1       5.470   4.039  17.159  0.00  0.00    +0.000 C 
ATOM      6  C   UNL     1       5.544   5.134  18.248  0.00  0.00    +0.000 C 
ATOM      7  C   UNL     1       5.898   6.400  17.442  0.00  0.00    +0.000 C 
ATOM      8  C   UNL     1       7.338   6.281  16.914  0.00  0.00    +0.000 C 
ATOM      9  C   UNL     1       7.215   5.217  15.810  0.00  0.00    +0.000 C 
ATOM     10  C   UNL     1       5.727   4.840  15.863  0.00  0.00    +0.000 C 
ATOM     11  C   UNL     1       5.080   6.194  16.170  0.00  0.00    +0.000 C 
ENDBRANCH   3   5
BRANCH   1  12
ATOM     12  C   UNL     1       2.275   2.098  17.979  0.00  0.00    +0.000 C 
BRANCH  12  13
ATOM     13  O   UNL     1       1.375   3.188  17.868  0.00  0.00    +0.000 OA
BRANCH  13  19
ATOM     14  C   UNL     1       1.380   4.370  20.077  0.00  0.00    +0.000 A 
ATOM     15  C   UNL     1       1.696   5.570  20.735  0.00  0.00    +0.000 A 
ATOM     16  C   UNL     1       2.104   6.694  20.018  0.00  0.00    +0.000 A 
ATOM     17  C   UNL     1       2.239   6.619  18.637  0.00  0.00    +0.000 A 
ATOM     18  C   UNL     1       1.988   5.411  17.981  0.00  0.00    +0.000 A 
ATOM     19  C   UNL     1       1.564   4.273  18.687  0.00  0.00    +0.000 A 
BRANCH  14  21
ATOM     20  C   UNL     1       1.903   2.714  21.686  0.00  0.00    +0.000 C 
ATOM     21  O   UNL     1       0.949   3.282  20.789  0.00  0.00    +0.000 OA
ENDBRANCH  14  21
ENDBRANCH  13  19
ENDBRANCH  12  13
ENDBRANCH   1  12
TORSDOF 5
ENDMDL
MODEL 2
REMARK VINA RESULT:      -6.8      2.225      5.880
REMARK  Name = 
REMARK  6 active torsions:
REMARK  status: ('A' for Active; 'I' for Inactive)
REMARK    1  A    between atoms: C_1  and  O_2
REMARK    2  A    between atoms: O_2  and  C_3
REMARK    3  A    between atoms: C_8  and  O_9
REMARK    4  A    between atoms: O_9  and  C_10
REMARK    5  A    between atoms: C_10  and  C_11
REMARK    6  A    between atoms: N_13  and  C_14
REMARK                            x       y       z     vdW  Elec       q    Type
REMARK                         _______ _______ _______ _____ _____    ______ ____
ROOT
ATOM      1  C   UNL     1       2.773   6.881  18.480  0.00  0.00    +0.000 C 
ATOM      2  O   UNL     1       2.164   7.603  19.266  0.00  0.00    +0.000 OA
ATOM      3  N   UNL     1       2.625   5.505  18.454  0.00  0.00    +0.000 N 
ATOM      4  H   UNL     1       3.205   4.966  17.826  0.00  0.00    +0.000 HD
ENDROOT
BRANCH   3   5
ATOM      5  C   UNL     1       1.811   4.788  19.418  0.00  0.00    +0.000 C 
ATOM      6  C   UNL     1       2.415   4.839  20.840  0.00  0.00    +0.000 C 
ATOM      7  C   UNL     1       2.599   3.350  21.192  0.00  0.00    +0.000 C 
ATOM      8  C   UNL     1       1.218   2.697  21.380  0.00  0.00    +0.000 C 
ATOM      9  C   UNL     1       0.669   2.627  19.945  0.00  0.00    +0.000 C 
ATOM     10  C   UNL     1       1.791   3.273  19.118  0.00  0.00    +0.000 C 
ATOM     11  C   UNL     1       3.039   2.769  19.850  0.00  0.00    +0.000 C 
ENDBRANCH   3   5
BRANCH   1  12
ATOM     12  C   UNL     1       3.779   7.419  17.456  0.00  0.00    +0.000 C 
BRANCH  12  13
ATOM     13  O   UNL     1       5.102   7.008  17.758  0.00  0.00    +0.000 OA
BRANCH  13  19
ATOM     14  C   UNL     1       6.609   5.058  17.307  0.00  0.00    +0.000 A 
ATOM     15  C   UNL     1       7.038   4.141  16.334  0.00  0.00    +0.000 A 
ATOM     16  C   UNL     1       6.631   4.262  15.006  0.00  0.00    +0.000 A 
ATOM     17  C   UNL     1       5.757   5.281  14.644  0.00  0.00    +0.000 A 
ATOM     18  C   UNL     1       5.277   6.160  15.618  0.00  0.00    +0.000 A 
ATOM     19  C   UNL     1       5.686   6.059  16.957  0.00  0.00    +0.000 A 
BRANCH  14  21
ATOM     20  C   UNL     1       7.931   5.973  19.046  0.00  0.00    +0.000 C 
ATOM     21  O   UNL     1       7.042   4.948  18.602  0.00  0.00    +0.000 OA
ENDBRANCH  14  21
ENDBRANCH  13  19
ENDBRANCH  12  13
ENDBRANCH   1  12
TORSDOF 5
ENDMDL
MODEL 3
REMARK VINA RESULT:      -6.8      2.308      5.544
REMARK  Name = 
REMARK  6 active torsions:
REMARK  status: ('A' for Active; 'I' for Inactive)
REMARK    1  A    between atoms: C_1  and  O_2
REMARK    2  A    between atoms: O_2  and  C_3
REMARK    3  A    between atoms: C_8  and  O_9
REMARK    4  A    between atoms: O_9  and  C_10
REMARK    5  A    between atoms: C_10  and  C_11
REMARK    6  A    between atoms: N_13  and  C_14
REMARK                            x       y       z     vdW  Elec       q    Type
REMARK                         _______ _______ _______ _____ _____    ______ ____
ROOT
ATOM      1  C   UNL     1       5.710   4.781  19.424  0.00  0.00    +0.000 C 
ATOM      2  O   UNL     1       4.966   5.647  19.876  0.00  0.00    +0.000 OA
ATOM      3  N   UNL     1       5.272   3.510  19.095  0.00  0.00    +0.000 N 
ATOM      4  H   UNL     1       5.950   2.826  18.788  0.00  0.00    +0.000 HD
ENDROOT
BRANCH   3   5
ATOM      5  C   UNL     1       3.915   3.061  19.348  0.00  0.00    +0.000 C 
ATOM      6  C   UNL     1       3.614   1.708  18.664  0.00  0.00    +0.000 C 
ATOM      7  C   UNL     1       2.409   2.037  17.760  0.00  0.00    +0.000 C 
ATOM      8  C   UNL     1       1.175   2.312  18.637  0.00  0.00    +0.000 C 
ATOM      9  C   UNL     1       1.494   3.679  19.265  0.00  0.00    +0.000 C 
ATOM     10  C   UNL     1       2.881   4.004  18.692  0.00  0.00    +0.000 C 
ATOM     11  C   UNL     1       2.765   3.440  17.273  0.00  0.00    +0.000 C 
ENDBRANCH   3   5
BRANCH   1  12
ATOM     12  C   UNL     1       7.210   5.002  19.192  0.00  0.00    +0.000 C 
BRANCH  12  13
ATOM     13  O   UNL     1       7.447   5.843  18.075  0.00  0.00    +0.000 OA
BRANCH  13  19
ATOM     14  C   UNL     1       5.648   6.307  16.395  0.00  0.00    +0.000 A 
ATOM     15  C   UNL     1       5.111   5.928  15.154  0.00  0.00    +0.000 A 
ATOM     16  C   UNL     1       5.593   4.808  14.477  0.00  0.00    +0.000 A 
ATOM     17  C   UNL     1       6.644   4.077  15.017  0.00  0.00    +0.000 A 
ATOM     18  C   UNL     1       7.225   4.484  16.221  0.00  0.00    +0.000 A 
ATOM     19  C   UNL     1       6.744   5.603  16.921  0.00  0.00    +0.000 A 
BRANCH  14  21
ATOM     20  C   UNL     1       3.744   7.350  17.342  0.00  0.00    +0.000 C 
ATOM     21  O   UNL     1       5.144   7.391  17.065  0.00  0.00    +0.000 OA
ENDBRANCH  14  21
ENDBRANCH  13  19
ENDBRANCH  12  13
ENDBRANCH   1  12
TORSDOF 5
ENDMDL
MODEL 4
REMARK VINA RESULT:      -6.8      5.564      8.150
REMARK  Name = 
REMARK  6 active torsions:
REMARK  status: ('A' for Active; 'I' for Inactive)
REMARK    1  A    between atoms: C_1  and  O_2
REMARK    2  A    between atoms: O_2  and  C_3
REMARK    3  A    between atoms: C_8  and  O_9
REMARK    4  A    between atoms: O_9  and  C_10
REMARK    5  A    between atoms: C_10  and  C_11
REMARK    6  A    between atoms: N_13  and  C_14
REMARK                            x       y       z     vdW  Elec       q    Type
REMARK                         _______ _______ _______ _____ _____    ______ ____
ROOT
ATOM      1  C   UNL     1       7.898   7.950  17.959  0.00  0.00    +0.000 C 
ATOM      2  O   UNL     1       8.422   7.261  18.830  0.00  0.00    +0.000 OA
ATOM      3  N   UNL     1       6.884   7.483  17.140  0.00  0.00    +0.000 N 
ATOM      4  H   UNL     1       6.542   8.081  16.401  0.00  0.00    +0.000 HD
ENDROOT
BRANCH   3   5
ATOM      5  C   UNL     1       6.421   6.108  17.176  0.00  0.00    +0.000 C 
ATOM      6  C   UNL     1       7.247   5.192  16.244  0.00  0.00    +0.000 C 
ATOM      7  C   UNL     1       6.180   4.612  15.294  0.00  0.00    +0.000 C 
ATOM      8  C   UNL     1       5.272   3.649  16.078  0.00  0.00    +0.000 C 
ATOM      9  C   UNL     1       4.441   4.597  16.960  0.00  0.00    +0.000 C 
ATOM     10  C   UNL     1       4.997   5.980  16.592  0.00  0.00    +0.000 C 
ATOM     11  C   UNL     1       5.261   5.814  15.092  0.00  0.00    +0.000 C 
ENDBRANCH   3   5
BRANCH   1  12
ATOM     12  C   UNL     1       8.320   9.394  17.666  0.00  0.00    +0.000 C 
BRANCH  12  13
ATOM     13  O   UNL     1       8.394  10.167  18.852  0.00  0.00    +0.000 OA
BRANCH  13  19
ATOM     14  C   UNL     1      10.008  11.417  20.303  0.00  0.00    +0.000 A 
ATOM     15  C   UNL     1      11.252  12.069  20.339  0.00  0.00    +0.000 A 
ATOM     16  C   UNL     1      11.988  12.272  19.173  0.00  0.00    +0.000 A 
ATOM     17  C   UNL     1      11.506  11.790  17.962  0.00  0.00    +0.000 A 
ATOM     18  C   UNL     1      10.300  11.085  17.927  0.00  0.00    +0.000 A 
ATOM     19  C   UNL     1       9.540  10.883  19.091  0.00  0.00    +0.000 A 
BRANCH  14  21
ATOM     20  C   UNL     1       8.694  12.440  21.987  0.00  0.00    +0.000 C 
ATOM     21  O   UNL     1       9.279  11.252  21.452  0.00  0.00    +0.000 OA
ENDBRANCH  14  21
ENDBRANCH  13  19
ENDBRANCH  12  13
ENDBRANCH   1  12
TORSDOF 5
ENDMDL
MODEL 5
REMARK VINA RESULT:      -6.7      3.957      5.886
REMARK  Name = 
REMARK  6 active torsions:
REMARK  status: ('A' for Active; 'I' for Inactive)
REMARK    1  A    between atoms: C_1  and  O_2
REMARK    2  A    between atoms: O_2  and  C_3
REMARK    3  A    between atoms: C_8  and  O_9
REMARK    4  A    between atoms: O_9  and  C_10
REMARK    5  A    between atoms: C_10  and  C_11
REMARK    6  A    between atoms: N_13  and  C_14
REMARK                            x       y       z     vdW  Elec       q    Type
REMARK                         _______ _______ _______ _____ _____    ______ ____
ROOT
ATOM      1  C   UNL     1       2.770   7.325  18.174  0.00  0.00    +0.000 C 
ATOM      2  O   UNL     1       3.710   7.076  17.424  0.00  0.00    +0.000 OA
ATOM      3  N   UNL     1       2.184   6.371  18.987  0.00  0.00    +0.000 N 
ATOM      4  H   UNL     1       1.372   6.629  19.532  0.00  0.00    +0.000 HD
ENDROOT
BRANCH   3   5
ATOM      5  C   UNL     1       2.566   4.971  18.951  0.00  0.00    +0.000 C 
ATOM      6  C   UNL     1       1.615   4.133  18.067  0.00  0.00    +0.000 C 
ATOM      7  C   UNL     1       1.086   3.064  19.044  0.00  0.00    +0.000 C 
ATOM      8  C   UNL     1       2.227   2.100  19.410  0.00  0.00    +0.000 C 
ATOM      9  C   UNL     1       3.125   2.955  20.319  0.00  0.00    +0.000 C 
ATOM     10  C   UNL     1       2.402   4.310  20.337  0.00  0.00    +0.000 C 
ATOM     11  C   UNL     1       0.934   3.872  20.331  0.00  0.00    +0.000 C 
ENDBRANCH   3   5
BRANCH   1  12
ATOM     12  C   UNL     1       2.127   8.713  18.279  0.00  0.00    +0.000 C 
BRANCH  12  13
ATOM     13  O   UNL     1       1.588   8.943  19.570  0.00  0.00    +0.000 OA
BRANCH  13  19
ATOM     14  C   UNL     1       0.221  10.593  20.867  0.00  0.00    +0.000 A 
ATOM     15  C   UNL     1      -0.756  11.598  20.776  0.00  0.00    +0.000 A 
ATOM     16  C   UNL     1      -1.399  11.863  19.567  0.00  0.00    +0.000 A 
ATOM     17  C   UNL     1      -1.043  11.153  18.427  0.00  0.00    +0.000 A 
ATOM     18  C   UNL     1      -0.029  10.195  18.496  0.00  0.00    +0.000 A 
ATOM     19  C   UNL     1       0.621   9.907  19.708  0.00  0.00    +0.000 A 
BRANCH  14  21
ATOM     20  C   UNL     1       0.043   9.559  22.990  0.00  0.00    +0.000 C 
ATOM     21  O   UNL     1       0.823  10.319  22.067  0.00  0.00    +0.000 OA
ENDBRANCH  14  21
ENDBRANCH  13  19
ENDBRANCH  12  13
ENDBRANCH   1  12
TORSDOF 5
ENDMDL
MODEL 6
REMARK VINA RESULT:      -6.7      2.286      5.497
REMARK  Name = 
REMARK  6 active torsions:
REMARK  status: ('A' for Active; 'I' for Inactive)
REMARK    1  A    between atoms: C_1  and  O_2
REMARK    2  A    between atoms: O_2  and  C_3
REMARK    3  A    between atoms: C_8  and  O_9
REMARK    4  A    between atoms: O_9  and  C_10
REMARK    5  A    between atoms: C_10  and  C_11
REMARK    6  A    between atoms: N_13  and  C_14
REMARK                            x       y       z     vdW  Elec       q    Type
REMARK                         _______ _______ _______ _____ _____    ______ ____
ROOT
ATOM      1  C   UNL     1       2.815   6.860  18.516  0.00  0.00    +0.000 C 
ATOM      2  O   UNL     1       2.565   7.185  19.674  0.00  0.00    +0.000 OA
ATOM      3  N   UNL     1       2.545   5.599  18.014  0.00  0.00    +0.000 N 
ATOM      4  H   UNL     1       2.836   5.379  17.071  0.00  0.00    +0.000 HD
ENDROOT
BRANCH   3   5
ATOM      5  C   UNL     1       2.034   4.521  18.840  0.00  0.00    +0.000 C 
ATOM      6  C   UNL     1       3.157   3.817  19.635  0.00  0.00    +0.000 C 
ATOM      7  C   UNL     1       3.041   2.350  19.173  0.00  0.00    +0.000 C 
ATOM      8  C   UNL     1       1.738   1.745  19.723  0.00  0.00    +0.000 C 
ATOM      9  C   UNL     1       0.652   2.438  18.883  0.00  0.00    +0.000 C 
ATOM     10  C   UNL     1       1.466   3.374  17.976  0.00  0.00    +0.000 C 
ATOM     11  C   UNL     1       2.706   2.520  17.693  0.00  0.00    +0.000 C 
ENDBRANCH   3   5
BRANCH   1  12
ATOM     12  C   UNL     1       3.471   7.807  17.504  0.00  0.00    +0.000 C 
BRANCH  12  13
ATOM     13  O   UNL     1       4.881   7.661  17.491  0.00  0.00    +0.000 OA
BRANCH  13  19
ATOM     14  C   UNL     1       6.129   5.498  17.698  0.00  0.00    +0.000 A 
ATOM     15  C   UNL     1       6.528   4.334  17.021  0.00  0.00    +0.000 A 
ATOM     16  C   UNL     1       6.297   4.186  15.654  0.00  0.00    +0.000 A 
ATOM     17  C   UNL     1       5.629   5.185  14.956  0.00  0.00    +0.000 A 
ATOM     18  C   UNL     1       5.174   6.319  15.635  0.00  0.00    +0.000 A 
ATOM     19  C   UNL     1       5.408   6.489  17.009  0.00  0.00    +0.000 A 
BRANCH  14  21
ATOM     20  C   UNL     1       7.771   5.715  19.390  0.00  0.00    +0.000 C 
ATOM     21  O   UNL     1       6.390   5.646  19.035  0.00  0.00    +0.000 OA
ENDBRANCH  14  21
ENDBRANCH  13  19
ENDBRANCH  12  13
ENDBRANCH   1  12
TORSDOF 5
ENDMDL
MODEL 7
REMARK VINA RESULT:      -6.6      2.770      6.015
REMARK  Name = 
REMARK  6 active torsions:
REMARK  status: ('A' for Active; 'I' for Inactive)
REMARK    1  A    between atoms: C_1  and  O_2
REMARK    2  A    between atoms: O_2  and  C_3
REMARK    3  A    between atoms: C_8  and  O_9
REMARK    4  A    between atoms: O_9  and  C_10
REMARK    5  A    between atoms: C_10  and  C_11
REMARK    6  A    between atoms: N_13  and  C_14
REMARK                            x       y       z     vdW  Elec       q    Type
REMARK                         _______ _______ _______ _____ _____    ______ ____
ROOT
ATOM      1  C   UNL     1       4.251   6.401  17.002  0.00  0.00    +0.000 C 
ATOM      2  O   UNL     1       4.044   7.234  17.881  0.00  0.00    +0.000 OA
ATOM      3  N   UNL     1       3.845   5.082  17.106  0.00  0.00    +0.000 N 
ATOM      4  H   UNL     1       4.105   4.435  16.374  0.00  0.00    +0.000 HD
ENDROOT
BRANCH   3   5
ATOM      5  C   UNL     1       3.227   4.547  18.305  0.00  0.00    +0.000 C 
ATOM      6  C   UNL     1       4.085   3.438  18.955  0.00  0.00    +0.000 C 
ATOM      7  C   UNL     1       3.131   2.227  18.972  0.00  0.00    +0.000 C 
ATOM      8  C   UNL     1       1.999   2.484  19.981  0.00  0.00    +0.000 C 
ATOM      9  C   UNL     1       1.149   3.558  19.282  0.00  0.00    +0.000 C 
ATOM     10  C   UNL     1       1.915   3.802  17.973  0.00  0.00    +0.000 C 
ATOM     11  C   UNL     1       2.405   2.389  17.638  0.00  0.00    +0.000 C 
ENDBRANCH   3   5
BRANCH   1  12
ATOM     12  C   UNL     1       4.999   6.723  15.703  0.00  0.00    +0.000 C 
BRANCH  12  13
ATOM     13  O   UNL     1       6.304   6.168  15.701  0.00  0.00    +0.000 OA
BRANCH  13  19
ATOM     14  C   UNL     1       7.556   7.177  17.622  0.00  0.00    +0.000 A 
ATOM     15  C   UNL     1       8.169   6.912  18.857  0.00  0.00    +0.000 A 
ATOM     16  C   UNL     1       8.305   5.606  19.325  0.00  0.00    +0.000 A 
ATOM     17  C   UNL     1       7.793   4.551  18.579  0.00  0.00    +0.000 A 
ATOM     18  C   UNL     1       7.126   4.811  17.378  0.00  0.00    +0.000 A 
ATOM     19  C   UNL     1       6.991   6.120  16.887  0.00  0.00    +0.000 A 
BRANCH  14  21
ATOM     20  C   UNL     1       8.178   9.444  17.903  0.00  0.00    +0.000 C 
ATOM     21  O   UNL     1       7.458   8.462  17.158  0.00  0.00    +0.000 OA
ENDBRANCH  14  21
ENDBRANCH  13  19
ENDBRANCH  12  13
ENDBRANCH   1  12
TORSDOF 5
ENDMDL
MODEL 8
REMARK VINA RESULT:      -6.6      3.402      6.492
REMARK  Name = 
REMARK  6 active torsions:
REMARK  status: ('A' for Active; 'I' for Inactive)
REMARK    1  A    between atoms: C_1  and  O_2
REMARK    2  A    between atoms: O_2  and  C_3
REMARK    3  A    between atoms: C_8  and  O_9
REMARK    4  A    between atoms: O_9  and  C_10
REMARK    5  A    between atoms: C_10  and  C_11
REMARK    6  A    between atoms: N_13  and  C_14
REMARK                            x       y       z     vdW  Elec       q    Type
REMARK                         _______ _______ _______ _____ _____    ______ ____
ROOT
ATOM      1  C   UNL     1       2.182   8.182  18.745  0.00  0.00    +0.000 C 
ATOM      2  O   UNL     1       2.115   9.182  18.036  0.00  0.00    +0.000 OA
ATOM      3  N   UNL     1       1.733   8.158  20.054  0.00  0.00    +0.000 N 
ATOM      4  H   UNL     1       1.877   7.320  20.601  0.00  0.00    +0.000 HD
ENDROOT
BRANCH   3   5
ATOM      5  C   UNL     1       1.235   9.340  20.732  0.00  0.00    +0.000 C 
ATOM      6  C   UNL     1       1.481   9.282  22.257  0.00  0.00    +0.000 C 
ATOM      7  C   UNL     1       0.061   9.413  22.842  0.00  0.00    +0.000 C 
ATOM      8  C   UNL     1      -0.465  10.836  22.588  0.00  0.00    +0.000 C 
ATOM      9  C   UNL     1      -0.736  10.840  21.074  0.00  0.00    +0.000 C 
ATOM     10  C   UNL     1      -0.305   9.429  20.646  0.00  0.00    +0.000 C 
ATOM     11  C   UNL     1      -0.758   8.594  21.847  0.00  0.00    +0.000 C 
ENDBRANCH   3   5
BRANCH   1  12
ATOM     12  C   UNL     1       2.786   6.856  18.269  0.00  0.00    +0.000 C 
BRANCH  12  13
ATOM     13  O   UNL     1       3.334   6.115  19.346  0.00  0.00    +0.000 OA
BRANCH  13  19
ATOM     14  C   UNL     1       3.462   3.625  19.102  0.00  0.00    +0.000 A 
ATOM     15  C   UNL     1       2.874   2.404  19.472  0.00  0.00    +0.000 A 
ATOM     16  C   UNL     1       1.683   2.372  20.195  0.00  0.00    +0.000 A 
ATOM     17  C   UNL     1       1.086   3.563  20.590  0.00  0.00    +0.000 A 
ATOM     18  C   UNL     1       1.697   4.781  20.281  0.00  0.00    +0.000 A 
ATOM     19  C   UNL     1       2.891   4.831  19.543  0.00  0.00    +0.000 A 
BRANCH  14  21
ATOM     20  C   UNL     1       4.443   3.730  16.950  0.00  0.00    +0.000 C 
ATOM     21  O   UNL     1       4.616   3.643  18.364  0.00  0.00    +0.000 OA
ENDBRANCH  14  21
ENDBRANCH  13  19
ENDBRANCH  12  13
ENDBRANCH   1  12
TORSDOF 5
ENDMDL
MODEL 9
REMARK VINA RESULT:      -6.6      5.582      7.740
REMARK  Name = 
REMARK  6 active torsions:
REMARK  status: ('A' for Active; 'I' for Inactive)
REMARK    1  A    between atoms: C_1  and  O_2
REMARK    2  A    between atoms: O_2  and  C_3
REMARK    3  A    between atoms: C_8  and  O_9
REMARK    4  A    between atoms: O_9  and  C_10
REMARK    5  A    between atoms: C_10  and  C_11
REMARK    6  A    between atoms: N_13  and  C_14
REMARK                            x       y       z     vdW  Elec       q    Type
REMARK                         _______ _______ _______ _____ _____    ______ ____
ROOT
ATOM      1  C   UNL     1       8.350   9.284  18.238  0.00  0.00    +0.000 C 
ATOM      2  O   UNL     1       7.590   9.940  17.530  0.00  0.00    +0.000 OA
ATOM      3  N   UNL     1       9.328   9.862  19.028  0.00  0.00    +0.000 N 
ATOM      4  H   UNL     1       9.961   9.258  19.536  0.00  0.00    +0.000 HD
ENDROOT
BRANCH   3   5
ATOM      5  C   UNL     1       9.605  11.286  19.013  0.00  0.00    +0.000 C 
ATOM      6  C   UNL     1      10.475  11.696  17.803  0.00  0.00    +0.000 C 
ATOM      7  C   UNL     1      11.706  12.347  18.466  0.00  0.00    +0.000 C 
ATOM      8  C   UNL     1      11.289  13.679  19.113  0.00  0.00    +0.000 C 
ATOM      9  C   UNL     1      10.464  13.229  20.331  0.00  0.00    +0.000 C 
ATOM     10  C   UNL     1      10.486  11.698  20.213  0.00  0.00    +0.000 C 
ATOM     11  C   UNL     1      11.905  11.454  19.688  0.00  0.00    +0.000 C 
ENDBRANCH   3   5
BRANCH   1  12
ATOM     12  C   UNL     1       8.314   7.753  18.310  0.00  0.00    +0.000 C 
BRANCH  12  13
ATOM     13  O   UNL     1       7.719   7.189  17.153  0.00  0.00    +0.000 OA
BRANCH  13  19
ATOM     14  C   UNL     1       6.042   5.515  16.342  0.00  0.00    +0.000 A 
ATOM     15  C   UNL     1       5.180   4.475  16.727  0.00  0.00    +0.000 A 
ATOM     16  C   UNL     1       4.987   4.166  18.072  0.00  0.00    +0.000 A 
ATOM     17  C   UNL     1       5.685   4.869  19.047  0.00  0.00    +0.000 A 
ATOM     18  C   UNL     1       6.591   5.863  18.669  0.00  0.00    +0.000 A 
ATOM     19  C   UNL     1       6.789   6.195  17.319  0.00  0.00    +0.000 A 
BRANCH  14  21
ATOM     20  C   UNL     1       6.818   4.827  14.213  0.00  0.00    +0.000 C 
ATOM     21  O   UNL     1       6.198   5.830  15.017  0.00  0.00    +0.000 OA
ENDBRANCH  14  21
ENDBRANCH  13  19
ENDBRANCH  12  13
ENDBRANCH   1  12
TORSDOF 5
ENDMDL
