MODEL 1
REMARK VINA RESULT:      -8.1      0.000      0.000
REMARK  Name = 
REMARK  8 active torsions:
REMARK  status: ('A' for Active; 'I' for Inactive)
REMARK    1  A    between atoms: C_1  and  O_2
REMARK    2  A    between atoms: O_2  and  C_3
REMARK    3  A    between atoms: C_4  and  C_5
REMARK    4  A    between atoms: C_6  and  C_7
REMARK    5  A    between atoms: C_12  and  C_13
REMARK    6  A    between atoms: C_13  and  C_14
REMARK    7  A    between atoms: C_19  and  C_20
REMARK    8  A    between atoms: C_23  and  C_24
REMARK                            x       y       z     vdW  Elec       q    Type
REMARK                         _______ _______ _______ _____ _____    ______ ____
ROOT
ATOM      1  C   UNL     1       2.851   4.824  20.273  0.00  0.00    +0.000 A 
ATOM      2  C   UNL     1       2.267   6.096  20.008  0.00  0.00    +0.000 A 
ATOM      3  C   UNL     1       1.161   6.646  20.886  0.00  0.00    +0.000 C 
ATOM      4  C   UNL     1       2.696   6.839  18.894  0.00  0.00    +0.000 A 
ATOM      5  C   UNL     1       2.126   8.185  18.509  0.00  0.00    +0.000 C 
ATOM      6  C   UNL     1       3.749   6.324  18.117  0.00  0.00    +0.000 A 
ATOM      7  O   UNL     1       4.136   7.069  16.977  0.00  0.00    +0.000 OA
ATOM      8  C   UNL     1       5.054   6.594  16.054  0.00  0.00    +0.000 A 
ATOM      9  O   UNL     1       5.215   7.133  14.964  0.00  0.00    +0.000 OA
ATOM     10  C   UNL     1       5.879   5.437  16.489  0.00  0.00    +0.000 A 
ATOM     11  C   UNL     1       5.528   4.746  17.583  0.00  0.00    +0.000 A 
ATOM     12  C   UNL     1       4.373   5.104  18.394  0.00  0.00    +0.000 A 
ATOM     13  C   UNL     1       3.896   4.302  19.451  0.00  0.00    +0.000 A 
ATOM     14  C   UNL     1       4.465   2.914  19.636  0.00  0.00    +0.000 C 
ENDROOT
BRANCH   1  16
ATOM     15  C   UNL     1       1.377   3.088  21.028  0.00  0.00    +0.000 C 
ATOM     16  O   UNL     1       2.286   4.139  21.327  0.00  0.00    +0.000 OA
ENDBRANCH   1  16
BRANCH  10  17
ATOM     17  C   UNL     1       7.108   5.100  15.698  0.00  0.00    +0.000 C 
BRANCH  17  18
ATOM     18  C   UNL     1       6.756   4.515  14.339  0.00  0.00    +0.000 A 
ATOM     19  C   UNL     1       5.647   3.649  14.264  0.00  0.00    +0.000 A 
ATOM     20  C   UNL     1       5.178   3.183  13.037  0.00  0.00    +0.000 A 
ATOM     21  C   UNL     1       5.830   3.545  11.868  0.00  0.00    +0.000 A 
ATOM     22  C   UNL     1       6.963   4.356  11.925  0.00  0.00    +0.000 A 
ATOM     23  C   UNL     1       7.441   4.853  13.151  0.00  0.00    +0.000 A 
ATOM     24  C   UNL     1       8.653   5.742  13.138  0.00  0.00    +0.000 C 
ENDBRANCH  17  18
ENDBRANCH  10  17
TORSDOF 3
ENDMDL
MODEL 2
REMARK VINA RESULT:      -7.8      1.521      2.757
REMARK  Name = 
REMARK  8 active torsions:
REMARK  status: ('A' for Active; 'I' for Inactive)
REMARK    1  A    between atoms: C_1  and  O_2
REMARK    2  A    between atoms: O_2  and  C_3
REMARK    3  A    between atoms: C_4  and  C_5
REMARK    4  A    between atoms: C_6  and  C_7
REMARK    5  A    between atoms: C_12  and  C_13
REMARK    6  A    between atoms: C_13  and  C_14
REMARK    7  A    between atoms: C_19  and  C_20
REMARK    8  A    between atoms: C_23  and  C_24
REMARK                            x       y       z     vdW  Elec       q    Type
REMARK                         _______ _______ _______ _____ _____    ______ ____
ROOT
ATOM      1  C   UNL     1       2.425   5.522  19.696  0.00  0.00    +0.000 A 
ATOM      2  C   UNL     1       2.882   4.299  20.265  0.00  0.00    +0.000 A 
ATOM      3  C   UNL     1       2.105   3.612  21.371  0.00  0.00    +0.000 C 
ATOM      4  C   UNL     1       4.093   3.736  19.822  0.00  0.00    +0.000 A 
ATOM      5  C   UNL     1       4.680   2.459  20.376  0.00  0.00    +0.000 C 
ATOM      6  C   UNL     1       4.776   4.373  18.769  0.00  0.00    +0.000 A 
ATOM      7  O   UNL     1       6.012   3.813  18.368  0.00  0.00    +0.000 OA
ATOM      8  C   UNL     1       6.846   4.429  17.449  0.00  0.00    +0.000 A 
ATOM      9  O   UNL     1       8.003   4.063  17.277  0.00  0.00    +0.000 OA
ATOM     10  C   UNL     1       6.235   5.516  16.639  0.00  0.00    +0.000 A 
ATOM     11  C   UNL     1       5.052   6.030  17.004  0.00  0.00    +0.000 A 
ATOM     12  C   UNL     1       4.312   5.543  18.160  0.00  0.00    +0.000 A 
ATOM     13  C   UNL     1       3.150   6.171  18.652  0.00  0.00    +0.000 A 
ATOM     14  C   UNL     1       2.753   7.521  18.098  0.00  0.00    +0.000 C 
ENDROOT
BRANCH   1  16
ATOM     15  C   UNL     1       1.401   7.229  21.035  0.00  0.00    +0.000 C 
ATOM     16  O   UNL     1       1.284   6.034  20.275  0.00  0.00    +0.000 OA
ENDBRANCH   1  16
BRANCH  10  17
ATOM     17  C   UNL     1       6.956   5.980  15.409  0.00  0.00    +0.000 C 
BRANCH  17  18
ATOM     18  C   UNL     1       6.732   5.035  14.239  0.00  0.00    +0.000 A 
ATOM     19  C   UNL     1       5.602   4.194  14.280  0.00  0.00    +0.000 A 
ATOM     20  C   UNL     1       5.252   3.402  13.189  0.00  0.00    +0.000 A 
ATOM     21  C   UNL     1       6.045   3.408  12.052  0.00  0.00    +0.000 A 
ATOM     22  C   UNL     1       7.198   4.190  12.011  0.00  0.00    +0.000 A 
ATOM     23  C   UNL     1       7.559   5.012  13.094  0.00  0.00    +0.000 A 
ATOM     24  C   UNL     1       8.803   5.848  12.974  0.00  0.00    +0.000 C 
ENDBRANCH  17  18
ENDBRANCH  10  17
TORSDOF 3
ENDMDL
MODEL 3
REMARK VINA RESULT:      -7.8      3.149      5.986
REMARK  Name = 
REMARK  8 active torsions:
REMARK  status: ('A' for Active; 'I' for Inactive)
REMARK    1  A    between atoms: C_1  and  O_2
REMARK    2  A    between atoms: O_2  and  C_3
REMARK    3  A    between atoms: C_4  and  C_5
REMARK    4  A    between atoms: C_6  and  C_7
REMARK    5  A    between atoms: C_12  and  C_13
REMARK    6  A    between atoms: C_13  and  C_14
REMARK    7  A    between atoms: C_19  and  C_20
REMARK    8  A    between atoms: C_23  and  C_24
REMARK                            x       y       z     vdW  Elec       q    Type
REMARK                         _______ _______ _______ _____ _____    ______ ____
ROOT
ATOM      1  C   UNL     1       0.675  11.223  19.701  0.00  0.00    +0.000 A 
ATOM      2  C   UNL     1       0.000  10.732  20.855  0.00  0.00    +0.000 A 
ATOM      3  C   UNL     1      -0.892  11.634  21.682  0.00  0.00    +0.000 C 
ATOM      4  C   UNL     1       0.194   9.397  21.255  0.00  0.00    +0.000 A 
ATOM      5  C   UNL     1      -0.452   8.783  22.476  0.00  0.00    +0.000 C 
ATOM      6  C   UNL     1       0.997   8.570  20.450  0.00  0.00    +0.000 A 
ATOM      7  O   UNL     1       1.211   7.244  20.895  0.00  0.00    +0.000 OA
ATOM      8  C   UNL     1       2.099   6.383  20.270  0.00  0.00    +0.000 A 
ATOM      9  O   UNL     1       2.448   5.326  20.785  0.00  0.00    +0.000 OA
ATOM     10  C   UNL     1       2.550   6.783  18.912  0.00  0.00    +0.000 A 
ATOM     11  C   UNL     1       2.326   8.031  18.480  0.00  0.00    +0.000 A 
ATOM     12  C   UNL     1       1.622   9.021  19.282  0.00  0.00    +0.000 A 
ATOM     13  C   UNL     1       1.515  10.377  18.915  0.00  0.00    +0.000 A 
ATOM     14  C   UNL     1       2.329  10.890  17.748  0.00  0.00    +0.000 C 
ENDROOT
BRANCH   1  16
ATOM     15  C   UNL     1      -0.427  12.946  18.445  0.00  0.00    +0.000 C 
ATOM     16  O   UNL     1       0.495  12.568  19.459  0.00  0.00    +0.000 OA
ENDBRANCH   1  16
BRANCH  10  17
ATOM     17  C   UNL     1       3.218   5.753  18.050  0.00  0.00    +0.000 C 
BRANCH  17  18
ATOM     18  C   UNL     1       4.733   5.886  18.091  0.00  0.00    +0.000 A 
ATOM     19  C   UNL     1       5.401   5.438  19.248  0.00  0.00    +0.000 A 
ATOM     20  C   UNL     1       6.792   5.398  19.308  0.00  0.00    +0.000 A 
ATOM     21  C   UNL     1       7.540   5.841  18.227  0.00  0.00    +0.000 A 
ATOM     22  C   UNL     1       6.899   6.340  17.094  0.00  0.00    +0.000 A 
ATOM     23  C   UNL     1       5.496   6.371  17.006  0.00  0.00    +0.000 A 
ATOM     24  C   UNL     1       4.870   6.900  15.746  0.00  0.00    +0.000 C 
ENDBRANCH  17  18
ENDBRANCH  10  17
TORSDOF 3
ENDMDL
MODEL 4
REMARK VINA RESULT:      -7.7      3.468      6.163
REMARK  Name = 
REMARK  8 active torsions:
REMARK  status: ('A' for Active; 'I' for Inactive)
REMARK    1  A    between atoms: C_1  and  O_2
REMARK    2  A    between atoms: O_2  and  C_3
REMARK    3  A    between atoms: C_4  and  C_5
REMARK    4  A    between atoms: C_6  and  C_7
REMARK    5  A    between atoms: C_12  and  C_13
REMARK    6  A    between atoms: C_13  and  C_14
REMARK    7  A    between atoms: C_19  and  C_20
REMARK    8  A    between atoms: C_23  and  C_24
REMARK                            x       y       z     vdW  Elec       q    Type
REMARK                         _______ _______ _______ _____ _____    ______ ____
ROOT
ATOM      1  C   UNL     1       0.744  11.340  19.812  0.00  0.00    +0.000 A 
ATOM      2  C   UNL     1       0.153  10.857  21.015  0.00  0.00    +0.000 A 
ATOM      3  C   UNL     1      -0.642  11.777  21.919  0.00  0.00    +0.000 C 
ATOM      4  C   UNL     1       0.340   9.514  21.390  0.00  0.00    +0.000 A 
ATOM      5  C   UNL     1      -0.221   8.909  22.656  0.00  0.00    +0.000 C 
ATOM      6  C   UNL     1       1.049   8.672  20.515  0.00  0.00    +0.000 A 
ATOM      7  O   UNL     1       1.260   7.336  20.933  0.00  0.00    +0.000 OA
ATOM      8  C   UNL     1       2.068   6.456  20.231  0.00  0.00    +0.000 A 
ATOM      9  O   UNL     1       2.427   5.386  20.709  0.00  0.00    +0.000 OA
ATOM     10  C   UNL     1       2.417   6.855  18.842  0.00  0.00    +0.000 A 
ATOM     11  C   UNL     1       2.194   8.113  18.438  0.00  0.00    +0.000 A 
ATOM     12  C   UNL     1       1.588   9.115  19.303  0.00  0.00    +0.000 A 
ATOM     13  C   UNL     1       1.490  10.477  18.954  0.00  0.00    +0.000 A 
ATOM     14  C   UNL     1       2.220  10.976  17.727  0.00  0.00    +0.000 C 
ENDROOT
BRANCH   1  16
ATOM     15  C   UNL     1      -0.414  13.104  18.670  0.00  0.00    +0.000 C 
ATOM     16  O   UNL     1       0.583  12.692  19.595  0.00  0.00    +0.000 OA
ENDBRANCH   1  16
BRANCH  10  17
ATOM     17  C   UNL     1       2.981   5.814  17.922  0.00  0.00    +0.000 C 
BRANCH  17  18
ATOM     18  C   UNL     1       4.501   5.867  17.881  0.00  0.00    +0.000 A 
ATOM     19  C   UNL     1       5.102   6.956  17.220  0.00  0.00    +0.000 A 
ATOM     20  C   UNL     1       6.481   7.150  17.257  0.00  0.00    +0.000 A 
ATOM     21  C   UNL     1       7.286   6.239  17.925  0.00  0.00    +0.000 A 
ATOM     22  C   UNL     1       6.717   5.125  18.540  0.00  0.00    +0.000 A 
ATOM     23  C   UNL     1       5.325   4.921  18.530  0.00  0.00    +0.000 A 
ATOM     24  C   UNL     1       4.775   3.711  19.232  0.00  0.00    +0.000 C 
ENDBRANCH  17  18
ENDBRANCH  10  17
TORSDOF 3
ENDMDL
MODEL 5
REMARK VINA RESULT:      -7.4      2.995      7.861
REMARK  Name = 
REMARK  8 active torsions:
REMARK  status: ('A' for Active; 'I' for Inactive)
REMARK    1  A    between atoms: C_1  and  O_2
REMARK    2  A    between atoms: O_2  and  C_3
REMARK    3  A    between atoms: C_4  and  C_5
REMARK    4  A    between atoms: C_6  and  C_7
REMARK    5  A    between atoms: C_12  and  C_13
REMARK    6  A    between atoms: C_13  and  C_14
REMARK    7  A    between atoms: C_19  and  C_20
REMARK    8  A    between atoms: C_23  and  C_24
REMARK                            x       y       z     vdW  Elec       q    Type
REMARK                         _______ _______ _______ _____ _____    ______ ____
ROOT
ATOM      1  C   UNL     1       3.953   5.016  18.256  0.00  0.00    +0.000 A 
ATOM      2  C   UNL     1       3.535   4.231  19.369  0.00  0.00    +0.000 A 
ATOM      3  C   UNL     1       4.028   2.810  19.553  0.00  0.00    +0.000 C 
ATOM      4  C   UNL     1       2.620   4.769  20.293  0.00  0.00    +0.000 A 
ATOM      5  C   UNL     1       2.093   4.015  21.491  0.00  0.00    +0.000 C 
ATOM      6  C   UNL     1       2.207   6.102  20.120  0.00  0.00    +0.000 A 
ATOM      7  O   UNL     1       1.255   6.608  21.038  0.00  0.00    +0.000 OA
ATOM      8  C   UNL     1       0.661   7.850  20.885  0.00  0.00    +0.000 A 
ATOM      9  O   UNL     1      -0.316   8.187  21.545  0.00  0.00    +0.000 OA
ATOM     10  C   UNL     1       1.319   8.775  19.925  0.00  0.00    +0.000 A 
ATOM     11  C   UNL     1       2.238   8.301  19.072  0.00  0.00    +0.000 A 
ATOM     12  C   UNL     1       2.651   6.906  19.065  0.00  0.00    +0.000 A 
ATOM     13  C   UNL     1       3.494   6.356  18.078  0.00  0.00    +0.000 A 
ATOM     14  C   UNL     1       3.831   7.181  16.856  0.00  0.00    +0.000 C 
ENDROOT
BRANCH   1  16
ATOM     15  C   UNL     1       6.163   4.619  17.411  0.00  0.00    +0.000 C 
ATOM     16  O   UNL     1       4.767   4.356  17.361  0.00  0.00    +0.000 OA
ENDBRANCH   1  16
BRANCH  10  17
ATOM     17  C   UNL     1       0.949  10.228  19.967  0.00  0.00    +0.000 C 
BRANCH  17  18
ATOM     18  C   UNL     1      -0.305  10.511  19.154  0.00  0.00    +0.000 A 
ATOM     19  C   UNL     1      -0.455   9.841  17.924  0.00  0.00    +0.000 A 
ATOM     20  C   UNL     1      -1.633   9.939  17.188  0.00  0.00    +0.000 A 
ATOM     21  C   UNL     1      -2.668  10.738  17.650  0.00  0.00    +0.000 A 
ATOM     22  C   UNL     1      -2.519  11.453  18.837  0.00  0.00    +0.000 A 
ATOM     23  C   UNL     1      -1.345  11.353  19.605  0.00  0.00    +0.000 A 
ATOM     24  C   UNL     1      -1.260  12.133  20.887  0.00  0.00    +0.000 C 
ENDBRANCH  17  18
ENDBRANCH  10  17
TORSDOF 3
ENDMDL
MODEL 6
REMARK VINA RESULT:      -7.4      3.454      6.267
REMARK  Name = 
REMARK  8 active torsions:
REMARK  status: ('A' for Active; 'I' for Inactive)
REMARK    1  A    between atoms: C_1  and  O_2
REMARK    2  A    between atoms: O_2  and  C_3
REMARK    3  A    between atoms: C_4  and  C_5
REMARK    4  A    between atoms: C_6  and  C_7
REMARK    5  A    between atoms: C_12  and  C_13
REMARK    6  A    between atoms: C_13  and  C_14
REMARK    7  A    between atoms: C_19  and  C_20
REMARK    8  A    between atoms: C_23  and  C_24
REMARK                            x       y       z     vdW  Elec       q    Type
REMARK                         _______ _______ _______ _____ _____    ______ ____
ROOT
ATOM      1  C   UNL     1      -0.293  10.595  20.746  0.00  0.00    +0.000 A 
ATOM      2  C   UNL     1       0.226  11.430  19.714  0.00  0.00    +0.000 A 
ATOM      3  C   UNL     1      -0.279  12.846  19.527  0.00  0.00    +0.000 C 
ATOM      4  C   UNL     1       1.195  10.921  18.831  0.00  0.00    +0.000 A 
ATOM      5  C   UNL     1       1.790  11.711  17.689  0.00  0.00    +0.000 C 
ATOM      6  C   UNL     1       1.673   9.616  19.049  0.00  0.00    +0.000 A 
ATOM      7  O   UNL     1       2.617   9.110  18.123  0.00  0.00    +0.000 OA
ATOM      8  C   UNL     1       3.049   7.794  18.144  0.00  0.00    +0.000 A 
ATOM      9  O   UNL     1       3.683   7.306  17.215  0.00  0.00    +0.000 OA
ATOM     10  C   UNL     1       2.756   7.030  19.385  0.00  0.00    +0.000 A 
ATOM     11  C   UNL     1       1.882   7.521  20.274  0.00  0.00    +0.000 A 
ATOM     12  C   UNL     1       1.217   8.803  20.091  0.00  0.00    +0.000 A 
ATOM     13  C   UNL     1       0.181   9.261  20.929  0.00  0.00    +0.000 A 
ATOM     14  C   UNL     1      -0.419   8.312  21.943  0.00  0.00    +0.000 C 
ENDROOT
BRANCH   1  16
ATOM     15  C   UNL     1      -0.996  11.645  22.786  0.00  0.00    +0.000 C 
ATOM     16  O   UNL     1      -1.308  11.160  21.487  0.00  0.00    +0.000 OA
ENDBRANCH   1  16
BRANCH  10  17
ATOM     17  C   UNL     1       3.485   5.740  19.616  0.00  0.00    +0.000 C 
BRANCH  17  18
ATOM     18  C   UNL     1       2.588   4.538  19.363  0.00  0.00    +0.000 A 
ATOM     19  C   UNL     1       1.580   4.259  20.308  0.00  0.00    +0.000 A 
ATOM     20  C   UNL     1       0.633   3.263  20.080  0.00  0.00    +0.000 A 
ATOM     21  C   UNL     1       0.698   2.504  18.921  0.00  0.00    +0.000 A 
ATOM     22  C   UNL     1       1.720   2.727  17.999  0.00  0.00    +0.000 A 
ATOM     23  C   UNL     1       2.674   3.740  18.201  0.00  0.00    +0.000 A 
ATOM     24  C   UNL     1       3.735   3.942  17.155  0.00  0.00    +0.000 C 
ENDBRANCH  17  18
ENDBRANCH  10  17
TORSDOF 3
ENDMDL
MODEL 7
REMARK VINA RESULT:      -7.3      2.829      5.670
REMARK  Name = 
REMARK  8 active torsions:
REMARK  status: ('A' for Active; 'I' for Inactive)
REMARK    1  A    between atoms: C_1  and  O_2
REMARK    2  A    between atoms: O_2  and  C_3
REMARK    3  A    between atoms: C_4  and  C_5
REMARK    4  A    between atoms: C_6  and  C_7
REMARK    5  A    between atoms: C_12  and  C_13
REMARK    6  A    between atoms: C_13  and  C_14
REMARK    7  A    between atoms: C_19  and  C_20
REMARK    8  A    between atoms: C_23  and  C_24
REMARK                            x       y       z     vdW  Elec       q    Type
REMARK                         _______ _______ _______ _____ _____    ______ ____
ROOT
ATOM      1  C   UNL     1       0.929  10.537  19.335  0.00  0.00    +0.000 A 
ATOM      2  C   UNL     1       0.229  10.199  20.529  0.00  0.00    +0.000 A 
ATOM      3  C   UNL     1      -0.638  11.217  21.241  0.00  0.00    +0.000 C 
ATOM      4  C   UNL     1       0.372   8.911  21.076  0.00  0.00    +0.000 A 
ATOM      5  C   UNL     1      -0.305   8.458  22.349  0.00  0.00    +0.000 C 
ATOM      6  C   UNL     1       1.152   7.973  20.376  0.00  0.00    +0.000 A 
ATOM      7  O   UNL     1       1.315   6.698  20.967  0.00  0.00    +0.000 OA
ATOM      8  C   UNL     1       2.177   5.743  20.452  0.00  0.00    +0.000 A 
ATOM      9  O   UNL     1       2.484   4.738  21.084  0.00  0.00    +0.000 OA
ATOM     10  C   UNL     1       2.653   5.974  19.063  0.00  0.00    +0.000 A 
ATOM     11  C   UNL     1       2.476   7.175  18.493  0.00  0.00    +0.000 A 
ATOM     12  C   UNL     1       1.801   8.270  19.173  0.00  0.00    +0.000 A 
ATOM     13  C   UNL     1       1.745   9.580  18.657  0.00  0.00    +0.000 A 
ATOM     14  C   UNL     1       2.586   9.932  17.450  0.00  0.00    +0.000 C 
ENDROOT
BRANCH   1  16
ATOM     15  C   UNL     1       1.822  12.763  19.320  0.00  0.00    +0.000 C 
ATOM     16  O   UNL     1       0.799  11.852  18.944  0.00  0.00    +0.000 OA
ENDBRANCH   1  16
BRANCH  10  17
ATOM     17  C   UNL     1       3.291   4.833  18.328  0.00  0.00    +0.000 C 
BRANCH  17  18
ATOM     18  C   UNL     1       4.793   5.026  18.192  0.00  0.00    +0.000 A 
ATOM     19  C   UNL     1       5.511   5.425  19.336  0.00  0.00    +0.000 A 
ATOM     20  C   UNL     1       6.902   5.490  19.329  0.00  0.00    +0.000 A 
ATOM     21  C   UNL     1       7.599   5.191  18.168  0.00  0.00    +0.000 A 
ATOM     22  C   UNL     1       6.906   4.847  17.008  0.00  0.00    +0.000 A 
ATOM     23  C   UNL     1       5.502   4.758  17.000  0.00  0.00    +0.000 A 
ATOM     24  C   UNL     1       4.819   4.358  15.721  0.00  0.00    +0.000 C 
ENDBRANCH  17  18
ENDBRANCH  10  17
TORSDOF 3
ENDMDL
MODEL 8
REMARK VINA RESULT:      -7.2      4.424      6.644
REMARK  Name = 
REMARK  8 active torsions:
REMARK  status: ('A' for Active; 'I' for Inactive)
REMARK    1  A    between atoms: C_1  and  O_2
REMARK    2  A    between atoms: O_2  and  C_3
REMARK    3  A    between atoms: C_4  and  C_5
REMARK    4  A    between atoms: C_6  and  C_7
REMARK    5  A    between atoms: C_12  and  C_13
REMARK    6  A    between atoms: C_13  and  C_14
REMARK    7  A    between atoms: C_19  and  C_20
REMARK    8  A    between atoms: C_23  and  C_24
REMARK                            x       y       z     vdW  Elec       q    Type
REMARK                         _______ _______ _______ _____ _____    ______ ____
ROOT
ATOM      1  C   UNL     1      -0.404  10.762  20.820  0.00  0.00    +0.000 A 
ATOM      2  C   UNL     1       0.156  11.625  19.835  0.00  0.00    +0.000 A 
ATOM      3  C   UNL     1      -0.304  13.062  19.702  0.00  0.00    +0.000 C 
ATOM      4  C   UNL     1       1.125  11.125  18.945  0.00  0.00    +0.000 A 
ATOM      5  C   UNL     1       1.762  11.947  17.849  0.00  0.00    +0.000 C 
ATOM      6  C   UNL     1       1.562   9.799  19.113  0.00  0.00    +0.000 A 
ATOM      7  O   UNL     1       2.506   9.306  18.181  0.00  0.00    +0.000 OA
ATOM      8  C   UNL     1       2.899   7.978  18.151  0.00  0.00    +0.000 A 
ATOM      9  O   UNL     1       3.535   7.512  17.212  0.00  0.00    +0.000 OA
ATOM     10  C   UNL     1       2.564   7.170  19.353  0.00  0.00    +0.000 A 
ATOM     11  C   UNL     1       1.689   7.647  20.249  0.00  0.00    +0.000 A 
ATOM     12  C   UNL     1       1.065   8.955  20.111  0.00  0.00    +0.000 A 
ATOM     13  C   UNL     1       0.028   9.407  20.953  0.00  0.00    +0.000 A 
ATOM     14  C   UNL     1      -0.616   8.434  21.914  0.00  0.00    +0.000 C 
ENDROOT
BRANCH   1  16
ATOM     15  C   UNL     1      -1.227  11.424  22.974  0.00  0.00    +0.000 C 
ATOM     16  O   UNL     1      -1.415  11.324  21.569  0.00  0.00    +0.000 OA
ENDBRANCH   1  16
BRANCH  10  17
ATOM     17  C   UNL     1       3.251   5.850  19.539  0.00  0.00    +0.000 C 
BRANCH  17  18
ATOM     18  C   UNL     1       2.295   4.687  19.320  0.00  0.00    +0.000 A 
ATOM     19  C   UNL     1       1.832   4.454  18.010  0.00  0.00    +0.000 A 
ATOM     20  C   UNL     1       1.067   3.331  17.704  0.00  0.00    +0.000 A 
ATOM     21  C   UNL     1       0.721   2.440  18.709  0.00  0.00    +0.000 A 
ATOM     22  C   UNL     1       1.122   2.681  20.022  0.00  0.00    +0.000 A 
ATOM     23  C   UNL     1       1.911   3.798  20.349  0.00  0.00    +0.000 A 
ATOM     24  C   UNL     1       2.329   3.985  21.781  0.00  0.00    +0.000 C 
ENDBRANCH  17  18
ENDBRANCH  10  17
TORSDOF 3
ENDMDL
MODEL 9
REMARK VINA RESULT:      -7.2      3.931      7.061
REMARK  Name = 
REMARK  8 active torsions:
REMARK  status: ('A' for Active; 'I' for Inactive)
REMARK    1  A    between atoms: C_1  and  O_2
REMARK    2  A    between atoms: O_2  and  C_3
REMARK    3  A    between atoms: C_4  and  C_5
REMARK    4  A    between atoms: C_6  and  C_7
REMARK    5  A    between atoms: C_12  and  C_13
REMARK    6  A    between atoms: C_13  and  C_14
REMARK    7  A    between atoms: C_19  and  C_20
REMARK    8  A    between atoms: C_23  and  C_24
REMARK                            x       y       z     vdW  Elec       q    Type
REMARK                         _______ _______ _______ _____ _____    ______ ____
ROOT
ATOM      1  C   UNL     1      -1.193  11.235  21.675  0.00  0.00    +0.000 A 
ATOM      2  C   UNL     1      -1.337  11.882  20.414  0.00  0.00    +0.000 A 
ATOM      3  C   UNL     1      -2.219  13.104  20.258  0.00  0.00    +0.000 C 
ATOM      4  C   UNL     1      -0.679  11.358  19.286  0.00  0.00    +0.000 A 
ATOM      5  C   UNL     1      -0.785  11.950  17.900  0.00  0.00    +0.000 C 
ATOM      6  C   UNL     1       0.163  10.245  19.464  0.00  0.00    +0.000 A 
ATOM      7  O   UNL     1       0.781   9.711  18.309  0.00  0.00    +0.000 OA
ATOM      8  C   UNL     1       1.511   8.533  18.332  0.00  0.00    +0.000 A 
ATOM      9  O   UNL     1       1.848   7.959  17.302  0.00  0.00    +0.000 OA
ATOM     10  C   UNL     1       1.917   8.042  19.675  0.00  0.00    +0.000 A 
ATOM     11  C   UNL     1       1.350   8.566  20.771  0.00  0.00    +0.000 A 
ATOM     12  C   UNL     1       0.361   9.632  20.705  0.00  0.00    +0.000 A 
ATOM     13  C   UNL     1      -0.360  10.085  21.829  0.00  0.00    +0.000 A 
ATOM     14  C   UNL     1      -0.267   9.311  23.124  0.00  0.00    +0.000 C 
ENDROOT
BRANCH   1  16
ATOM     15  C   UNL     1      -1.428  12.868  23.417  0.00  0.00    +0.000 C 
ATOM     16  O   UNL     1      -1.960  11.771  22.687  0.00  0.00    +0.000 OA
ENDBRANCH   1  16
BRANCH  10  17
ATOM     17  C   UNL     1       2.983   6.991  19.758  0.00  0.00    +0.000 C 
BRANCH  17  18
ATOM     18  C   UNL     1       2.405   5.594  19.587  0.00  0.00    +0.000 A 
ATOM     19  C   UNL     1       1.487   5.139  20.554  0.00  0.00    +0.000 A 
ATOM     20  C   UNL     1       0.811   3.932  20.395  0.00  0.00    +0.000 A 
ATOM     21  C   UNL     1       1.068   3.140  19.286  0.00  0.00    +0.000 A 
ATOM     22  C   UNL     1       2.013   3.545  18.345  0.00  0.00    +0.000 A 
ATOM     23  C   UNL     1       2.692   4.770  18.476  0.00  0.00    +0.000 A 
ATOM     24  C   UNL     1       3.682   5.157  17.413  0.00  0.00    +0.000 C 
ENDBRANCH  17  18
ENDBRANCH  10  17
TORSDOF 3
ENDMDL
