MODEL 1
REMARK VINA RESULT:      -7.4      0.000      0.000
REMARK  Name = 
REMARK  6 active torsions:
REMARK  status: ('A' for Active; 'I' for Inactive)
REMARK    1  A    between atoms: C_5  and  C_6
REMARK    2  A    between atoms: C_6  and  C_7
REMARK    3  A    between atoms: C_7  and  C_8
REMARK    4  A    between atoms: C_8  and  C_9
REMARK    5  A    between atoms: C_9  and  N_10
REMARK    6  A    between atoms: C_18  and  C_19
REMARK                            x       y       z     vdW  Elec       q    Type
REMARK                         _______ _______ _______ _____ _____    ______ ____
ROOT
ATOM      1  N   UNL     1       2.510   6.330  18.483  0.00  0.00    +0.000 NA
ATOM      2  C   UNL     1       2.073   6.593  19.882  0.00  0.00    +0.000 C 
ATOM      3  C   UNL     1       2.306   8.056  20.234  0.00  0.00    +0.000 C 
ATOM      4  N   UNL     1       1.586   8.852  19.267  0.00  0.00    +0.000 N 
ATOM      5  C   UNL     1       0.564   9.731  19.654  0.00  0.00    +0.000 A 
ATOM      6  C   UNL     1       0.591  10.348  20.921  0.00  0.00    +0.000 A 
ATOM      7  C   UNL     1      -0.402  11.237  21.273  0.00  0.00    +0.000 A 
ATOM      8  C   UNL     1      -1.430  11.510  20.385  0.00  0.00    +0.000 A 
ATOM      9  C   UNL     1      -1.460  10.870  19.134  0.00  0.00    +0.000 A 
ATOM     10  N   UNL     1      -0.459  10.022  18.811  0.00  0.00    +0.000 NA
ATOM     11  C   UNL     1       1.898   8.650  17.848  0.00  0.00    +0.000 C 
ATOM     12  C   UNL     1       1.771   7.156  17.531  0.00  0.00    +0.000 C 
ENDROOT
BRANCH   9  13
ATOM     13  C   UNL     1      -2.556  11.111  18.171  0.00  0.00    +0.000 A 
ATOM     14  C   UNL     1      -3.793  11.647  18.573  0.00  0.00    +0.000 A 
ATOM     15  C   UNL     1      -4.810  11.863  17.660  0.00  0.00    +0.000 A 
ATOM     16  C   UNL     1      -4.616  11.523  16.321  0.00  0.00    +0.000 A 
ATOM     17  C   UNL     1      -3.403  10.984  15.900  0.00  0.00    +0.000 A 
ATOM     18  C   UNL     1      -2.373  10.785  16.816  0.00  0.00    +0.000 A 
ENDBRANCH   9  13
BRANCH   1  19
ATOM     19  C   UNL     1       3.986   6.474  18.356  0.00  0.00    +0.000 C 
BRANCH  19  20
ATOM     20  C   UNL     1       4.515   5.687  17.167  0.00  0.00    +0.000 C 
BRANCH  20  21
ATOM     21  C   UNL     1       4.934   4.314  17.658  0.00  0.00    +0.000 C 
BRANCH  21  22
ATOM     22  C   UNL     1       3.886   3.231  17.362  0.00  0.00    +0.000 C 
BRANCH  22  27
ATOM     23  F   UNL     1       0.799   2.603  22.039  0.00  0.00    +0.000 F 
ATOM     24  C   UNL     1       1.543   2.680  20.910  0.00  0.00    +0.000 A 
ATOM     25  C   UNL     1       0.926   2.822  19.663  0.00  0.00    +0.000 A 
ATOM     26  C   UNL     1       1.699   2.957  18.514  0.00  0.00    +0.000 A 
ATOM     27  C   UNL     1       3.099   2.964  18.606  0.00  0.00    +0.000 A 
ATOM     28  C   UNL     1       3.714   2.765  19.856  0.00  0.00    +0.000 A 
ATOM     29  C   UNL     1       2.932   2.629  21.003  0.00  0.00    +0.000 A 
ENDBRANCH  22  27
ENDBRANCH  21  22
ENDBRANCH  20  21
ENDBRANCH  19  20
ENDBRANCH   1  19
TORSDOF 6
ENDMDL
MODEL 2
REMARK VINA RESULT:      -7.4      2.820      4.463
REMARK  Name = 
REMARK  6 active torsions:
REMARK  status: ('A' for Active; 'I' for Inactive)
REMARK    1  A    between atoms: C_5  and  C_6
REMARK    2  A    between atoms: C_6  and  C_7
REMARK    3  A    between atoms: C_7  and  C_8
REMARK    4  A    between atoms: C_8  and  C_9
REMARK    5  A    between atoms: C_9  and  N_10
REMARK    6  A    between atoms: C_18  and  C_19
REMARK                            x       y       z     vdW  Elec       q    Type
REMARK                         _______ _______ _______ _____ _____    ______ ____
ROOT
ATOM      1  N   UNL     1       0.834  10.116  19.853  0.00  0.00    +0.000 NA
ATOM      2  C   UNL     1       1.065  11.364  20.633  0.00  0.00    +0.000 C 
ATOM      3  C   UNL     1       0.498  12.560  19.881  0.00  0.00    +0.000 C 
ATOM      4  N   UNL     1      -0.904  12.300  19.650  0.00  0.00    +0.000 N 
ATOM      5  C   UNL     1      -1.902  13.140  20.164  0.00  0.00    +0.000 A 
ATOM      6  C   UNL     1      -1.652  14.513  20.359  0.00  0.00    +0.000 A 
ATOM      7  C   UNL     1      -2.655  15.332  20.832  0.00  0.00    +0.000 A 
ATOM      8  C   UNL     1      -3.899  14.801  21.126  0.00  0.00    +0.000 A 
ATOM      9  C   UNL     1      -4.130  13.425  20.950  0.00  0.00    +0.000 A 
ATOM     10  N   UNL     1      -3.133  12.654  20.463  0.00  0.00    +0.000 NA
ATOM     11  C   UNL     1      -1.260  11.073  18.928  0.00  0.00    +0.000 C 
ATOM     12  C   UNL     1      -0.591   9.886  19.628  0.00  0.00    +0.000 C 
ENDROOT
BRANCH   9  13
ATOM     13  C   UNL     1      -5.435  12.813  21.283  0.00  0.00    +0.000 A 
ATOM     14  C   UNL     1      -6.121  11.988  20.375  0.00  0.00    +0.000 A 
ATOM     15  C   UNL     1      -7.343  11.425  20.700  0.00  0.00    +0.000 A 
ATOM     16  C   UNL     1      -7.916  11.698  21.942  0.00  0.00    +0.000 A 
ATOM     17  C   UNL     1      -7.260  12.518  22.856  0.00  0.00    +0.000 A 
ATOM     18  C   UNL     1      -6.021  13.068  22.535  0.00  0.00    +0.000 A 
ENDBRANCH   9  13
BRANCH   1  19
ATOM     19  C   UNL     1       1.629  10.128  18.595  0.00  0.00    +0.000 C 
BRANCH  19  20
ATOM     20  C   UNL     1       1.445   8.833  17.818  0.00  0.00    +0.000 C 
BRANCH  20  21
ATOM     21  C   UNL     1       2.618   7.923  18.130  0.00  0.00    +0.000 C 
BRANCH  21  22
ATOM     22  C   UNL     1       2.477   7.213  19.484  0.00  0.00    +0.000 C 
BRANCH  22  27
ATOM     23  F   UNL     1       0.983   1.817  18.809  0.00  0.00    +0.000 F 
ATOM     24  C   UNL     1       1.273   3.133  18.952  0.00  0.00    +0.000 A 
ATOM     25  C   UNL     1       1.170   3.749  20.203  0.00  0.00    +0.000 A 
ATOM     26  C   UNL     1       1.524   5.087  20.352  0.00  0.00    +0.000 A 
ATOM     27  C   UNL     1       1.997   5.815  19.250  0.00  0.00    +0.000 A 
ATOM     28  C   UNL     1       2.044   5.205  17.983  0.00  0.00    +0.000 A 
ATOM     29  C   UNL     1       1.687   3.865  17.842  0.00  0.00    +0.000 A 
ENDBRANCH  22  27
ENDBRANCH  21  22
ENDBRANCH  20  21
ENDBRANCH  19  20
ENDBRANCH   1  19
TORSDOF 6
ENDMDL
MODEL 3
REMARK VINA RESULT:      -7.4      2.850      4.414
REMARK  Name = 
REMARK  6 active torsions:
REMARK  status: ('A' for Active; 'I' for Inactive)
REMARK    1  A    between atoms: C_5  and  C_6
REMARK    2  A    between atoms: C_6  and  C_7
REMARK    3  A    between atoms: C_7  and  C_8
REMARK    4  A    between atoms: C_8  and  C_9
REMARK    5  A    between atoms: C_9  and  N_10
REMARK    6  A    between atoms: C_18  and  C_19
REMARK                            x       y       z     vdW  Elec       q    Type
REMARK                         _______ _______ _______ _____ _____    ______ ____
ROOT
ATOM      1  N   UNL     1       0.799  10.096  19.611  0.00  0.00    +0.000 NA
ATOM      2  C   UNL     1       1.052  11.227  20.546  0.00  0.00    +0.000 C 
ATOM      3  C   UNL     1       0.547  12.528  19.938  0.00  0.00    +0.000 C 
ATOM      4  N   UNL     1      -0.857  12.352  19.646  0.00  0.00    +0.000 N 
ATOM      5  C   UNL     1      -1.839  13.158  20.240  0.00  0.00    +0.000 A 
ATOM      6  C   UNL     1      -1.546  14.486  20.612  0.00  0.00    +0.000 A 
ATOM      7  C   UNL     1      -2.531  15.277  21.161  0.00  0.00    +0.000 A 
ATOM      8  C   UNL     1      -3.801  14.760  21.360  0.00  0.00    +0.000 A 
ATOM      9  C   UNL     1      -4.074  13.427  21.008  0.00  0.00    +0.000 A 
ATOM     10  N   UNL     1      -3.093  12.685  20.449  0.00  0.00    +0.000 NA
ATOM     11  C   UNL     1      -1.236  11.239  18.768  0.00  0.00    +0.000 C 
ATOM     12  C   UNL     1      -0.627   9.949  19.328  0.00  0.00    +0.000 C 
ENDROOT
BRANCH   9  13
ATOM     13  C   UNL     1      -5.408  12.828  21.233  0.00  0.00    +0.000 A 
ATOM     14  C   UNL     1      -6.139  13.065  22.411  0.00  0.00    +0.000 A 
ATOM     15  C   UNL     1      -7.384  12.494  22.608  0.00  0.00    +0.000 A 
ATOM     16  C   UNL     1      -7.917  11.652  21.632  0.00  0.00    +0.000 A 
ATOM     17  C   UNL     1      -7.209  11.396  20.460  0.00  0.00    +0.000 A 
ATOM     18  C   UNL     1      -5.964  11.986  20.255  0.00  0.00    +0.000 A 
ENDBRANCH   9  13
BRANCH   1  19
ATOM     19  C   UNL     1       1.626  10.234  18.381  0.00  0.00    +0.000 C 
BRANCH  19  20
ATOM     20  C   UNL     1       1.699   8.921  17.618  0.00  0.00    +0.000 C 
BRANCH  20  21
ATOM     21  C   UNL     1       2.367   7.891  18.511  0.00  0.00    +0.000 C 
BRANCH  21  22
ATOM     22  C   UNL     1       3.593   7.241  17.854  0.00  0.00    +0.000 C 
BRANCH  22  27
ATOM     23  F   UNL     1       2.530   1.716  17.466  0.00  0.00    +0.000 F 
ATOM     24  C   UNL     1       2.767   3.050  17.487  0.00  0.00    +0.000 A 
ATOM     25  C   UNL     1       1.767   3.941  17.888  0.00  0.00    +0.000 A 
ATOM     26  C   UNL     1       2.037   5.304  17.962  0.00  0.00    +0.000 A 
ATOM     27  C   UNL     1       3.316   5.785  17.646  0.00  0.00    +0.000 A 
ATOM     28  C   UNL     1       4.301   4.890  17.190  0.00  0.00    +0.000 A 
ATOM     29  C   UNL     1       4.023   3.526  17.118  0.00  0.00    +0.000 A 
ENDBRANCH  22  27
ENDBRANCH  21  22
ENDBRANCH  20  21
ENDBRANCH  19  20
ENDBRANCH   1  19
TORSDOF 6
ENDMDL
MODEL 4
REMARK VINA RESULT:      -7.4      3.141      4.936
REMARK  Name = 
REMARK  6 active torsions:
REMARK  status: ('A' for Active; 'I' for Inactive)
REMARK    1  A    between atoms: C_5  and  C_6
REMARK    2  A    between atoms: C_6  and  C_7
REMARK    3  A    between atoms: C_7  and  C_8
REMARK    4  A    between atoms: C_8  and  C_9
REMARK    5  A    between atoms: C_9  and  N_10
REMARK    6  A    between atoms: C_18  and  C_19
REMARK                            x       y       z     vdW  Elec       q    Type
REMARK                         _______ _______ _______ _____ _____    ______ ____
ROOT
ATOM      1  N   UNL     1       3.468   4.584  20.061  0.00  0.00    +0.000 NA
ATOM      2  C   UNL     1       4.275   5.674  19.444  0.00  0.00    +0.000 C 
ATOM      3  C   UNL     1       3.476   6.350  18.339  0.00  0.00    +0.000 C 
ATOM      4  N   UNL     1       2.248   6.832  18.927  0.00  0.00    +0.000 N 
ATOM      5  C   UNL     1       1.918   8.195  18.929  0.00  0.00    +0.000 A 
ATOM      6  C   UNL     1       2.369   9.042  17.896  0.00  0.00    +0.000 A 
ATOM      7  C   UNL     1       2.008  10.372  17.893  0.00  0.00    +0.000 A 
ATOM      8  C   UNL     1       1.214  10.874  18.911  0.00  0.00    +0.000 A 
ATOM      9  C   UNL     1       0.791  10.026  19.948  0.00  0.00    +0.000 A 
ATOM     10  N   UNL     1       1.143   8.722  19.910  0.00  0.00    +0.000 NA
ATOM     11  C   UNL     1       1.387   5.856  19.605  0.00  0.00    +0.000 C 
ATOM     12  C   UNL     1       2.229   5.100  20.638  0.00  0.00    +0.000 C 
ENDROOT
BRANCH   9  13
ATOM     13  C   UNL     1      -0.031  10.530  21.070  0.00  0.00    +0.000 A 
ATOM     14  C   UNL     1      -0.652  11.791  21.027  0.00  0.00    +0.000 A 
ATOM     15  C   UNL     1      -1.415  12.249  22.086  0.00  0.00    +0.000 A 
ATOM     16  C   UNL     1      -1.554  11.458  23.227  0.00  0.00    +0.000 A 
ATOM     17  C   UNL     1      -0.943  10.210  23.297  0.00  0.00    +0.000 A 
ATOM     18  C   UNL     1      -0.191   9.741  22.222  0.00  0.00    +0.000 A 
ENDBRANCH   9  13
BRANCH   1  19
ATOM     19  C   UNL     1       3.242   3.480  19.088  0.00  0.00    +0.000 C 
BRANCH  19  20
ATOM     20  C   UNL     1       4.540   3.075  18.407  0.00  0.00    +0.000 C 
BRANCH  20  21
ATOM     21  C   UNL     1       4.453   3.476  16.946  0.00  0.00    +0.000 C 
BRANCH  21  22
ATOM     22  C   UNL     1       5.831   3.582  16.275  0.00  0.00    +0.000 C 
BRANCH  22  27
ATOM     23  F   UNL     1       8.375   7.944  18.786  0.00  0.00    +0.000 F 
ATOM     24  C   UNL     1       7.819   6.894  18.134  0.00  0.00    +0.000 A 
ATOM     25  C   UNL     1       8.064   5.585  18.560  0.00  0.00    +0.000 A 
ATOM     26  C   UNL     1       7.445   4.516  17.920  0.00  0.00    +0.000 A 
ATOM     27  C   UNL     1       6.563   4.751  16.854  0.00  0.00    +0.000 A 
ATOM     28  C   UNL     1       6.365   6.066  16.394  0.00  0.00    +0.000 A 
ATOM     29  C   UNL     1       6.991   7.132  17.040  0.00  0.00    +0.000 A 
ENDBRANCH  22  27
ENDBRANCH  21  22
ENDBRANCH  20  21
ENDBRANCH  19  20
ENDBRANCH   1  19
TORSDOF 6
ENDMDL
MODEL 5
REMARK VINA RESULT:      -7.3      3.199      4.666
REMARK  Name = 
REMARK  6 active torsions:
REMARK  status: ('A' for Active; 'I' for Inactive)
REMARK    1  A    between atoms: C_5  and  C_6
REMARK    2  A    between atoms: C_6  and  C_7
REMARK    3  A    between atoms: C_7  and  C_8
REMARK    4  A    between atoms: C_8  and  C_9
REMARK    5  A    between atoms: C_9  and  N_10
REMARK    6  A    between atoms: C_18  and  C_19
REMARK                            x       y       z     vdW  Elec       q    Type
REMARK                         _______ _______ _______ _____ _____    ______ ____
ROOT
ATOM      1  N   UNL     1       0.368   9.644  19.818  0.00  0.00    +0.000 NA
ATOM      2  C   UNL     1       0.810  10.112  21.161  0.00  0.00    +0.000 C 
ATOM      3  C   UNL     1       0.714  11.629  21.240  0.00  0.00    +0.000 C 
ATOM      4  N   UNL     1      -0.654  11.991  20.948  0.00  0.00    +0.000 N 
ATOM      5  C   UNL     1      -1.450  12.672  21.880  0.00  0.00    +0.000 A 
ATOM      6  C   UNL     1      -0.866  13.552  22.814  0.00  0.00    +0.000 A 
ATOM      7  C   UNL     1      -1.665  14.241  23.700  0.00  0.00    +0.000 A 
ATOM      8  C   UNL     1      -3.037  14.054  23.681  0.00  0.00    +0.000 A 
ATOM      9  C   UNL     1      -3.606  13.156  22.762  0.00  0.00    +0.000 A 
ATOM     10  N   UNL     1      -2.797  12.514  21.890  0.00  0.00    +0.000 NA
ATOM     11  C   UNL     1      -1.218  11.547  19.669  0.00  0.00    +0.000 C 
ATOM     12  C   UNL     1      -1.014  10.033  19.547  0.00  0.00    +0.000 C 
ENDROOT
BRANCH   9  13
ATOM     13  C   UNL     1      -5.064  12.905  22.730  0.00  0.00    +0.000 A 
ATOM     14  C   UNL     1      -5.846  12.925  23.898  0.00  0.00    +0.000 A 
ATOM     15  C   UNL     1      -7.209  12.686  23.851  0.00  0.00    +0.000 A 
ATOM     16  C   UNL     1      -7.815  12.398  22.628  0.00  0.00    +0.000 A 
ATOM     17  C   UNL     1      -7.060  12.365  21.459  0.00  0.00    +0.000 A 
ATOM     18  C   UNL     1      -5.692  12.625  21.504  0.00  0.00    +0.000 A 
ENDBRANCH   9  13
BRANCH   1  19
ATOM     19  C   UNL     1       1.317  10.096  18.764  0.00  0.00    +0.000 C 
BRANCH  19  20
ATOM     20  C   UNL     1       1.431   9.067  17.650  0.00  0.00    +0.000 C 
BRANCH  20  21
ATOM     21  C   UNL     1       2.654   8.211  17.919  0.00  0.00    +0.000 C 
BRANCH  21  22
ATOM     22  C   UNL     1       2.444   7.218  19.072  0.00  0.00    +0.000 C 
BRANCH  22  27
ATOM     23  F   UNL     1       3.151   1.862  17.453  0.00  0.00    +0.000 F 
ATOM     24  C   UNL     1       2.938   3.160  17.782  0.00  0.00    +0.000 A 
ATOM     25  C   UNL     1       1.909   3.508  18.663  0.00  0.00    +0.000 A 
ATOM     26  C   UNL     1       1.734   4.836  19.040  0.00  0.00    +0.000 A 
ATOM     27  C   UNL     1       2.597   5.825  18.547  0.00  0.00    +0.000 A 
ATOM     28  C   UNL     1       3.594   5.477  17.618  0.00  0.00    +0.000 A 
ATOM     29  C   UNL     1       3.763   4.145  17.244  0.00  0.00    +0.000 A 
ENDBRANCH  22  27
ENDBRANCH  21  22
ENDBRANCH  20  21
ENDBRANCH  19  20
ENDBRANCH   1  19
TORSDOF 6
ENDMDL
MODEL 6
REMARK VINA RESULT:      -7.3      2.680      9.215
REMARK  Name = 
REMARK  6 active torsions:
REMARK  status: ('A' for Active; 'I' for Inactive)
REMARK    1  A    between atoms: C_5  and  C_6
REMARK    2  A    between atoms: C_6  and  C_7
REMARK    3  A    between atoms: C_7  and  C_8
REMARK    4  A    between atoms: C_8  and  C_9
REMARK    5  A    between atoms: C_9  and  N_10
REMARK    6  A    between atoms: C_18  and  C_19
REMARK                            x       y       z     vdW  Elec       q    Type
REMARK                         _______ _______ _______ _____ _____    ______ ____
ROOT
ATOM      1  N   UNL     1      -1.028  10.784  20.209  0.00  0.00    +0.000 NA
ATOM      2  C   UNL     1      -0.689  10.564  18.775  0.00  0.00    +0.000 C 
ATOM      3  C   UNL     1       0.823  10.533  18.597  0.00  0.00    +0.000 C 
ATOM      4  N   UNL     1       1.337   9.492  19.457  0.00  0.00    +0.000 N 
ATOM      5  C   UNL     1       2.037   8.391  18.941  0.00  0.00    +0.000 A 
ATOM      6  C   UNL     1       2.796   8.515  17.760  0.00  0.00    +0.000 A 
ATOM      7  C   UNL     1       3.507   7.434  17.285  0.00  0.00    +0.000 A 
ATOM      8  C   UNL     1       3.461   6.227  17.963  0.00  0.00    +0.000 A 
ATOM      9  C   UNL     1       2.681   6.109  19.126  0.00  0.00    +0.000 A 
ATOM     10  N   UNL     1       2.016   7.194  19.578  0.00  0.00    +0.000 NA
ATOM     11  C   UNL     1       1.030   9.576  20.889  0.00  0.00    +0.000 C 
ATOM     12  C   UNL     1      -0.487   9.721  21.053  0.00  0.00    +0.000 C 
ENDROOT
BRANCH   9  13
ATOM     13  C   UNL     1       2.581   4.828  19.861  0.00  0.00    +0.000 A 
ATOM     14  C   UNL     1       3.571   3.835  19.758  0.00  0.00    +0.000 A 
ATOM     15  C   UNL     1       3.461   2.641  20.450  0.00  0.00    +0.000 A 
ATOM     16  C   UNL     1       2.339   2.408  21.246  0.00  0.00    +0.000 A 
ATOM     17  C   UNL     1       1.342   3.374  21.357  0.00  0.00    +0.000 A 
ATOM     18  C   UNL     1       1.463   4.583  20.676  0.00  0.00    +0.000 A 
ENDBRANCH   9  13
BRANCH   1  19
ATOM     19  C   UNL     1      -0.612  12.145  20.645  0.00  0.00    +0.000 C 
BRANCH  19  20
ATOM     20  C   UNL     1      -1.615  13.196  20.198  0.00  0.00    +0.000 C 
BRANCH  20  21
ATOM     21  C   UNL     1      -2.784  13.176  21.166  0.00  0.00    +0.000 C 
BRANCH  21  22
ATOM     22  C   UNL     1      -4.079  13.722  20.545  0.00  0.00    +0.000 C 
BRANCH  22  27
ATOM     23  F   UNL     1      -7.387   9.615  18.548  0.00  0.00    +0.000 F 
ATOM     24  C   UNL     1      -6.557  10.551  19.068  0.00  0.00    +0.000 A 
ATOM     25  C   UNL     1      -5.393  10.923  18.387  0.00  0.00    +0.000 A 
ATOM     26  C   UNL     1      -4.575  11.925  18.901  0.00  0.00    +0.000 A 
ATOM     27  C   UNL     1      -4.924  12.572  20.095  0.00  0.00    +0.000 A 
ATOM     28  C   UNL     1      -6.065  12.155  20.804  0.00  0.00    +0.000 A 
ATOM     29  C   UNL     1      -6.879  11.149  20.284  0.00  0.00    +0.000 A 
ENDBRANCH  22  27
ENDBRANCH  21  22
ENDBRANCH  20  21
ENDBRANCH  19  20
ENDBRANCH   1  19
TORSDOF 6
ENDMDL
MODEL 7
REMARK VINA RESULT:      -7.3      0.130      1.276
REMARK  Name = 
REMARK  6 active torsions:
REMARK  status: ('A' for Active; 'I' for Inactive)
REMARK    1  A    between atoms: C_5  and  C_6
REMARK    2  A    between atoms: C_6  and  C_7
REMARK    3  A    between atoms: C_7  and  C_8
REMARK    4  A    between atoms: C_8  and  C_9
REMARK    5  A    between atoms: C_9  and  N_10
REMARK    6  A    between atoms: C_18  and  C_19
REMARK                            x       y       z     vdW  Elec       q    Type
REMARK                         _______ _______ _______ _____ _____    ______ ____
ROOT
ATOM      1  N   UNL     1       2.476   6.219  18.504  0.00  0.00    +0.000 NA
ATOM      2  C   UNL     1       2.085   6.537  19.906  0.00  0.00    +0.000 C 
ATOM      3  C   UNL     1       2.358   8.005  20.202  0.00  0.00    +0.000 C 
ATOM      4  N   UNL     1       1.625   8.784  19.231  0.00  0.00    +0.000 N 
ATOM      5  C   UNL     1       0.632   9.696  19.617  0.00  0.00    +0.000 A 
ATOM      6  C   UNL     1       0.709  10.353  20.862  0.00  0.00    +0.000 A 
ATOM      7  C   UNL     1      -0.255  11.273  21.212  0.00  0.00    +0.000 A 
ATOM      8  C   UNL     1      -1.304  11.538  20.346  0.00  0.00    +0.000 A 
ATOM      9  C   UNL     1      -1.382  10.859  19.118  0.00  0.00    +0.000 A 
ATOM     10  N   UNL     1      -0.408   9.981  18.794  0.00  0.00    +0.000 NA
ATOM     11  C   UNL     1       1.892   8.529  17.811  0.00  0.00    +0.000 C 
ATOM     12  C   UNL     1       1.726   7.029  17.547  0.00  0.00    +0.000 C 
ENDROOT
BRANCH   9  13
ATOM     13  C   UNL     1      -2.502  11.091  18.179  0.00  0.00    +0.000 A 
ATOM     14  C   UNL     1      -2.406  10.765  16.815  0.00  0.00    +0.000 A 
ATOM     15  C   UNL     1      -3.462  10.991  15.949  0.00  0.00    +0.000 A 
ATOM     16  C   UNL     1      -4.635  11.572  16.432  0.00  0.00    +0.000 A 
ATOM     17  C   UNL     1      -4.751  11.910  17.777  0.00  0.00    +0.000 A 
ATOM     18  C   UNL     1      -3.695  11.664  18.652  0.00  0.00    +0.000 A 
ENDBRANCH   9  13
BRANCH   1  19
ATOM     19  C   UNL     1       3.950   6.328  18.331  0.00  0.00    +0.000 C 
BRANCH  19  20
ATOM     20  C   UNL     1       4.422   5.527  17.128  0.00  0.00    +0.000 C 
BRANCH  20  21
ATOM     21  C   UNL     1       4.923   4.182  17.621  0.00  0.00    +0.000 C 
BRANCH  21  22
ATOM     22  C   UNL     1       3.886   3.062  17.450  0.00  0.00    +0.000 C 
BRANCH  22  27
ATOM     23  F   UNL     1       0.823   2.431  22.143  0.00  0.00    +0.000 F 
ATOM     24  C   UNL     1       1.550   2.656  21.022  0.00  0.00    +0.000 A 
ATOM     25  C   UNL     1       2.942   2.767  21.089  0.00  0.00    +0.000 A 
ATOM     26  C   UNL     1       3.684   2.942  19.925  0.00  0.00    +0.000 A 
ATOM     27  C   UNL     1       3.038   2.993  18.681  0.00  0.00    +0.000 A 
ATOM     28  C   UNL     1       1.634   2.937  18.625  0.00  0.00    +0.000 A 
ATOM     29  C   UNL     1       0.896   2.764  19.796  0.00  0.00    +0.000 A 
ENDBRANCH  22  27
ENDBRANCH  21  22
ENDBRANCH  20  21
ENDBRANCH  19  20
ENDBRANCH   1  19
TORSDOF 6
ENDMDL
MODEL 8
REMARK VINA RESULT:      -7.3      3.538      9.608
REMARK  Name = 
REMARK  6 active torsions:
REMARK  status: ('A' for Active; 'I' for Inactive)
REMARK    1  A    between atoms: C_5  and  C_6
REMARK    2  A    between atoms: C_6  and  C_7
REMARK    3  A    between atoms: C_7  and  C_8
REMARK    4  A    between atoms: C_8  and  C_9
REMARK    5  A    between atoms: C_9  and  N_10
REMARK    6  A    between atoms: C_18  and  C_19
REMARK                            x       y       z     vdW  Elec       q    Type
REMARK                         _______ _______ _______ _____ _____    ______ ____
ROOT
ATOM      1  N   UNL     1      -1.025  10.537  19.770  0.00  0.00    +0.000 NA
ATOM      2  C   UNL     1      -0.575  10.271  18.376  0.00  0.00    +0.000 C 
ATOM      3  C   UNL     1       0.946  10.270  18.311  0.00  0.00    +0.000 C 
ATOM      4  N   UNL     1       1.417   9.275  19.246  0.00  0.00    +0.000 N 
ATOM      5  C   UNL     1       2.177   8.174  18.828  0.00  0.00    +0.000 A 
ATOM      6  C   UNL     1       3.019   8.271  17.702  0.00  0.00    +0.000 A 
ATOM      7  C   UNL     1       3.786   7.190  17.324  0.00  0.00    +0.000 A 
ATOM      8  C   UNL     1       3.717   6.009  18.044  0.00  0.00    +0.000 A 
ATOM      9  C   UNL     1       2.855   5.916  19.150  0.00  0.00    +0.000 A 
ATOM     10  N   UNL     1       2.134   7.001  19.509  0.00  0.00    +0.000 NA
ATOM     11  C   UNL     1       1.003   9.407  20.648  0.00  0.00    +0.000 C 
ATOM     12  C   UNL     1      -0.525   9.521  20.694  0.00  0.00    +0.000 C 
ENDROOT
BRANCH   9  13
ATOM     13  C   UNL     1       2.728   4.663  19.926  0.00  0.00    +0.000 A 
ATOM     14  C   UNL     1       1.694   4.468  20.858  0.00  0.00    +0.000 A 
ATOM     15  C   UNL     1       1.591   3.291  21.578  0.00  0.00    +0.000 A 
ATOM     16  C   UNL     1       2.541   2.286  21.393  0.00  0.00    +0.000 A 
ATOM     17  C   UNL     1       3.579   2.458  20.481  0.00  0.00    +0.000 A 
ATOM     18  C   UNL     1       3.670   3.636  19.743  0.00  0.00    +0.000 A 
ENDBRANCH   9  13
BRANCH   1  19
ATOM     19  C   UNL     1      -0.672  11.923  20.182  0.00  0.00    +0.000 C 
BRANCH  19  20
ATOM     20  C   UNL     1      -1.472  12.354  21.401  0.00  0.00    +0.000 C 
BRANCH  20  21
ATOM     21  C   UNL     1      -2.498  13.380  20.955  0.00  0.00    +0.000 C 
BRANCH  21  22
ATOM     22  C   UNL     1      -3.813  12.741  20.485  0.00  0.00    +0.000 C 
BRANCH  22  27
ATOM     23  F   UNL     1      -7.637  13.117  24.613  0.00  0.00    +0.000 F 
ATOM     24  C   UNL     1      -6.709  12.955  23.639  0.00  0.00    +0.000 A 
ATOM     25  C   UNL     1      -7.100  12.653  22.331  0.00  0.00    +0.000 A 
ATOM     26  C   UNL     1      -6.145  12.544  21.325  0.00  0.00    +0.000 A 
ATOM     27  C   UNL     1      -4.789  12.751  21.619  0.00  0.00    +0.000 A 
ATOM     28  C   UNL     1      -4.396  13.000  22.947  0.00  0.00    +0.000 A 
ATOM     29  C   UNL     1      -5.359  13.106  23.950  0.00  0.00    +0.000 A 
ENDBRANCH  22  27
ENDBRANCH  21  22
ENDBRANCH  20  21
ENDBRANCH  19  20
ENDBRANCH   1  19
TORSDOF 6
ENDMDL
MODEL 9
REMARK VINA RESULT:      -7.2      2.674      8.522
REMARK  Name = 
REMARK  6 active torsions:
REMARK  status: ('A' for Active; 'I' for Inactive)
REMARK    1  A    between atoms: C_5  and  C_6
REMARK    2  A    between atoms: C_6  and  C_7
REMARK    3  A    between atoms: C_7  and  C_8
REMARK    4  A    between atoms: C_8  and  C_9
REMARK    5  A    between atoms: C_9  and  N_10
REMARK    6  A    between atoms: C_18  and  C_19
REMARK                            x       y       z     vdW  Elec       q    Type
REMARK                         _______ _______ _______ _____ _____    ______ ____
ROOT
ATOM      1  N   UNL     1       1.218  11.164  20.590  0.00  0.00    +0.000 NA
ATOM      2  C   UNL     1       1.604  10.217  21.673  0.00  0.00    +0.000 C 
ATOM      3  C   UNL     1       0.845   8.907  21.513  0.00  0.00    +0.000 C 
ATOM      4  N   UNL     1       1.141   8.395  20.195  0.00  0.00    +0.000 N 
ATOM      5  C   UNL     1       1.765   7.152  20.011  0.00  0.00    +0.000 A 
ATOM      6  C   UNL     1       1.579   6.113  20.945  0.00  0.00    +0.000 A 
ATOM      7  C   UNL     1       2.170   4.886  20.732  0.00  0.00    +0.000 A 
ATOM      8  C   UNL     1       2.956   4.684  19.609  0.00  0.00    +0.000 A 
ATOM      9  C   UNL     1       3.155   5.736  18.698  0.00  0.00    +0.000 A 
ATOM     10  N   UNL     1       2.542   6.919  18.923  0.00  0.00    +0.000 NA
ATOM     11  C   UNL     1       0.845   9.258  19.046  0.00  0.00    +0.000 C 
ATOM     12  C   UNL     1       1.520  10.615  19.270  0.00  0.00    +0.000 C 
ENDROOT
BRANCH   9  13
ATOM     13  C   UNL     1       4.012   5.570  17.504  0.00  0.00    +0.000 A 
ATOM     14  C   UNL     1       4.363   4.300  17.013  0.00  0.00    +0.000 A 
ATOM     15  C   UNL     1       5.169   4.162  15.896  0.00  0.00    +0.000 A 
ATOM     16  C   UNL     1       5.660   5.301  15.258  0.00  0.00    +0.000 A 
ATOM     17  C   UNL     1       5.332   6.569  15.729  0.00  0.00    +0.000 A 
ATOM     18  C   UNL     1       4.506   6.707  16.842  0.00  0.00    +0.000 A 
ENDBRANCH   9  13
BRANCH   1  19
ATOM     19  C   UNL     1      -0.203  11.580  20.736  0.00  0.00    +0.000 C 
BRANCH  19  20
ATOM     20  C   UNL     1      -0.443  12.944  20.108  0.00  0.00    +0.000 C 
BRANCH  20  21
ATOM     21  C   UNL     1      -1.616  12.826  19.153  0.00  0.00    +0.000 C 
BRANCH  21  22
ATOM     22  C   UNL     1      -2.352  11.483  19.278  0.00  0.00    +0.000 C 
BRANCH  22  27
ATOM     23  F   UNL     1      -3.909  10.147  14.025  0.00  0.00    +0.000 F 
ATOM     24  C   UNL     1      -3.576  10.411  15.312  0.00  0.00    +0.000 A 
ATOM     25  C   UNL     1      -2.402   9.887  15.862  0.00  0.00    +0.000 A 
ATOM     26  C   UNL     1      -2.039  10.209  17.166  0.00  0.00    +0.000 A 
ATOM     27  C   UNL     1      -2.843  11.071  17.926  0.00  0.00    +0.000 A 
ATOM     28  C   UNL     1      -4.051  11.550  17.387  0.00  0.00    +0.000 A 
ATOM     29  C   UNL     1      -4.409  11.221  16.080  0.00  0.00    +0.000 A 
ENDBRANCH  22  27
ENDBRANCH  21  22
ENDBRANCH  20  21
ENDBRANCH  19  20
ENDBRANCH   1  19
TORSDOF 6
ENDMDL
