MODEL 1
REMARK VINA RESULT:      -9.3      0.000      0.000
REMARK  Name = 
REMARK  3 active torsions:
REMARK  status: ('A' for Active; 'I' for Inactive)
REMARK    1  A    between atoms: O_1  and  C_2
REMARK    2  A    between atoms: N_5  and  C_6
REMARK    3  A    between atoms: N_21  and  C_22
REMARK                            x       y       z     vdW  Elec       q    Type
REMARK                         _______ _______ _______ _____ _____    ______ ____
ROOT
ATOM      1  C   UNL     1       3.280   6.237  18.022  0.00  0.00    +0.000 A 
ATOM      2  C   UNL     1       2.920   7.579  17.992  0.00  0.00    +0.000 A 
ATOM      3  C   UNL     1       2.288   8.177  19.082  0.00  0.00    +0.000 A 
ATOM      4  C   UNL     1       2.000   7.436  20.225  0.00  0.00    +0.000 A 
ATOM      5  N   UNL     1       1.433   7.993  21.347  0.00  0.00    +0.000 N 
ATOM      6  C   UNL     1       0.642   9.108  21.519  0.00  0.00    +0.000 A 
ATOM      7  N   UNL     1       0.165   9.302  22.763  0.00  0.00    +0.000 NA
ATOM      8  C   UNL     1      -0.717  10.306  22.989  0.00  0.00    +0.000 A 
ATOM      9  C   UNL     1      -1.109  11.118  21.936  0.00  0.00    +0.000 A 
ATOM     10  C   UNL     1      -2.014  12.184  21.708  0.00  0.00    +0.000 A 
ATOM     11  C   UNL     1      -3.171  12.704  22.293  0.00  0.00    +0.000 A 
ATOM     12  C   UNL     1      -3.531  13.973  21.866  0.00  0.00    +0.000 A 
ATOM     13  N   UNL     1      -2.767  14.764  21.074  0.00  0.00    +0.000 NA
ATOM     14  C   UNL     1      -1.684  14.232  20.465  0.00  0.00    +0.000 A 
ATOM     15  C   UNL     1      -1.451  12.880  20.638  0.00  0.00    +0.000 A 
ATOM     16  N   UNL     1      -0.858  11.893  19.872  0.00  0.00    +0.000 N 
ATOM     17  C   UNL     1      -0.447  10.901  20.734  0.00  0.00    +0.000 A 
ATOM     18  N   UNL     1       0.375   9.898  20.464  0.00  0.00    +0.000 NA
ATOM     19  N   UNL     1       2.276   6.118  20.267  0.00  0.00    +0.000 NA
ATOM     20  C   UNL     1       2.880   5.563  19.180  0.00  0.00    +0.000 A 
ATOM     21  H   UNL     1       1.326   7.335  22.122  0.00  0.00    +0.000 HD
ENDROOT
BRANCH   1  25
ATOM     22  C   UNL     1       5.535   4.025  16.187  0.00  0.00    +0.000 C 
ATOM     23  C   UNL     1       5.553   5.260  15.301  0.00  0.00    +0.000 C 
ATOM     24  C   UNL     1       4.978   6.338  16.212  0.00  0.00    +0.000 C 
ATOM     25  N   UNL     1       3.955   5.632  16.982  0.00  0.00    +0.000 N 
ATOM     26  C   UNL     1       4.248   4.187  17.013  0.00  0.00    +0.000 C 
BRANCH  22  27
ATOM     27  O   UNL     1       6.684   4.018  17.035  0.00  0.00    +0.000 OA
ATOM     28  H   UNL     1       6.631   3.225  17.595  0.00  0.00    +0.000 HD
ENDBRANCH  22  27
ENDBRANCH   1  25
BRANCH  16  29
ATOM     29  C   UNL     1      -1.102  11.654  18.461  0.00  0.00    +0.000 C 
ATOM     30  C   UNL     1      -0.964  10.148  18.061  0.00  0.00    +0.000 C 
ATOM     31  C   UNL     1      -2.284  10.254  17.293  0.00  0.00    +0.000 C 
ATOM     32  C   UNL     1      -2.590  11.547  18.065  0.00  0.00    +0.000 C 
ENDBRANCH  16  29
TORSDOF 3
ENDMDL
MODEL 2
REMARK VINA RESULT:      -8.3      0.957      1.058
REMARK  Name = 
REMARK  3 active torsions:
REMARK  status: ('A' for Active; 'I' for Inactive)
REMARK    1  A    between atoms: O_1  and  C_2
REMARK    2  A    between atoms: N_5  and  C_6
REMARK    3  A    between atoms: N_21  and  C_22
REMARK                            x       y       z     vdW  Elec       q    Type
REMARK                         _______ _______ _______ _____ _____    ______ ____
ROOT
ATOM      1  C   UNL     1       2.656   6.031  18.761  0.00  0.00    +0.000 A 
ATOM      2  C   UNL     1       2.429   7.391  18.583  0.00  0.00    +0.000 A 
ATOM      3  C   UNL     1       1.846   8.158  19.591  0.00  0.00    +0.000 A 
ATOM      4  C   UNL     1       1.472   7.572  20.798  0.00  0.00    +0.000 A 
ATOM      5  N   UNL     1       0.948   8.296  21.843  0.00  0.00    +0.000 N 
ATOM      6  C   UNL     1       0.268   9.494  21.880  0.00  0.00    +0.000 A 
ATOM      7  N   UNL     1      -0.204   9.862  23.086  0.00  0.00    +0.000 NA
ATOM      8  C   UNL     1      -0.986  10.965  23.187  0.00  0.00    +0.000 A 
ATOM      9  C   UNL     1      -1.284  11.696  22.047  0.00  0.00    +0.000 A 
ATOM     10  C   UNL     1      -2.077  12.812  21.689  0.00  0.00    +0.000 A 
ATOM     11  C   UNL     1      -3.185  13.500  22.191  0.00  0.00    +0.000 A 
ATOM     12  C   UNL     1      -3.414  14.745  21.626  0.00  0.00    +0.000 A 
ATOM     13  N   UNL     1      -2.567  15.372  20.774  0.00  0.00    +0.000 NA
ATOM     14  C   UNL     1      -1.534  14.677  20.248  0.00  0.00    +0.000 A 
ATOM     15  C   UNL     1      -1.436  13.335  20.566  0.00  0.00    +0.000 A 
ATOM     16  N   UNL     1      -0.933  12.221  19.920  0.00  0.00    +0.000 N 
ATOM     17  C   UNL     1      -0.631  11.290  20.889  0.00  0.00    +0.000 A 
ATOM     18  N   UNL     1       0.093  10.190  20.744  0.00  0.00    +0.000 NA
ATOM     19  N   UNL     1       1.617   6.245  20.983  0.00  0.00    +0.000 NA
ATOM     20  C   UNL     1       2.178   5.524  19.973  0.00  0.00    +0.000 A 
ATOM     21  H   UNL     1       0.768   7.737  22.679  0.00  0.00    +0.000 HD
ENDROOT
BRANCH   1  25
ATOM     22  C   UNL     1       3.966   3.121  16.982  0.00  0.00    +0.000 C 
ATOM     23  C   UNL     1       4.986   4.180  16.599  0.00  0.00    +0.000 C 
ATOM     24  C   UNL     1       4.733   5.279  17.624  0.00  0.00    +0.000 C 
ATOM     25  N   UNL     1       3.282   5.258  17.805  0.00  0.00    +0.000 N 
ATOM     26  C   UNL     1       2.742   3.937  17.431  0.00  0.00    +0.000 C 
BRANCH  22  27
ATOM     27  O   UNL     1       4.468   2.328  18.059  0.00  0.00    +0.000 OA
ATOM     28  H   UNL     1       5.204   2.816  18.466  0.00  0.00    +0.000 HD
ENDBRANCH  22  27
ENDBRANCH   1  25
BRANCH  16  29
ATOM     29  C   UNL     1      -1.181  11.859  18.536  0.00  0.00    +0.000 C 
ATOM     30  C   UNL     1      -0.845  10.364  18.223  0.00  0.00    +0.000 C 
ATOM     31  C   UNL     1      -2.188  10.236  17.500  0.00  0.00    +0.000 C 
ATOM     32  C   UNL     1      -2.650  11.522  18.203  0.00  0.00    +0.000 C 
ENDBRANCH  16  29
TORSDOF 3
ENDMDL
MODEL 3
REMARK VINA RESULT:      -8.1      1.691      1.998
REMARK  Name = 
REMARK  3 active torsions:
REMARK  status: ('A' for Active; 'I' for Inactive)
REMARK    1  A    between atoms: O_1  and  C_2
REMARK    2  A    between atoms: N_5  and  C_6
REMARK    3  A    between atoms: N_21  and  C_22
REMARK                            x       y       z     vdW  Elec       q    Type
REMARK                         _______ _______ _______ _____ _____    ______ ____
ROOT
ATOM      1  C   UNL     1       3.741   5.705  17.562  0.00  0.00    +0.000 A 
ATOM      2  C   UNL     1       3.782   7.038  17.956  0.00  0.00    +0.000 A 
ATOM      3  C   UNL     1       3.015   7.491  19.028  0.00  0.00    +0.000 A 
ATOM      4  C   UNL     1       2.185   6.616  19.725  0.00  0.00    +0.000 A 
ATOM      5  N   UNL     1       1.455   7.002  20.824  0.00  0.00    +0.000 N 
ATOM      6  C   UNL     1       0.980   8.231  21.225  0.00  0.00    +0.000 A 
ATOM      7  N   UNL     1       0.195   8.227  22.319  0.00  0.00    +0.000 NA
ATOM      8  C   UNL     1      -0.411   9.375  22.709  0.00  0.00    +0.000 A 
ATOM      9  C   UNL     1      -0.209  10.535  21.976  0.00  0.00    +0.000 A 
ATOM     10  C   UNL     1      -0.672  11.873  21.973  0.00  0.00    +0.000 A 
ATOM     11  C   UNL     1      -1.773  12.591  22.448  0.00  0.00    +0.000 A 
ATOM     12  C   UNL     1      -1.622  13.969  22.456  0.00  0.00    +0.000 A 
ATOM     13  N   UNL     1      -0.461  14.618  22.199  0.00  0.00    +0.000 NA
ATOM     14  C   UNL     1       0.577  13.924  21.681  0.00  0.00    +0.000 A 
ATOM     15  C   UNL     1       0.372  12.589  21.385  0.00  0.00    +0.000 A 
ATOM     16  N   UNL     1       0.895  11.712  20.453  0.00  0.00    +0.000 N 
ATOM     17  C   UNL     1       0.724  10.439  20.950  0.00  0.00    +0.000 A 
ATOM     18  N   UNL     1       1.290   9.326  20.509  0.00  0.00    +0.000 NA
ATOM     19  N   UNL     1       2.070   5.332  19.331  0.00  0.00    +0.000 NA
ATOM     20  C   UNL     1       2.822   4.926  18.272  0.00  0.00    +0.000 A 
ATOM     21  H   UNL     1       0.932   6.238  21.257  0.00  0.00    +0.000 HD
ENDROOT
BRANCH   1  25
ATOM     22  C   UNL     1       6.499   4.085  15.798  0.00  0.00    +0.000 C 
ATOM     23  C   UNL     1       6.095   5.149  14.791  0.00  0.00    +0.000 C 
ATOM     24  C   UNL     1       5.249   6.101  15.628  0.00  0.00    +0.000 C 
ATOM     25  N   UNL     1       4.529   5.215  16.541  0.00  0.00    +0.000 N 
ATOM     26  C   UNL     1       5.260   3.944  16.698  0.00  0.00    +0.000 C 
BRANCH  22  27
ATOM     27  O   UNL     1       7.626   4.532  16.554  0.00  0.00    +0.000 OA
ATOM     28  H   UNL     1       7.291   4.918  17.380  0.00  0.00    +0.000 HD
ENDBRANCH  22  27
ENDBRANCH   1  25
BRANCH  16  29
ATOM     29  C   UNL     1       1.067  11.983  19.037  0.00  0.00    +0.000 C 
ATOM     30  C   UNL     1       0.337  13.285  18.568  0.00  0.00    +0.000 C 
ATOM     31  C   UNL     1       1.609  13.705  17.827  0.00  0.00    +0.000 C 
ATOM     32  C   UNL     1       2.392  12.679  18.661  0.00  0.00    +0.000 C 
ENDBRANCH  16  29
TORSDOF 3
ENDMDL
MODEL 4
REMARK VINA RESULT:      -8.1      3.755      8.786
REMARK  Name = 
REMARK  3 active torsions:
REMARK  status: ('A' for Active; 'I' for Inactive)
REMARK    1  A    between atoms: O_1  and  C_2
REMARK    2  A    between atoms: N_5  and  C_6
REMARK    3  A    between atoms: N_21  and  C_22
REMARK                            x       y       z     vdW  Elec       q    Type
REMARK                         _______ _______ _______ _____ _____    ______ ____
ROOT
ATOM      1  C   UNL     1       2.072  13.231  18.858  0.00  0.00    +0.000 A 
ATOM      2  C   UNL     1       2.238  12.073  18.107  0.00  0.00    +0.000 A 
ATOM      3  C   UNL     1       1.928  10.823  18.640  0.00  0.00    +0.000 A 
ATOM      4  C   UNL     1       1.449  10.708  19.942  0.00  0.00    +0.000 A 
ATOM      5  N   UNL     1       1.074   9.505  20.492  0.00  0.00    +0.000 N 
ATOM      6  C   UNL     1       1.445   8.209  20.206  0.00  0.00    +0.000 A 
ATOM      7  N   UNL     1       0.956   7.264  21.030  0.00  0.00    +0.000 NA
ATOM      8  C   UNL     1       1.368   5.980  20.891  0.00  0.00    +0.000 A 
ATOM      9  C   UNL     1       2.286   5.663  19.901  0.00  0.00    +0.000 A 
ATOM     10  C   UNL     1       3.012   4.529  19.462  0.00  0.00    +0.000 A 
ATOM     11  C   UNL     1       3.435   3.304  19.983  0.00  0.00    +0.000 A 
ATOM     12  C   UNL     1       3.871   2.381  19.045  0.00  0.00    +0.000 A 
ATOM     13  N   UNL     1       3.758   2.535  17.703  0.00  0.00    +0.000 NA
ATOM     14  C   UNL     1       3.409   3.743  17.210  0.00  0.00    +0.000 A 
ATOM     15  C   UNL     1       3.243   4.780  18.109  0.00  0.00    +0.000 A 
ATOM     16  N   UNL     1       3.401   6.152  18.046  0.00  0.00    +0.000 N 
ATOM     17  C   UNL     1       2.613   6.699  19.034  0.00  0.00    +0.000 A 
ATOM     18  N   UNL     1       2.273   7.972  19.173  0.00  0.00    +0.000 NA
ATOM     19  N   UNL     1       1.336  11.801  20.722  0.00  0.00    +0.000 NA
ATOM     20  C   UNL     1       1.660  13.005  20.175  0.00  0.00    +0.000 A 
ATOM     21  H   UNL     1       0.698   9.586  21.438  0.00  0.00    +0.000 HD
ENDROOT
BRANCH   1  25
ATOM     22  C   UNL     1       3.720  16.409  18.128  0.00  0.00    +0.000 C 
ATOM     23  C   UNL     1       2.258  16.820  18.073  0.00  0.00    +0.000 C 
ATOM     24  C   UNL     1       1.555  15.659  18.767  0.00  0.00    +0.000 C 
ATOM     25  N   UNL     1       2.316  14.486  18.340  0.00  0.00    +0.000 N 
ATOM     26  C   UNL     1       3.678  14.883  17.937  0.00  0.00    +0.000 C 
BRANCH  22  27
ATOM     27  O   UNL     1       4.273  16.745  19.401  0.00  0.00    +0.000 OA
ATOM     28  H   UNL     1       4.710  17.609  19.313  0.00  0.00    +0.000 HD
ENDBRANCH  22  27
ENDBRANCH   1  25
BRANCH  16  29
ATOM     29  C   UNL     1       4.541   6.849  17.478  0.00  0.00    +0.000 C 
ATOM     30  C   UNL     1       5.914   6.273  17.958  0.00  0.00    +0.000 C 
ATOM     31  C   UNL     1       6.398   6.278  16.506  0.00  0.00    +0.000 C 
ATOM     32  C   UNL     1       4.935   6.404  16.054  0.00  0.00    +0.000 C 
ENDBRANCH  16  29
TORSDOF 3
ENDMDL
MODEL 5
REMARK VINA RESULT:      -8.0      3.395      9.511
REMARK  Name = 
REMARK  3 active torsions:
REMARK  status: ('A' for Active; 'I' for Inactive)
REMARK    1  A    between atoms: O_1  and  C_2
REMARK    2  A    between atoms: N_5  and  C_6
REMARK    3  A    between atoms: N_21  and  C_22
REMARK                            x       y       z     vdW  Elec       q    Type
REMARK                         _______ _______ _______ _____ _____    ______ ____
ROOT
ATOM      1  C   UNL     1      -0.697  11.490  21.676  0.00  0.00    +0.000 A 
ATOM      2  C   UNL     1       0.149  10.416  21.926  0.00  0.00    +0.000 A 
ATOM      3  C   UNL     1       0.931   9.869  20.910  0.00  0.00    +0.000 A 
ATOM      4  C   UNL     1       0.875  10.386  19.618  0.00  0.00    +0.000 A 
ATOM      5  N   UNL     1       1.669   9.919  18.597  0.00  0.00    +0.000 N 
ATOM      6  C   UNL     1       2.285   8.703  18.396  0.00  0.00    +0.000 A 
ATOM      7  N   UNL     1       2.908   8.551  17.212  0.00  0.00    +0.000 NA
ATOM      8  C   UNL     1       3.434   7.346  16.885  0.00  0.00    +0.000 A 
ATOM      9  C   UNL     1       3.324   6.290  17.778  0.00  0.00    +0.000 A 
ATOM     10  C   UNL     1       3.644   4.912  17.824  0.00  0.00    +0.000 A 
ATOM     11  C   UNL     1       3.892   3.874  16.921  0.00  0.00    +0.000 A 
ATOM     12  C   UNL     1       4.471   2.739  17.467  0.00  0.00    +0.000 A 
ATOM     13  N   UNL     1       4.940   2.649  18.736  0.00  0.00    +0.000 NA
ATOM     14  C   UNL     1       4.640   3.629  19.617  0.00  0.00    +0.000 A 
ATOM     15  C   UNL     1       3.813   4.650  19.184  0.00  0.00    +0.000 A 
ATOM     16  N   UNL     1       2.898   5.483  19.801  0.00  0.00    +0.000 N 
ATOM     17  C   UNL     1       2.778   6.608  19.016  0.00  0.00    +0.000 A 
ATOM     18  N   UNL     1       2.207   7.757  19.347  0.00  0.00    +0.000 NA
ATOM     19  N   UNL     1       0.020  11.384  19.323  0.00  0.00    +0.000 NA
ATOM     20  C   UNL     1      -0.740  11.887  20.336  0.00  0.00    +0.000 A 
ATOM     21  H   UNL     1       1.550  10.429  17.720  0.00  0.00    +0.000 HD
ENDROOT
BRANCH   1  25
ATOM     22  C   UNL     1      -3.498  12.343  23.862  0.00  0.00    +0.000 C 
ATOM     23  C   UNL     1      -2.763  13.671  23.799  0.00  0.00    +0.000 C 
ATOM     24  C   UNL     1      -1.845  13.492  22.595  0.00  0.00    +0.000 C 
ATOM     25  N   UNL     1      -1.441  12.090  22.672  0.00  0.00    +0.000 N 
ATOM     26  C   UNL     1      -2.434  11.315  23.440  0.00  0.00    +0.000 C 
BRANCH  22  27
ATOM     27  O   UNL     1      -4.590  12.346  22.942  0.00  0.00    +0.000 OA
ATOM     28  H   UNL     1      -4.273  11.962  22.107  0.00  0.00    +0.000 HD
ENDBRANCH  22  27
ENDBRANCH   1  25
BRANCH  16  29
ATOM     29  C   UNL     1       1.868   5.066  20.735  0.00  0.00    +0.000 C 
ATOM     30  C   UNL     1       0.906   3.983  20.147  0.00  0.00    +0.000 C 
ATOM     31  C   UNL     1       1.063   3.174  21.436  0.00  0.00    +0.000 C 
ATOM     32  C   UNL     1       2.312   4.007  21.766  0.00  0.00    +0.000 C 
ENDBRANCH  16  29
TORSDOF 3
ENDMDL
MODEL 6
REMARK VINA RESULT:      -7.8      2.226      3.626
REMARK  Name = 
REMARK  3 active torsions:
REMARK  status: ('A' for Active; 'I' for Inactive)
REMARK    1  A    between atoms: O_1  and  C_2
REMARK    2  A    between atoms: N_5  and  C_6
REMARK    3  A    between atoms: N_21  and  C_22
REMARK                            x       y       z     vdW  Elec       q    Type
REMARK                         _______ _______ _______ _____ _____    ______ ____
ROOT
ATOM      1  C   UNL     1       3.315   5.280  17.996  0.00  0.00    +0.000 A 
ATOM      2  C   UNL     1       2.133   5.893  18.396  0.00  0.00    +0.000 A 
ATOM      3  C   UNL     1       1.975   7.275  18.302  0.00  0.00    +0.000 A 
ATOM      4  C   UNL     1       3.004   8.072  17.808  0.00  0.00    +0.000 A 
ATOM      5  N   UNL     1       2.876   9.430  17.640  0.00  0.00    +0.000 N 
ATOM      6  C   UNL     1       2.060  10.358  18.251  0.00  0.00    +0.000 A 
ATOM      7  N   UNL     1       2.279  11.643  17.915  0.00  0.00    +0.000 NA
ATOM      8  C   UNL     1       1.603  12.625  18.559  0.00  0.00    +0.000 A 
ATOM      9  C   UNL     1       0.696  12.289  19.552  0.00  0.00    +0.000 A 
ATOM     10  C   UNL     1      -0.136  12.952  20.488  0.00  0.00    +0.000 A 
ATOM     11  C   UNL     1      -0.206  14.201  21.109  0.00  0.00    +0.000 A 
ATOM     12  C   UNL     1      -1.409  14.482  21.738  0.00  0.00    +0.000 A 
ATOM     13  N   UNL     1      -2.524  13.717  21.645  0.00  0.00    +0.000 NA
ATOM     14  C   UNL     1      -2.429  12.485  21.097  0.00  0.00    +0.000 A 
ATOM     15  C   UNL     1      -1.175  12.048  20.714  0.00  0.00    +0.000 A 
ATOM     16  N   UNL     1      -0.566  10.810  20.622  0.00  0.00    +0.000 N 
ATOM     17  C   UNL     1       0.463  10.928  19.714  0.00  0.00    +0.000 A 
ATOM     18  N   UNL     1       1.142   9.945  19.142  0.00  0.00    +0.000 NA
ATOM     19  N   UNL     1       4.187   7.522  17.470  0.00  0.00    +0.000 NA
ATOM     20  C   UNL     1       4.313   6.170  17.588  0.00  0.00    +0.000 A 
ATOM     21  H   UNL     1       3.698   9.872  17.223  0.00  0.00    +0.000 HD
ENDROOT
BRANCH   1  25
ATOM     22  C   UNL     1       2.560   1.706  18.003  0.00  0.00    +0.000 C 
ATOM     23  C   UNL     1       3.817   1.739  18.857  0.00  0.00    +0.000 C 
ATOM     24  C   UNL     1       3.933   3.213  19.227  0.00  0.00    +0.000 C 
ATOM     25  N   UNL     1       3.481   3.910  18.025  0.00  0.00    +0.000 N 
ATOM     26  C   UNL     1       2.613   3.029  17.222  0.00  0.00    +0.000 C 
BRANCH  22  27
ATOM     27  O   UNL     1       1.403   1.658  18.840  0.00  0.00    +0.000 OA
ATOM     28  H   UNL     1       1.450   0.837  19.360  0.00  0.00    +0.000 HD
ENDBRANCH  22  27
ENDBRANCH   1  25
BRANCH  16  29
ATOM     29  C   UNL     1      -0.602   9.770  21.634  0.00  0.00    +0.000 C 
ATOM     30  C   UNL     1       0.820   9.351  22.134  0.00  0.00    +0.000 C 
ATOM     31  C   UNL     1       0.316   9.445  23.576  0.00  0.00    +0.000 C 
ATOM     32  C   UNL     1      -0.880  10.265  23.069  0.00  0.00    +0.000 C 
ENDBRANCH  16  29
TORSDOF 3
ENDMDL
MODEL 7
REMARK VINA RESULT:      -7.8      3.307      9.518
REMARK  Name = 
REMARK  3 active torsions:
REMARK  status: ('A' for Active; 'I' for Inactive)
REMARK    1  A    between atoms: O_1  and  C_2
REMARK    2  A    between atoms: N_5  and  C_6
REMARK    3  A    between atoms: N_21  and  C_22
REMARK                            x       y       z     vdW  Elec       q    Type
REMARK                         _______ _______ _______ _____ _____    ______ ____
ROOT
ATOM      1  C   UNL     1      -0.826  11.306  20.918  0.00  0.00    +0.000 A 
ATOM      2  C   UNL     1      -0.039  10.226  21.301  0.00  0.00    +0.000 A 
ATOM      3  C   UNL     1       0.866   9.649  20.413  0.00  0.00    +0.000 A 
ATOM      4  C   UNL     1       0.998  10.141  19.116  0.00  0.00    +0.000 A 
ATOM      5  N   UNL     1       1.917   9.644  18.223  0.00  0.00    +0.000 N 
ATOM      6  C   UNL     1       2.536   8.417  18.130  0.00  0.00    +0.000 A 
ATOM      7  N   UNL     1       3.313   8.233  17.046  0.00  0.00    +0.000 NA
ATOM      8  C   UNL     1       3.860   7.014  16.816  0.00  0.00    +0.000 A 
ATOM      9  C   UNL     1       3.612   5.978  17.704  0.00  0.00    +0.000 A 
ATOM     10  C   UNL     1       3.900   4.597  17.817  0.00  0.00    +0.000 A 
ATOM     11  C   UNL     1       4.254   3.539  16.976  0.00  0.00    +0.000 A 
ATOM     12  C   UNL     1       4.734   2.407  17.617  0.00  0.00    +0.000 A 
ATOM     13  N   UNL     1       5.022   2.336  18.939  0.00  0.00    +0.000 NA
ATOM     14  C   UNL     1       4.620   3.337  19.753  0.00  0.00    +0.000 A 
ATOM     15  C   UNL     1       3.877   4.359  19.192  0.00  0.00    +0.000 A 
ATOM     16  N   UNL     1       2.899   5.216  19.662  0.00  0.00    +0.000 N 
ATOM     17  C   UNL     1       2.906   6.328  18.849  0.00  0.00    +0.000 A 
ATOM     18  N   UNL     1       2.312   7.490  19.078  0.00  0.00    +0.000 NA
ATOM     19  N   UNL     1       0.207  11.145  18.689  0.00  0.00    +0.000 NA
ATOM     20  C   UNL     1      -0.677  11.677  19.578  0.00  0.00    +0.000 A 
ATOM     21  H   UNL     1       1.928  10.138  17.329  0.00  0.00    +0.000 HD
ENDROOT
BRANCH   1  25
ATOM     22  C   UNL     1      -2.250  13.796  23.181  0.00  0.00    +0.000 C 
ATOM     23  C   UNL     1      -2.789  12.510  23.786  0.00  0.00    +0.000 C 
ATOM     24  C   UNL     1      -1.906  11.442  23.150  0.00  0.00    +0.000 C 
ATOM     25  N   UNL     1      -1.690  11.935  21.791  0.00  0.00    +0.000 N 
ATOM     26  C   UNL     1      -1.880  13.396  21.742  0.00  0.00    +0.000 C 
BRANCH  22  27
ATOM     27  O   UNL     1      -1.093  14.225  23.900  0.00  0.00    +0.000 OA
ATOM     28  H   UNL     1      -0.882  13.539  24.555  0.00  0.00    +0.000 HD
ENDBRANCH  22  27
ENDBRANCH   1  25
BRANCH  16  29
ATOM     29  C   UNL     1       1.743   4.832  20.453  0.00  0.00    +0.000 C 
ATOM     30  C   UNL     1       0.938   3.646  19.828  0.00  0.00    +0.000 C 
ATOM     31  C   UNL     1       0.908   2.971  21.201  0.00  0.00    +0.000 C 
ATOM     32  C   UNL     1       2.049   3.900  21.645  0.00  0.00    +0.000 C 
ENDBRANCH  16  29
TORSDOF 3
ENDMDL
MODEL 8
REMARK VINA RESULT:      -7.7      2.018      3.490
REMARK  Name = 
REMARK  3 active torsions:
REMARK  status: ('A' for Active; 'I' for Inactive)
REMARK    1  A    between atoms: O_1  and  C_2
REMARK    2  A    between atoms: N_5  and  C_6
REMARK    3  A    between atoms: N_21  and  C_22
REMARK                            x       y       z     vdW  Elec       q    Type
REMARK                         _______ _______ _______ _____ _____    ______ ____
ROOT
ATOM      1  C   UNL     1       2.997   5.023  18.300  0.00  0.00    +0.000 A 
ATOM      2  C   UNL     1       1.837   5.717  18.629  0.00  0.00    +0.000 A 
ATOM      3  C   UNL     1       1.757   7.098  18.459  0.00  0.00    +0.000 A 
ATOM      4  C   UNL     1       2.842   7.814  17.960  0.00  0.00    +0.000 A 
ATOM      5  N   UNL     1       2.791   9.167  17.719  0.00  0.00    +0.000 N 
ATOM      6  C   UNL     1       2.008  10.166  18.255  0.00  0.00    +0.000 A 
ATOM      7  N   UNL     1       2.306  11.418  17.861  0.00  0.00    +0.000 NA
ATOM      8  C   UNL     1       1.664  12.467  18.432  0.00  0.00    +0.000 A 
ATOM      9  C   UNL     1       0.710  12.231  19.410  0.00  0.00    +0.000 A 
ATOM     10  C   UNL     1      -0.113  12.984  20.283  0.00  0.00    +0.000 A 
ATOM     11  C   UNL     1      -0.136  14.266  20.838  0.00  0.00    +0.000 A 
ATOM     12  C   UNL     1      -1.340  14.642  21.411  0.00  0.00    +0.000 A 
ATOM     13  N   UNL     1      -2.491  13.932  21.320  0.00  0.00    +0.000 NA
ATOM     14  C   UNL     1      -2.446  12.669  20.839  0.00  0.00    +0.000 A 
ATOM     15  C   UNL     1      -1.205  12.149  20.521  0.00  0.00    +0.000 A 
ATOM     16  N   UNL     1      -0.661  10.877  20.511  0.00  0.00    +0.000 N 
ATOM     17  C   UNL     1       0.400  10.894  19.633  0.00  0.00    +0.000 A 
ATOM     18  N   UNL     1       1.043   9.849  19.135  0.00  0.00    +0.000 NA
ATOM     19  N   UNL     1       4.003   7.186  17.690  0.00  0.00    +0.000 NA
ATOM     20  C   UNL     1       4.052   5.838  17.881  0.00  0.00    +0.000 A 
ATOM     21  H   UNL     1       3.648   9.542  17.308  0.00  0.00    +0.000 HD
ENDROOT
BRANCH   1  25
ATOM     22  C   UNL     1       3.879   1.701  19.537  0.00  0.00    +0.000 C 
ATOM     23  C   UNL     1       3.818   1.448  18.039  0.00  0.00    +0.000 C 
ATOM     24  C   UNL     1       3.868   2.855  17.457  0.00  0.00    +0.000 C 
ATOM     25  N   UNL     1       3.088   3.650  18.404  0.00  0.00    +0.000 N 
ATOM     26  C   UNL     1       3.063   2.991  19.723  0.00  0.00    +0.000 C 
BRANCH  22  27
ATOM     27  O   UNL     1       5.234   1.896  19.943  0.00  0.00    +0.000 OA
ATOM     28  H   UNL     1       5.796   1.785  19.157  0.00  0.00    +0.000 HD
ENDBRANCH  22  27
ENDBRANCH   1  25
BRANCH  16  29
ATOM     29  C   UNL     1      -0.783   9.895  21.574  0.00  0.00    +0.000 C 
ATOM     30  C   UNL     1       0.589   9.279  22.001  0.00  0.00    +0.000 C 
ATOM     31  C   UNL     1       0.211   9.505  23.466  0.00  0.00    +0.000 C 
ATOM     32  C   UNL     1      -0.879  10.482  22.998  0.00  0.00    +0.000 C 
ENDBRANCH  16  29
TORSDOF 3
ENDMDL
MODEL 9
REMARK VINA RESULT:      -7.6      0.847      1.028
REMARK  Name = 
REMARK  3 active torsions:
REMARK  status: ('A' for Active; 'I' for Inactive)
REMARK    1  A    between atoms: O_1  and  C_2
REMARK    2  A    between atoms: N_5  and  C_6
REMARK    3  A    between atoms: N_21  and  C_22
REMARK                            x       y       z     vdW  Elec       q    Type
REMARK                         _______ _______ _______ _____ _____    ______ ____
ROOT
ATOM      1  C   UNL     1       3.334   5.842  18.849  0.00  0.00    +0.000 A 
ATOM      2  C   UNL     1       3.080   7.202  18.712  0.00  0.00    +0.000 A 
ATOM      3  C   UNL     1       2.348   7.894  19.676  0.00  0.00    +0.000 A 
ATOM      4  C   UNL     1       1.849   7.233  20.795  0.00  0.00    +0.000 A 
ATOM      5  N   UNL     1       1.173   7.881  21.801  0.00  0.00    +0.000 N 
ATOM      6  C   UNL     1       0.449   9.054  21.813  0.00  0.00    +0.000 A 
ATOM      7  N   UNL     1      -0.183   9.341  22.966  0.00  0.00    +0.000 NA
ATOM      8  C   UNL     1      -1.012  10.412  23.024  0.00  0.00    +0.000 A 
ATOM      9  C   UNL     1      -1.193  11.195  21.893  0.00  0.00    +0.000 A 
ATOM     10  C   UNL     1      -1.976  12.305  21.495  0.00  0.00    +0.000 A 
ATOM     11  C   UNL     1      -3.163  12.930  21.887  0.00  0.00    +0.000 A 
ATOM     12  C   UNL     1      -3.367  14.196  21.361  0.00  0.00    +0.000 A 
ATOM     13  N   UNL     1      -2.443  14.895  20.656  0.00  0.00    +0.000 NA
ATOM     14  C   UNL     1      -1.328  14.262  20.230  0.00  0.00    +0.000 A 
ATOM     15  C   UNL     1      -1.220  12.908  20.489  0.00  0.00    +0.000 A 
ATOM     16  N   UNL     1      -0.599  11.847  19.857  0.00  0.00    +0.000 N 
ATOM     17  C   UNL     1      -0.386  10.874  20.808  0.00  0.00    +0.000 A 
ATOM     18  N   UNL     1       0.391   9.806  20.700  0.00  0.00    +0.000 NA
ATOM     19  N   UNL     1       2.019   5.903  20.929  0.00  0.00    +0.000 NA
ATOM     20  C   UNL     1       2.728   5.255  19.963  0.00  0.00    +0.000 A 
ATOM     21  H   UNL     1       0.911   7.272  22.578  0.00  0.00    +0.000 HD
ENDROOT
BRANCH   1  25
ATOM     22  C   UNL     1       5.657   5.106  16.127  0.00  0.00    +0.000 C 
ATOM     23  C   UNL     1       4.703   3.928  16.022  0.00  0.00    +0.000 C 
ATOM     24  C   UNL     1       3.503   4.392  16.839  0.00  0.00    +0.000 C 
ATOM     25  N   UNL     1       4.102   5.142  17.941  0.00  0.00    +0.000 N 
ATOM     26  C   UNL     1       5.443   5.624  17.559  0.00  0.00    +0.000 C 
BRANCH  22  27
ATOM     27  O   UNL     1       5.305   6.105  15.169  0.00  0.00    +0.000 OA
ATOM     28  H   UNL     1       5.373   5.704  14.287  0.00  0.00    +0.000 HD
ENDBRANCH  22  27
ENDBRANCH   1  25
BRANCH  16  29
ATOM     29  C   UNL     1      -0.660  11.553  18.436  0.00  0.00    +0.000 C 
ATOM     30  C   UNL     1      -0.760  10.023  18.129  0.00  0.00    +0.000 C 
ATOM     31  C   UNL     1      -1.895  10.317  17.145  0.00  0.00    +0.000 C 
ATOM     32  C   UNL     1      -2.059  11.698  17.799  0.00  0.00    +0.000 C 
ENDBRANCH  16  29
TORSDOF 3
ENDMDL
