MODEL 1
REMARK VINA RESULT:      -7.8      0.000      0.000
REMARK  Name = 
REMARK  6 active torsions:
REMARK  status: ('A' for Active; 'I' for Inactive)
REMARK    1  A    between atoms: C_1  and  C_2
REMARK    2  A    between atoms: C_4  and  C_5
REMARK    3  A    between atoms: N_7  and  C_8
REMARK    4  A    between atoms: N_11  and  C_12
REMARK    5  A    between atoms: C_12  and  C_13
REMARK    6  A    between atoms: C_23  and  O_24
REMARK                            x       y       z     vdW  Elec       q    Type
REMARK                         _______ _______ _______ _____ _____    ______ ____
ROOT
ATOM      1  C   UNL     1       3.028   6.377  17.970  0.00  0.00    +0.000 C 
ATOM      2  C   UNL     1       4.531   6.583  18.134  0.00  0.00    +0.000 C 
ATOM      3  C   UNL     1       5.282   5.861  17.014  0.00  0.00    +0.000 C 
ATOM      4  N   UNL     1       4.642   4.607  16.562  0.00  0.00    +0.000 NA
ATOM      5  C   UNL     1       3.888   3.968  17.658  0.00  0.00    +0.000 C 
ATOM      6  C   UNL     1       2.736   4.869  18.180  0.00  0.00    +0.000 C 
ENDROOT
BRANCH   1   9
ATOM      7  C   UNL     1       1.883   8.508  18.555  0.00  0.00    +0.000 C 
ATOM      8  O   UNL     1       2.157   9.040  17.485  0.00  0.00    +0.000 OA
ATOM      9  N   UNL     1       2.265   7.221  18.886  0.00  0.00    +0.000 N 
ATOM     10  H   UNL     1       1.812   6.809  19.697  0.00  0.00    +0.000 HD
BRANCH   7  14
ATOM     11  C   UNL     1      -0.433   9.952  22.836  0.00  0.00    +0.000 C 
ATOM     12  C   UNL     1       0.170   9.762  21.506  0.00  0.00    +0.000 A 
ATOM     13  C   UNL     1       0.959   8.793  20.942  0.00  0.00    +0.000 A 
ATOM     14  C   UNL     1       1.152   9.221  19.603  0.00  0.00    +0.000 A 
ATOM     15  N   UNL     1       0.527  10.392  19.383  0.00  0.00    +0.000 NA
ATOM     16  O   UNL     1      -0.083  10.726  20.580  0.00  0.00    +0.000 OA
ENDBRANCH   7  14
ENDBRANCH   1   9
BRANCH   6  17
ATOM     17  O   UNL     1       1.497   4.524  17.547  0.00  0.00    +0.000 OA
ATOM     18  H   UNL     1       1.031   3.924  18.157  0.00  0.00    +0.000 HD
ENDBRANCH   6  17
BRANCH   4  19
ATOM     19  C   UNL     1       5.655   3.681  16.014  0.00  0.00    +0.000 C 
BRANCH  19  20
ATOM     20  C   UNL     1       5.946   3.887  14.548  0.00  0.00    +0.000 A 
ATOM     21  C   UNL     1       5.183   3.258  13.531  0.00  0.00    +0.000 A 
ATOM     22  C   UNL     1       5.439   3.404  12.140  0.00  0.00    +0.000 A 
ATOM     23  C   UNL     1       6.480   4.198  11.629  0.00  0.00    +0.000 A 
ATOM     24  C   UNL     1       7.243   4.855  12.610  0.00  0.00    +0.000 A 
ATOM     25  N   UNL     1       8.282   5.685  12.454  0.00  0.00    +0.000 NA
ATOM     26  O   UNL     1       8.663   6.056  13.731  0.00  0.00    +0.000 OA
ATOM     27  N   UNL     1       7.878   5.455  14.700  0.00  0.00    +0.000 NA
ATOM     28  C   UNL     1       6.985   4.704  14.040  0.00  0.00    +0.000 A 
ENDBRANCH  19  20
ENDBRANCH   4  19
TORSDOF 5
ENDMDL
MODEL 2
REMARK VINA RESULT:      -7.8      2.635      3.841
REMARK  Name = 
REMARK  6 active torsions:
REMARK  status: ('A' for Active; 'I' for Inactive)
REMARK    1  A    between atoms: C_1  and  C_2
REMARK    2  A    between atoms: C_4  and  C_5
REMARK    3  A    between atoms: N_7  and  C_8
REMARK    4  A    between atoms: N_11  and  C_12
REMARK    5  A    between atoms: C_12  and  C_13
REMARK    6  A    between atoms: C_23  and  O_24
REMARK                            x       y       z     vdW  Elec       q    Type
REMARK                         _______ _______ _______ _____ _____    ______ ____
ROOT
ATOM      1  C   UNL     1       1.733   7.750  20.256  0.00  0.00    +0.000 C 
ATOM      2  C   UNL     1       1.203   6.419  20.782  0.00  0.00    +0.000 C 
ATOM      3  C   UNL     1       2.255   5.326  20.588  0.00  0.00    +0.000 C 
ATOM      4  N   UNL     1       3.086   5.489  19.377  0.00  0.00    +0.000 NA
ATOM      5  C   UNL     1       2.340   6.178  18.306  0.00  0.00    +0.000 C 
ATOM      6  C   UNL     1       1.909   7.612  18.722  0.00  0.00    +0.000 C 
ENDROOT
BRANCH   1   9
ATOM      7  C   UNL     1       0.966   9.531  21.817  0.00  0.00    +0.000 C 
ATOM      8  O   UNL     1       1.799   9.249  22.671  0.00  0.00    +0.000 OA
ATOM      9  N   UNL     1       0.851   8.859  20.614  0.00  0.00    +0.000 N 
ATOM     10  H   UNL     1       0.279   9.303  19.901  0.00  0.00    +0.000 HD
BRANCH   7  14
ATOM     11  C   UNL     1      -2.830  12.483  23.445  0.00  0.00    +0.000 C 
ATOM     12  C   UNL     1      -1.688  11.811  22.802  0.00  0.00    +0.000 A 
ATOM     13  C   UNL     1      -0.966  10.679  23.075  0.00  0.00    +0.000 A 
ATOM     14  C   UNL     1      -0.017  10.595  22.024  0.00  0.00    +0.000 A 
ATOM     15  N   UNL     1      -0.152  11.632  21.177  0.00  0.00    +0.000 NA
ATOM     16  O   UNL     1      -1.199  12.391  21.672  0.00  0.00    +0.000 OA
ENDBRANCH   7  14
ENDBRANCH   1   9
BRANCH   6  17
ATOM     17  O   UNL     1       2.856   8.580  18.256  0.00  0.00    +0.000 OA
ATOM     18  H   UNL     1       3.472   8.745  18.994  0.00  0.00    +0.000 HD
ENDBRANCH   6  17
BRANCH   4  19
ATOM     19  C   UNL     1       3.577   4.176  18.909  0.00  0.00    +0.000 C 
BRANCH  19  20
ATOM     20  C   UNL     1       4.684   4.264  17.887  0.00  0.00    +0.000 A 
ATOM     21  C   UNL     1       4.447   4.079  16.500  0.00  0.00    +0.000 A 
ATOM     22  C   UNL     1       5.464   4.127  15.507  0.00  0.00    +0.000 A 
ATOM     23  C   UNL     1       6.816   4.370  15.803  0.00  0.00    +0.000 A 
ATOM     24  C   UNL     1       7.083   4.580  17.167  0.00  0.00    +0.000 A 
ATOM     25  N   UNL     1       8.250   4.847  17.766  0.00  0.00    +0.000 NA
ATOM     26  O   UNL     1       7.962   4.970  19.113  0.00  0.00    +0.000 OA
ATOM     27  N   UNL     1       6.618   4.770  19.375  0.00  0.00    +0.000 NA
ATOM     28  C   UNL     1       6.042   4.528  18.190  0.00  0.00    +0.000 A 
ENDBRANCH  19  20
ENDBRANCH   4  19
TORSDOF 5
ENDMDL
MODEL 3
REMARK VINA RESULT:      -7.7      4.479      7.270
REMARK  Name = 
REMARK  6 active torsions:
REMARK  status: ('A' for Active; 'I' for Inactive)
REMARK    1  A    between atoms: C_1  and  C_2
REMARK    2  A    between atoms: C_4  and  C_5
REMARK    3  A    between atoms: N_7  and  C_8
REMARK    4  A    between atoms: N_11  and  C_12
REMARK    5  A    between atoms: C_12  and  C_13
REMARK    6  A    between atoms: C_23  and  O_24
REMARK                            x       y       z     vdW  Elec       q    Type
REMARK                         _______ _______ _______ _____ _____    ______ ____
ROOT
ATOM      1  C   UNL     1       6.258   7.072  17.376  0.00  0.00    +0.000 C 
ATOM      2  C   UNL     1       4.773   7.194  17.706  0.00  0.00    +0.000 C 
ATOM      3  C   UNL     1       4.182   5.809  17.973  0.00  0.00    +0.000 C 
ATOM      4  N   UNL     1       4.786   4.725  17.169  0.00  0.00    +0.000 NA
ATOM      5  C   UNL     1       5.269   5.230  15.869  0.00  0.00    +0.000 C 
ATOM      6  C   UNL     1       6.378   6.305  16.034  0.00  0.00    +0.000 C 
ENDROOT
BRANCH   1   9
ATOM      7  C   UNL     1       8.053   8.660  18.048  0.00  0.00    +0.000 C 
ATOM      8  O   UNL     1       8.603   7.849  18.784  0.00  0.00    +0.000 OA
ATOM      9  N   UNL     1       6.908   8.380  17.326  0.00  0.00    +0.000 N 
ATOM     10  H   UNL     1       6.661   9.042  16.595  0.00  0.00    +0.000 HD
BRANCH   7  14
ATOM     11  C   UNL     1      10.744  12.963  18.184  0.00  0.00    +0.000 C 
ATOM     12  C   UNL     1       9.794  11.851  18.013  0.00  0.00    +0.000 A 
ATOM     13  C   UNL     1       9.825  10.512  18.301  0.00  0.00    +0.000 A 
ATOM     14  C   UNL     1       8.552  10.028  17.903  0.00  0.00    +0.000 A 
ATOM     15  N   UNL     1       7.805  11.022  17.389  0.00  0.00    +0.000 NA
ATOM     16  O   UNL     1       8.590  12.160  17.458  0.00  0.00    +0.000 OA
ENDBRANCH   7  14
ENDBRANCH   1   9
BRANCH   6  17
ATOM     17  O   UNL     1       7.678   5.711  15.931  0.00  0.00    +0.000 OA
ATOM     18  H   UNL     1       7.652   5.117  15.159  0.00  0.00    +0.000 HD
ENDBRANCH   6  17
BRANCH   4  19
ATOM     19  C   UNL     1       3.816   3.627  16.975  0.00  0.00    +0.000 C 
BRANCH  19  20
ATOM     20  C   UNL     1       2.993   3.312  18.199  0.00  0.00    +0.000 A 
ATOM     21  C   UNL     1       1.585   3.488  18.228  0.00  0.00    +0.000 A 
ATOM     22  C   UNL     1       0.775   3.230  19.368  0.00  0.00    +0.000 A 
ATOM     23  C   UNL     1       1.293   2.765  20.590  0.00  0.00    +0.000 A 
ATOM     24  C   UNL     1       2.684   2.558  20.589  0.00  0.00    +0.000 A 
ATOM     25  N   UNL     1       3.469   2.113  21.577  0.00  0.00    +0.000 NA
ATOM     26  O   UNL     1       4.751   2.088  21.057  0.00  0.00    +0.000 OA
ATOM     27  N   UNL     1       4.784   2.528  19.745  0.00  0.00    +0.000 NA
ATOM     28  C   UNL     1       3.518   2.826  19.421  0.00  0.00    +0.000 A 
ENDBRANCH  19  20
ENDBRANCH   4  19
TORSDOF 5
ENDMDL
MODEL 4
REMARK VINA RESULT:      -7.6      2.268      3.530
REMARK  Name = 
REMARK  6 active torsions:
REMARK  status: ('A' for Active; 'I' for Inactive)
REMARK    1  A    between atoms: C_1  and  C_2
REMARK    2  A    between atoms: C_4  and  C_5
REMARK    3  A    between atoms: N_7  and  C_8
REMARK    4  A    between atoms: N_11  and  C_12
REMARK    5  A    between atoms: C_12  and  C_13
REMARK    6  A    between atoms: C_23  and  O_24
REMARK                            x       y       z     vdW  Elec       q    Type
REMARK                         _______ _______ _______ _____ _____    ______ ____
ROOT
ATOM      1  C   UNL     1       1.887   7.742  20.179  0.00  0.00    +0.000 C 
ATOM      2  C   UNL     1       1.530   6.350  20.694  0.00  0.00    +0.000 C 
ATOM      3  C   UNL     1       2.688   5.385  20.436  0.00  0.00    +0.000 C 
ATOM      4  N   UNL     1       3.446   5.662  19.197  0.00  0.00    +0.000 NA
ATOM      5  C   UNL     1       2.585   6.283  18.172  0.00  0.00    +0.000 C 
ATOM      6  C   UNL     1       2.015   7.652  18.636  0.00  0.00    +0.000 C 
ENDROOT
BRANCH   1   9
ATOM      7  C   UNL     1       1.031   9.450  21.774  0.00  0.00    +0.000 C 
ATOM      8  O   UNL     1       1.961   9.298  22.557  0.00  0.00    +0.000 OA
ATOM      9  N   UNL     1       0.903   8.738  20.595  0.00  0.00    +0.000 N 
ATOM     10  H   UNL     1       0.221   9.087  19.928  0.00  0.00    +0.000 HD
BRANCH   7  14
ATOM     11  C   UNL     1      -2.623  12.966  21.530  0.00  0.00    +0.000 C 
ATOM     12  C   UNL     1      -1.630  11.925  21.846  0.00  0.00    +0.000 A 
ATOM     13  C   UNL     1      -0.747  11.187  21.101  0.00  0.00    +0.000 A 
ATOM     14  C   UNL     1      -0.061  10.385  22.049  0.00  0.00    +0.000 A 
ATOM     15  N   UNL     1      -0.520  10.617  23.291  0.00  0.00    +0.000 NA
ATOM     16  O   UNL     1      -1.505  11.582  23.156  0.00  0.00    +0.000 OA
ENDBRANCH   7  14
ENDBRANCH   1   9
BRANCH   6  17
ATOM     17  O   UNL     1       2.829   8.728  18.155  0.00  0.00    +0.000 OA
ATOM     18  H   UNL     1       3.673   8.332  17.870  0.00  0.00    +0.000 HD
ENDBRANCH   6  17
BRANCH   4  19
ATOM     19  C   UNL     1       4.061   4.421  18.681  0.00  0.00    +0.000 C 
BRANCH  19  20
ATOM     20  C   UNL     1       4.908   4.623  17.449  0.00  0.00    +0.000 A 
ATOM     21  C   UNL     1       4.658   3.925  16.239  0.00  0.00    +0.000 A 
ATOM     22  C   UNL     1       5.446   4.064  15.063  0.00  0.00    +0.000 A 
ATOM     23  C   UNL     1       6.558   4.920  14.981  0.00  0.00    +0.000 A 
ATOM     24  C   UNL     1       6.821   5.645  16.157  0.00  0.00    +0.000 A 
ATOM     25  N   UNL     1       7.785   6.542  16.396  0.00  0.00    +0.000 NA
ATOM     26  O   UNL     1       7.596   6.960  17.700  0.00  0.00    +0.000 OA
ATOM     27  N   UNL     1       6.521   6.322  18.296  0.00  0.00    +0.000 NA
ATOM     28  C   UNL     1       6.016   5.501  17.366  0.00  0.00    +0.000 A 
ENDBRANCH  19  20
ENDBRANCH   4  19
TORSDOF 5
ENDMDL
MODEL 5
REMARK VINA RESULT:      -7.6      4.052      5.332
REMARK  Name = 
REMARK  6 active torsions:
REMARK  status: ('A' for Active; 'I' for Inactive)
REMARK    1  A    between atoms: C_1  and  C_2
REMARK    2  A    between atoms: C_4  and  C_5
REMARK    3  A    between atoms: N_7  and  C_8
REMARK    4  A    between atoms: N_11  and  C_12
REMARK    5  A    between atoms: C_12  and  C_13
REMARK    6  A    between atoms: C_23  and  O_24
REMARK                            x       y       z     vdW  Elec       q    Type
REMARK                         _______ _______ _______ _____ _____    ______ ____
ROOT
ATOM      1  C   UNL     1       1.436   9.197  19.633  0.00  0.00    +0.000 C 
ATOM      2  C   UNL     1       1.313   7.759  20.131  0.00  0.00    +0.000 C 
ATOM      3  C   UNL     1       2.540   6.952  19.707  0.00  0.00    +0.000 C 
ATOM      4  N   UNL     1       3.109   7.351  18.402  0.00  0.00    +0.000 NA
ATOM      5  C   UNL     1       2.066   7.885  17.505  0.00  0.00    +0.000 C 
ATOM      6  C   UNL     1       1.393   9.161  18.083  0.00  0.00    +0.000 C 
ENDROOT
BRANCH   1   9
ATOM      7  C   UNL     1       0.376  10.406  21.533  0.00  0.00    +0.000 C 
ATOM      8  O   UNL     1       1.214  10.026  22.343  0.00  0.00    +0.000 OA
ATOM      9  N   UNL     1       0.395  10.053  20.196  0.00  0.00    +0.000 N 
ATOM     10  H   UNL     1      -0.212  10.586  19.579  0.00  0.00    +0.000 HD
BRANCH   7  14
ATOM     11  C   UNL     1      -3.547  12.581  23.909  0.00  0.00    +0.000 C 
ATOM     12  C   UNL     1      -2.449  12.126  23.040  0.00  0.00    +0.000 A 
ATOM     13  C   UNL     1      -1.447  11.199  23.169  0.00  0.00    +0.000 A 
ATOM     14  C   UNL     1      -0.754  11.244  21.931  0.00  0.00    +0.000 A 
ATOM     15  N   UNL     1      -1.302  12.161  21.113  0.00  0.00    +0.000 NA
ATOM     16  O   UNL     1      -2.361  12.710  21.814  0.00  0.00    +0.000 OA
ENDBRANCH   7  14
ENDBRANCH   1   9
BRANCH   6  17
ATOM     17  O   UNL     1       2.010  10.341  17.555  0.00  0.00    +0.000 OA
ATOM     18  H   UNL     1       2.938  10.111  17.370  0.00  0.00    +0.000 HD
ENDBRANCH   6  17
BRANCH   4  19
ATOM     19  C   UNL     1       3.805   6.209  17.772  0.00  0.00    +0.000 C 
BRANCH  19  20
ATOM     20  C   UNL     1       3.211   4.865  18.115  0.00  0.00    +0.000 A 
ATOM     21  C   UNL     1       1.905   4.490  17.706  0.00  0.00    +0.000 A 
ATOM     22  C   UNL     1       1.296   3.247  18.030  0.00  0.00    +0.000 A 
ATOM     23  C   UNL     1       1.937   2.253  18.790  0.00  0.00    +0.000 A 
ATOM     24  C   UNL     1       3.243   2.582  19.193  0.00  0.00    +0.000 A 
ATOM     25  N   UNL     1       4.113   1.856  19.905  0.00  0.00    +0.000 NA
ATOM     26  O   UNL     1       5.251   2.636  20.018  0.00  0.00    +0.000 OA
ATOM     27  N   UNL     1       5.102   3.860  19.390  0.00  0.00    +0.000 NA
ATOM     28  C   UNL     1       3.869   3.860  18.865  0.00  0.00    +0.000 A 
ENDBRANCH  19  20
ENDBRANCH   4  19
TORSDOF 5
ENDMDL
MODEL 6
REMARK VINA RESULT:      -7.5      4.050      5.535
REMARK  Name = 
REMARK  6 active torsions:
REMARK  status: ('A' for Active; 'I' for Inactive)
REMARK    1  A    between atoms: C_1  and  C_2
REMARK    2  A    between atoms: C_4  and  C_5
REMARK    3  A    between atoms: N_7  and  C_8
REMARK    4  A    between atoms: N_11  and  C_12
REMARK    5  A    between atoms: C_12  and  C_13
REMARK    6  A    between atoms: C_23  and  O_24
REMARK                            x       y       z     vdW  Elec       q    Type
REMARK                         _______ _______ _______ _____ _____    ______ ____
ROOT
ATOM      1  C   UNL     1       1.081   9.686  20.161  0.00  0.00    +0.000 C 
ATOM      2  C   UNL     1       1.026   8.185  20.433  0.00  0.00    +0.000 C 
ATOM      3  C   UNL     1       2.216   7.490  19.769  0.00  0.00    +0.000 C 
ATOM      4  N   UNL     1       2.647   8.106  18.496  0.00  0.00    +0.000 NA
ATOM      5  C   UNL     1       1.512   8.744  17.801  0.00  0.00    +0.000 C 
ATOM      6  C   UNL     1       0.884   9.893  18.637  0.00  0.00    +0.000 C 
ENDROOT
BRANCH   1   9
ATOM      7  C   UNL     1       0.318  11.694  21.418  0.00  0.00    +0.000 C 
ATOM      8  O   UNL     1       1.358  12.311  21.217  0.00  0.00    +0.000 OA
ATOM      9  N   UNL     1       0.090  10.413  20.951  0.00  0.00    +0.000 N 
ATOM     10  H   UNL     1      -0.870  10.082  20.989  0.00  0.00    +0.000 HD
BRANCH   7  14
ATOM     11  C   UNL     1      -3.837  12.484  24.225  0.00  0.00    +0.000 C 
ATOM     12  C   UNL     1      -2.595  12.505  23.434  0.00  0.00    +0.000 A 
ATOM     13  C   UNL     1      -1.796  11.539  22.880  0.00  0.00    +0.000 A 
ATOM     14  C   UNL     1      -0.769  12.260  22.217  0.00  0.00    +0.000 A 
ATOM     15  N   UNL     1      -0.935  13.585  22.381  0.00  0.00    +0.000 NA
ATOM     16  O   UNL     1      -2.079  13.731  23.147  0.00  0.00    +0.000 OA
ENDBRANCH   7  14
ENDBRANCH   1   9
BRANCH   6  17
ATOM     17  O   UNL     1       1.429  11.159  18.246  0.00  0.00    +0.000 OA
ATOM     18  H   UNL     1       2.090  10.975  17.554  0.00  0.00    +0.000 HD
ENDBRANCH   6  17
BRANCH   4  19
ATOM     19  C   UNL     1       3.291   7.097  17.628  0.00  0.00    +0.000 C 
BRANCH  19  20
ATOM     20  C   UNL     1       3.041   5.672  18.056  0.00  0.00    +0.000 A 
ATOM     21  C   UNL     1       1.784   5.039  17.875  0.00  0.00    +0.000 A 
ATOM     22  C   UNL     1       1.497   3.708  18.287  0.00  0.00    +0.000 A 
ATOM     23  C   UNL     1       2.442   2.878  18.914  0.00  0.00    +0.000 A 
ATOM     24  C   UNL     1       3.707   3.466  19.089  0.00  0.00    +0.000 A 
ATOM     25  N   UNL     1       4.812   2.942  19.632  0.00  0.00    +0.000 NA
ATOM     26  O   UNL     1       5.776   3.932  19.553  0.00  0.00    +0.000 OA
ATOM     27  N   UNL     1       5.283   5.088  18.973  0.00  0.00    +0.000 NA
ATOM     28  C   UNL     1       4.003   4.834  18.670  0.00  0.00    +0.000 A 
ENDBRANCH  19  20
ENDBRANCH   4  19
TORSDOF 5
ENDMDL
MODEL 7
REMARK VINA RESULT:      -7.5      4.599      7.165
REMARK  Name = 
REMARK  6 active torsions:
REMARK  status: ('A' for Active; 'I' for Inactive)
REMARK    1  A    between atoms: C_1  and  C_2
REMARK    2  A    between atoms: C_4  and  C_5
REMARK    3  A    between atoms: N_7  and  C_8
REMARK    4  A    between atoms: N_11  and  C_12
REMARK    5  A    between atoms: C_12  and  C_13
REMARK    6  A    between atoms: C_23  and  O_24
REMARK                            x       y       z     vdW  Elec       q    Type
REMARK                         _______ _______ _______ _____ _____    ______ ____
ROOT
ATOM      1  C   UNL     1       6.627   6.764  17.127  0.00  0.00    +0.000 C 
ATOM      2  C   UNL     1       6.643   5.923  18.401  0.00  0.00    +0.000 C 
ATOM      3  C   UNL     1       6.255   4.480  18.079  0.00  0.00    +0.000 C 
ATOM      4  N   UNL     1       5.269   4.344  16.986  0.00  0.00    +0.000 NA
ATOM      5  C   UNL     1       4.379   5.520  16.921  0.00  0.00    +0.000 C 
ATOM      6  C   UNL     1       5.161   6.830  16.629  0.00  0.00    +0.000 C 
ENDROOT
BRANCH   1   9
ATOM      7  C   UNL     1       8.192   8.316  18.283  0.00  0.00    +0.000 C 
ATOM      8  O   UNL     1       8.664   7.436  18.993  0.00  0.00    +0.000 OA
ATOM      9  N   UNL     1       7.197   8.091  17.350  0.00  0.00    +0.000 N 
ATOM     10  H   UNL     1       7.031   8.834  16.677  0.00  0.00    +0.000 HD
BRANCH   7  14
ATOM     11  C   UNL     1       9.121  13.258  17.585  0.00  0.00    +0.000 C 
ATOM     12  C   UNL     1       8.978  11.854  18.006  0.00  0.00    +0.000 A 
ATOM     13  C   UNL     1       8.293  10.773  17.516  0.00  0.00    +0.000 A 
ATOM     14  C   UNL     1       8.624   9.710  18.396  0.00  0.00    +0.000 A 
ATOM     15  N   UNL     1       9.448  10.136  19.370  0.00  0.00    +0.000 NA
ATOM     16  O   UNL     1       9.664  11.481  19.121  0.00  0.00    +0.000 OA
ENDBRANCH   7  14
ENDBRANCH   1   9
BRANCH   6  17
ATOM     17  O   UNL     1       5.140   7.130  15.227  0.00  0.00    +0.000 OA
ATOM     18  H   UNL     1       6.068   7.125  14.929  0.00  0.00    +0.000 HD
ENDBRANCH   6  17
BRANCH   4  19
ATOM     19  C   UNL     1       4.483   3.103  17.152  0.00  0.00    +0.000 C 
BRANCH  19  20
ATOM     20  C   UNL     1       3.424   3.187  18.223  0.00  0.00    +0.000 A 
ATOM     21  C   UNL     1       2.145   3.750  17.978  0.00  0.00    +0.000 A 
ATOM     22  C   UNL     1       1.128   3.873  18.964  0.00  0.00    +0.000 A 
ATOM     23  C   UNL     1       1.289   3.440  20.292  0.00  0.00    +0.000 A 
ATOM     24  C   UNL     1       2.538   2.855  20.564  0.00  0.00    +0.000 A 
ATOM     25  N   UNL     1       2.993   2.336  21.711  0.00  0.00    +0.000 NA
ATOM     26  O   UNL     1       4.274   1.891  21.440  0.00  0.00    +0.000 OA
ATOM     27  N   UNL     1       4.640   2.135  20.128  0.00  0.00    +0.000 NA
ATOM     28  C   UNL     1       3.586   2.731  19.555  0.00  0.00    +0.000 A 
ENDBRANCH  19  20
ENDBRANCH   4  19
TORSDOF 5
ENDMDL
MODEL 8
REMARK VINA RESULT:      -7.4      2.314      9.230
REMARK  Name = 
REMARK  6 active torsions:
REMARK  status: ('A' for Active; 'I' for Inactive)
REMARK    1  A    between atoms: C_1  and  C_2
REMARK    2  A    between atoms: C_4  and  C_5
REMARK    3  A    between atoms: N_7  and  C_8
REMARK    4  A    between atoms: N_11  and  C_12
REMARK    5  A    between atoms: C_12  and  C_13
REMARK    6  A    between atoms: C_23  and  O_24
REMARK                            x       y       z     vdW  Elec       q    Type
REMARK                         _______ _______ _______ _____ _____    ______ ____
ROOT
ATOM      1  C   UNL     1       3.522   7.240  18.075  0.00  0.00    +0.000 C 
ATOM      2  C   UNL     1       2.407   8.131  17.535  0.00  0.00    +0.000 C 
ATOM      3  C   UNL     1       1.831   8.988  18.663  0.00  0.00    +0.000 C 
ATOM      4  N   UNL     1       1.823   8.328  19.986  0.00  0.00    +0.000 NA
ATOM      5  C   UNL     1       1.692   6.864  19.851  0.00  0.00    +0.000 C 
ATOM      6  C   UNL     1       2.881   6.238  19.070  0.00  0.00    +0.000 C 
ENDROOT
BRANCH   1   9
ATOM      7  C   UNL     1       5.576   6.220  17.107  0.00  0.00    +0.000 C 
ATOM      8  O   UNL     1       6.255   6.457  18.099  0.00  0.00    +0.000 OA
ATOM      9  N   UNL     1       4.242   6.565  16.997  0.00  0.00    +0.000 N 
ATOM     10  H   UNL     1       3.726   6.140  16.231  0.00  0.00    +0.000 HD
BRANCH   7  14
ATOM     11  C   UNL     1       6.394   3.575  12.852  0.00  0.00    +0.000 C 
ATOM     12  C   UNL     1       6.404   4.402  14.070  0.00  0.00    +0.000 A 
ATOM     13  C   UNL     1       5.436   4.850  14.931  0.00  0.00    +0.000 A 
ATOM     14  C   UNL     1       6.145   5.578  15.922  0.00  0.00    +0.000 A 
ATOM     15  N   UNL     1       7.464   5.581  15.658  0.00  0.00    +0.000 NA
ATOM     16  O   UNL     1       7.618   4.845  14.495  0.00  0.00    +0.000 OA
ENDBRANCH   7  14
ENDBRANCH   1   9
BRANCH   6  17
ATOM     17  O   UNL     1       3.879   5.750  19.975  0.00  0.00    +0.000 OA
ATOM     18  H   UNL     1       4.292   6.534  20.382  0.00  0.00    +0.000 HD
ENDBRANCH   6  17
BRANCH   4  19
ATOM     19  C   UNL     1       0.738   8.874  20.828  0.00  0.00    +0.000 C 
BRANCH  19  20
ATOM     20  C   UNL     1       0.082  10.106  20.259  0.00  0.00    +0.000 A 
ATOM     21  C   UNL     1      -1.015  10.031  19.360  0.00  0.00    +0.000 A 
ATOM     22  C   UNL     1      -1.645  11.165  18.779  0.00  0.00    +0.000 A 
ATOM     23  C   UNL     1      -1.246  12.487  19.044  0.00  0.00    +0.000 A 
ATOM     24  C   UNL     1      -0.175  12.599  19.949  0.00  0.00    +0.000 A 
ATOM     25  N   UNL     1       0.423  13.703  20.413  0.00  0.00    +0.000 NA
ATOM     26  O   UNL     1       1.409  13.261  21.276  0.00  0.00    +0.000 OA
ATOM     27  N   UNL     1       1.448  11.880  21.354  0.00  0.00    +0.000 NA
ATOM     28  C   UNL     1       0.477  11.436  20.544  0.00  0.00    +0.000 A 
ENDBRANCH  19  20
ENDBRANCH   4  19
TORSDOF 5
ENDMDL
MODEL 9
REMARK VINA RESULT:      -7.3      2.249      9.498
REMARK  Name = 
REMARK  6 active torsions:
REMARK  status: ('A' for Active; 'I' for Inactive)
REMARK    1  A    between atoms: C_1  and  C_2
REMARK    2  A    between atoms: C_4  and  C_5
REMARK    3  A    between atoms: N_7  and  C_8
REMARK    4  A    between atoms: N_11  and  C_12
REMARK    5  A    between atoms: C_12  and  C_13
REMARK    6  A    between atoms: C_23  and  O_24
REMARK                            x       y       z     vdW  Elec       q    Type
REMARK                         _______ _______ _______ _____ _____    ______ ____
ROOT
ATOM      1  C   UNL     1       3.511   7.047  18.323  0.00  0.00    +0.000 C 
ATOM      2  C   UNL     1       2.363   7.948  17.876  0.00  0.00    +0.000 C 
ATOM      3  C   UNL     1       1.775   8.682  19.081  0.00  0.00    +0.000 C 
ATOM      4  N   UNL     1       1.803   7.906  20.339  0.00  0.00    +0.000 NA
ATOM      5  C   UNL     1       1.714   6.457  20.074  0.00  0.00    +0.000 C 
ATOM      6  C   UNL     1       2.912   5.941  19.230  0.00  0.00    +0.000 C 
ENDROOT
BRANCH   1   9
ATOM      7  C   UNL     1       5.569   6.131  17.266  0.00  0.00    +0.000 C 
ATOM      8  O   UNL     1       6.239   6.249  18.285  0.00  0.00    +0.000 OA
ATOM      9  N   UNL     1       4.238   6.494  17.183  0.00  0.00    +0.000 N 
ATOM     10  H   UNL     1       3.728   6.162  16.369  0.00  0.00    +0.000 HD
BRANCH   7  14
ATOM     11  C   UNL     1       6.500   3.761  12.874  0.00  0.00    +0.000 C 
ATOM     12  C   UNL     1       6.461   4.551  14.116  0.00  0.00    +0.000 A 
ATOM     13  C   UNL     1       5.500   4.803  15.060  0.00  0.00    +0.000 A 
ATOM     14  C   UNL     1       6.147   5.623  16.021  0.00  0.00    +0.000 A 
ATOM     15  N   UNL     1       7.421   5.863  15.661  0.00  0.00    +0.000 NA
ATOM     16  O   UNL     1       7.610   5.190  14.466  0.00  0.00    +0.000 OA
ENDBRANCH   7  14
ENDBRANCH   1   9
BRANCH   6  17
ATOM     17  O   UNL     1       3.936   5.406  20.078  0.00  0.00    +0.000 OA
ATOM     18  H   UNL     1       3.850   4.435  20.038  0.00  0.00    +0.000 HD
ENDBRANCH   6  17
BRANCH   4  19
ATOM     19  C   UNL     1       0.711   8.340  21.237  0.00  0.00    +0.000 C 
BRANCH  19  20
ATOM     20  C   UNL     1      -0.031   9.561  20.753  0.00  0.00    +0.000 A 
ATOM     21  C   UNL     1      -0.494   9.682  19.416  0.00  0.00    +0.000 A 
ATOM     22  C   UNL     1      -1.174  10.824  18.911  0.00  0.00    +0.000 A 
ATOM     23  C   UNL     1      -1.463  11.955  19.694  0.00  0.00    +0.000 A 
ATOM     24  C   UNL     1      -1.038  11.859  21.031  0.00  0.00    +0.000 A 
ATOM     25  N   UNL     1      -1.173  12.747  22.024  0.00  0.00    +0.000 NA
ATOM     26  O   UNL     1      -0.590  12.162  23.134  0.00  0.00    +0.000 OA
ATOM     27  N   UNL     1      -0.074  10.910  22.847  0.00  0.00    +0.000 NA
ATOM     28  C   UNL     1      -0.336  10.689  21.552  0.00  0.00    +0.000 A 
ENDBRANCH  19  20
ENDBRANCH   4  19
TORSDOF 5
ENDMDL
