MODEL 1
REMARK VINA RESULT:      -7.7      0.000      0.000
REMARK  Name = 
REMARK  6 active torsions:
REMARK  status: ('A' for Active; 'I' for Inactive)
REMARK    1  A    between atoms: C_1  and  C_2
REMARK    2  A    between atoms: C_6  and  O_7
REMARK    3  A    between atoms: O_7  and  C_8
REMARK    4  A    between atoms: C_11  and  N_12
REMARK    5  A    between atoms: C_18  and  O_19
REMARK    6  A    between atoms: C_23  and  C_24
REMARK                            x       y       z     vdW  Elec       q    Type
REMARK                         _______ _______ _______ _____ _____    ______ ____
ROOT
ATOM      1  C   UNL     1       1.113   9.872  18.940  0.00  0.00    +0.000 A 
ATOM      2  C   UNL     1       1.790   9.444  17.809  0.00  0.00    +0.000 A 
ATOM      3  C   UNL     1       2.379   8.177  17.824  0.00  0.00    +0.000 A 
ATOM      4  C   UNL     1       2.282   7.380  18.964  0.00  0.00    +0.000 A 
ATOM      5  C   UNL     1       1.613   7.925  20.059  0.00  0.00    +0.000 A 
ATOM      6  N   UNL     1       1.047   9.151  20.081  0.00  0.00    +0.000 NA
ENDROOT
BRANCH   4   7
ATOM      7  N   UNL     1       2.792   6.068  19.070  0.00  0.00    +0.000 N 
ATOM      8  C   UNL     1       2.289   4.949  18.455  0.00  0.00    +0.000 C 
ATOM      9  O   UNL     1       1.343   4.951  17.672  0.00  0.00    +0.000 OA
ATOM     10  N   UNL     1       2.966   3.779  18.733  0.00  0.00    +0.000 N 
ATOM     11  C   UNL     1       2.645   2.579  17.982  0.00  0.00    +0.000 C 
ATOM     12  C   UNL     1       3.542   1.480  18.535  0.00  0.00    +0.000 C 
ATOM     13  C   UNL     1       4.646   2.229  19.275  0.00  0.00    +0.000 C 
ATOM     14  C   UNL     1       3.949   3.496  19.768  0.00  0.00    +0.000 C 
ATOM     15  H   UNL     1       3.726   5.986  19.436  0.00  0.00    +0.000 HD
BRANCH  13  16
ATOM     16  O   UNL     1       5.194   1.455  20.328  0.00  0.00    +0.000 OA
ATOM     17  H   UNL     1       5.485   2.053  21.038  0.00  0.00    +0.000 HD
ENDBRANCH  13  16
ENDBRANCH   4   7
BRANCH   1  18
ATOM     18  O   UNL     1       0.476  11.105  18.861  0.00  0.00    +0.000 OA
BRANCH  18  24
ATOM     19  C   UNL     1      -3.963  12.851  20.164  0.00  0.00    +0.000 C 
ATOM     20  C   UNL     1      -3.073  11.999  19.298  0.00  0.00    +0.000 A 
ATOM     21  C   UNL     1      -3.661  11.224  18.285  0.00  0.00    +0.000 A 
ATOM     22  C   UNL     1      -2.878  10.435  17.451  0.00  0.00    +0.000 A 
ATOM     23  C   UNL     1      -1.499  10.401  17.626  0.00  0.00    +0.000 A 
ATOM     24  C   UNL     1      -0.891  11.124  18.663  0.00  0.00    +0.000 A 
ATOM     25  C   UNL     1      -1.670  11.962  19.486  0.00  0.00    +0.000 A 
ATOM     26  C   UNL     1      -1.033  12.803  20.563  0.00  0.00    +0.000 C 
ENDBRANCH  18  24
ENDBRANCH   1  18
TORSDOF 4
ENDMDL
MODEL 2
REMARK VINA RESULT:      -7.4      2.213      8.865
REMARK  Name = 
REMARK  6 active torsions:
REMARK  status: ('A' for Active; 'I' for Inactive)
REMARK    1  A    between atoms: C_1  and  C_2
REMARK    2  A    between atoms: C_6  and  O_7
REMARK    3  A    between atoms: O_7  and  C_8
REMARK    4  A    between atoms: C_11  and  N_12
REMARK    5  A    between atoms: C_18  and  O_19
REMARK    6  A    between atoms: C_23  and  C_24
REMARK                            x       y       z     vdW  Elec       q    Type
REMARK                         _______ _______ _______ _____ _____    ______ ____
ROOT
ATOM      1  C   UNL     1       2.427   7.394  18.538  0.00  0.00    +0.000 A 
ATOM      2  C   UNL     1       2.062   8.500  17.786  0.00  0.00    +0.000 A 
ATOM      3  C   UNL     1       1.407   9.555  18.425  0.00  0.00    +0.000 A 
ATOM      4  C   UNL     1       1.130   9.474  19.789  0.00  0.00    +0.000 A 
ATOM      5  C   UNL     1       1.504   8.300  20.441  0.00  0.00    +0.000 A 
ATOM      6  N   UNL     1       2.124   7.257  19.848  0.00  0.00    +0.000 NA
ENDROOT
BRANCH   4   7
ATOM      7  N   UNL     1       0.522  10.500  20.545  0.00  0.00    +0.000 N 
ATOM      8  C   UNL     1      -0.694  11.084  20.292  0.00  0.00    +0.000 C 
ATOM      9  O   UNL     1      -1.454  10.746  19.388  0.00  0.00    +0.000 OA
ATOM     10  N   UNL     1      -1.058  12.077  21.178  0.00  0.00    +0.000 N 
ATOM     11  C   UNL     1      -2.405  12.618  21.123  0.00  0.00    +0.000 C 
ATOM     12  C   UNL     1      -2.476  13.688  22.202  0.00  0.00    +0.000 C 
ATOM     13  C   UNL     1      -1.291  13.387  23.115  0.00  0.00    +0.000 C 
ATOM     14  C   UNL     1      -0.257  12.781  22.166  0.00  0.00    +0.000 C 
ATOM     15  H   UNL     1       0.899  10.652  21.466  0.00  0.00    +0.000 HD
BRANCH  13  16
ATOM     16  O   UNL     1      -0.822  14.551  23.773  0.00  0.00    +0.000 OA
ATOM     17  H   UNL     1      -1.006  15.324  23.212  0.00  0.00    +0.000 HD
ENDBRANCH  13  16
ENDBRANCH   4   7
BRANCH   1  18
ATOM     18  O   UNL     1       3.144   6.399  17.884  0.00  0.00    +0.000 OA
BRANCH  18  24
ATOM     19  C   UNL     1       4.535   2.149  19.995  0.00  0.00    +0.000 C 
ATOM     20  C   UNL     1       3.543   2.996  19.242  0.00  0.00    +0.000 A 
ATOM     21  C   UNL     1       2.325   2.418  18.851  0.00  0.00    +0.000 A 
ATOM     22  C   UNL     1       1.372   3.164  18.167  0.00  0.00    +0.000 A 
ATOM     23  C   UNL     1       1.631   4.494  17.855  0.00  0.00    +0.000 A 
ATOM     24  C   UNL     1       2.861   5.081  18.186  0.00  0.00    +0.000 A 
ATOM     25  C   UNL     1       3.816   4.347  18.918  0.00  0.00    +0.000 A 
ATOM     26  C   UNL     1       5.117   4.976  19.347  0.00  0.00    +0.000 C 
ENDBRANCH  18  24
ENDBRANCH   1  18
TORSDOF 4
ENDMDL
MODEL 3
REMARK VINA RESULT:      -7.3      2.676      8.975
REMARK  Name = 
REMARK  6 active torsions:
REMARK  status: ('A' for Active; 'I' for Inactive)
REMARK    1  A    between atoms: C_1  and  C_2
REMARK    2  A    between atoms: C_6  and  O_7
REMARK    3  A    between atoms: O_7  and  C_8
REMARK    4  A    between atoms: C_11  and  N_12
REMARK    5  A    between atoms: C_18  and  O_19
REMARK    6  A    between atoms: C_23  and  C_24
REMARK                            x       y       z     vdW  Elec       q    Type
REMARK                         _______ _______ _______ _____ _____    ______ ____
ROOT
ATOM      1  C   UNL     1       2.334   7.639  18.787  0.00  0.00    +0.000 A 
ATOM      2  C   UNL     1       1.830   8.698  18.048  0.00  0.00    +0.000 A 
ATOM      3  C   UNL     1       1.059   9.661  18.702  0.00  0.00    +0.000 A 
ATOM      4  C   UNL     1       0.806   9.536  20.068  0.00  0.00    +0.000 A 
ATOM      5  C   UNL     1       1.326   8.411  20.705  0.00  0.00    +0.000 A 
ATOM      6  N   UNL     1       2.062   7.456  20.098  0.00  0.00    +0.000 NA
ENDROOT
BRANCH   4   7
ATOM      7  N   UNL     1       0.085  10.474  20.838  0.00  0.00    +0.000 N 
ATOM      8  C   UNL     1       0.519  11.721  21.215  0.00  0.00    +0.000 C 
ATOM      9  O   UNL     1       1.592  12.216  20.878  0.00  0.00    +0.000 OA
ATOM     10  N   UNL     1      -0.375  12.441  21.979  0.00  0.00    +0.000 N 
ATOM     11  C   UNL     1      -0.103  13.840  22.260  0.00  0.00    +0.000 C 
ATOM     12  C   UNL     1      -1.254  14.330  23.127  0.00  0.00    +0.000 C 
ATOM     13  C   UNL     1      -2.353  13.292  22.921  0.00  0.00    +0.000 C 
ATOM     14  C   UNL     1      -1.579  11.999  22.668  0.00  0.00    +0.000 C 
ATOM     15  H   UNL     1      -0.905  10.310  20.920  0.00  0.00    +0.000 HD
BRANCH  13  16
ATOM     16  O   UNL     1      -3.216  13.208  24.041  0.00  0.00    +0.000 OA
ATOM     17  H   UNL     1      -4.055  12.802  23.762  0.00  0.00    +0.000 HD
ENDBRANCH  13  16
ENDBRANCH   4   7
BRANCH   1  18
ATOM     18  O   UNL     1       3.160   6.744  18.118  0.00  0.00    +0.000 OA
BRANCH  18  24
ATOM     19  C   UNL     1       4.568   2.270  19.686  0.00  0.00    +0.000 C 
ATOM     20  C   UNL     1       3.582   3.195  19.022  0.00  0.00    +0.000 A 
ATOM     21  C   UNL     1       2.386   2.658  18.521  0.00  0.00    +0.000 A 
ATOM     22  C   UNL     1       1.439   3.475  17.915  0.00  0.00    +0.000 A 
ATOM     23  C   UNL     1       1.682   4.838  17.790  0.00  0.00    +0.000 A 
ATOM     24  C   UNL     1       2.892   5.393  18.233  0.00  0.00    +0.000 A 
ATOM     25  C   UNL     1       3.839   4.582  18.890  0.00  0.00    +0.000 A 
ATOM     26  C   UNL     1       5.116   5.166  19.437  0.00  0.00    +0.000 C 
ENDBRANCH  18  24
ENDBRANCH   1  18
TORSDOF 4
ENDMDL
MODEL 4
REMARK VINA RESULT:      -7.3      2.873      8.956
REMARK  Name = 
REMARK  6 active torsions:
REMARK  status: ('A' for Active; 'I' for Inactive)
REMARK    1  A    between atoms: C_1  and  C_2
REMARK    2  A    between atoms: C_6  and  O_7
REMARK    3  A    between atoms: O_7  and  C_8
REMARK    4  A    between atoms: C_11  and  N_12
REMARK    5  A    between atoms: C_18  and  O_19
REMARK    6  A    between atoms: C_23  and  C_24
REMARK                            x       y       z     vdW  Elec       q    Type
REMARK                         _______ _______ _______ _____ _____    ______ ____
ROOT
ATOM      1  C   UNL     1       2.203   7.713  18.928  0.00  0.00    +0.000 A 
ATOM      2  C   UNL     1       2.087   7.371  20.266  0.00  0.00    +0.000 A 
ATOM      3  C   UNL     1       1.303   8.176  21.095  0.00  0.00    +0.000 A 
ATOM      4  C   UNL     1       0.666   9.299  20.570  0.00  0.00    +0.000 A 
ATOM      5  C   UNL     1       0.882   9.574  19.221  0.00  0.00    +0.000 A 
ATOM      6  N   UNL     1       1.646   8.824  18.397  0.00  0.00    +0.000 NA
ENDROOT
BRANCH   4   7
ATOM      7  N   UNL     1      -0.190  10.151  21.302  0.00  0.00    +0.000 N 
ATOM      8  C   UNL     1       0.077  11.445  21.676  0.00  0.00    +0.000 C 
ATOM      9  O   UNL     1       1.093  12.062  21.369  0.00  0.00    +0.000 OA
ATOM     10  N   UNL     1      -0.924  12.059  22.400  0.00  0.00    +0.000 N 
ATOM     11  C   UNL     1      -0.833  13.482  22.670  0.00  0.00    +0.000 C 
ATOM     12  C   UNL     1      -2.064  13.838  23.491  0.00  0.00    +0.000 C 
ATOM     13  C   UNL     1      -3.022  12.672  23.263  0.00  0.00    +0.000 C 
ATOM     14  C   UNL     1      -2.088  11.480  23.053  0.00  0.00    +0.000 C 
ATOM     15  H   UNL     1      -1.154   9.869  21.354  0.00  0.00    +0.000 HD
BRANCH  13  16
ATOM     16  O   UNL     1      -3.907  12.495  24.355  0.00  0.00    +0.000 OA
ATOM     17  H   UNL     1      -4.821  12.493  24.021  0.00  0.00    +0.000 HD
ENDBRANCH  13  16
ENDBRANCH   4   7
BRANCH   1  18
ATOM     18  O   UNL     1       2.928   6.846  18.119  0.00  0.00    +0.000 OA
BRANCH  18  24
ATOM     19  C   UNL     1       4.438   2.353  19.527  0.00  0.00    +0.000 C 
ATOM     20  C   UNL     1       3.417   3.283  18.929  0.00  0.00    +0.000 A 
ATOM     21  C   UNL     1       2.202   2.746  18.474  0.00  0.00    +0.000 A 
ATOM     22  C   UNL     1       1.222   3.568  17.929  0.00  0.00    +0.000 A 
ATOM     23  C   UNL     1       1.450   4.935  17.821  0.00  0.00    +0.000 A 
ATOM     24  C   UNL     1       2.675   5.491  18.219  0.00  0.00    +0.000 A 
ATOM     25  C   UNL     1       3.657   4.674  18.814  0.00  0.00    +0.000 A 
ATOM     26  C   UNL     1       4.954   5.257  19.313  0.00  0.00    +0.000 C 
ENDBRANCH  18  24
ENDBRANCH   1  18
TORSDOF 4
ENDMDL
MODEL 5
REMARK VINA RESULT:      -7.2      2.879      9.009
REMARK  Name = 
REMARK  6 active torsions:
REMARK  status: ('A' for Active; 'I' for Inactive)
REMARK    1  A    between atoms: C_1  and  C_2
REMARK    2  A    between atoms: C_6  and  O_7
REMARK    3  A    between atoms: O_7  and  C_8
REMARK    4  A    between atoms: C_11  and  N_12
REMARK    5  A    between atoms: C_18  and  O_19
REMARK    6  A    between atoms: C_23  and  C_24
REMARK                            x       y       z     vdW  Elec       q    Type
REMARK                         _______ _______ _______ _____ _____    ______ ____
ROOT
ATOM      1  C   UNL     1       2.277   7.710  18.519  0.00  0.00    +0.000 A 
ATOM      2  C   UNL     1       2.199   7.331  19.850  0.00  0.00    +0.000 A 
ATOM      3  C   UNL     1       1.461   8.128  20.728  0.00  0.00    +0.000 A 
ATOM      4  C   UNL     1       0.832   9.279  20.258  0.00  0.00    +0.000 A 
ATOM      5  C   UNL     1       1.010   9.590  18.911  0.00  0.00    +0.000 A 
ATOM      6  N   UNL     1       1.729   8.849  18.041  0.00  0.00    +0.000 NA
ENDROOT
BRANCH   4   7
ATOM      7  N   UNL     1       0.021  10.127  21.044  0.00  0.00    +0.000 N 
ATOM      8  C   UNL     1       0.331  11.400  21.451  0.00  0.00    +0.000 C 
ATOM      9  O   UNL     1       1.354  12.003  21.133  0.00  0.00    +0.000 OA
ATOM     10  N   UNL     1      -0.631  12.014  22.225  0.00  0.00    +0.000 N 
ATOM     11  C   UNL     1      -0.495  13.426  22.539  0.00  0.00    +0.000 C 
ATOM     12  C   UNL     1      -1.692  13.784  23.408  0.00  0.00    +0.000 C 
ATOM     13  C   UNL     1      -2.686  12.650  23.171  0.00  0.00    +0.000 C 
ATOM     14  C   UNL     1      -1.790  11.444  22.895  0.00  0.00    +0.000 C 
ATOM     15  H   UNL     1      -0.949   9.867  21.115  0.00  0.00    +0.000 HD
BRANCH  13  16
ATOM     16  O   UNL     1      -3.542  12.459  24.284  0.00  0.00    +0.000 OA
ATOM     17  H   UNL     1      -3.111  11.852  24.911  0.00  0.00    +0.000 HD
ENDBRANCH  13  16
ENDBRANCH   4   7
BRANCH   1  18
ATOM     18  O   UNL     1       2.955   6.852  17.661  0.00  0.00    +0.000 OA
BRANCH  18  24
ATOM     19  C   UNL     1       2.776   2.033  18.756  0.00  0.00    +0.000 C 
ATOM     20  C   UNL     1       3.484   3.362  18.721  0.00  0.00    +0.000 A 
ATOM     21  C   UNL     1       4.782   3.447  19.249  0.00  0.00    +0.000 A 
ATOM     22  C   UNL     1       5.481   4.648  19.225  0.00  0.00    +0.000 A 
ATOM     23  C   UNL     1       4.886   5.782  18.684  0.00  0.00    +0.000 A 
ATOM     24  C   UNL     1       3.571   5.739  18.199  0.00  0.00    +0.000 A 
ATOM     25  C   UNL     1       2.869   4.516  18.178  0.00  0.00    +0.000 A 
ATOM     26  C   UNL     1       1.481   4.427  17.599  0.00  0.00    +0.000 C 
ENDBRANCH  18  24
ENDBRANCH   1  18
TORSDOF 4
ENDMDL
MODEL 6
REMARK VINA RESULT:      -7.2      2.642      8.837
REMARK  Name = 
REMARK  6 active torsions:
REMARK  status: ('A' for Active; 'I' for Inactive)
REMARK    1  A    between atoms: C_1  and  C_2
REMARK    2  A    between atoms: C_6  and  O_7
REMARK    3  A    between atoms: O_7  and  C_8
REMARK    4  A    between atoms: C_11  and  N_12
REMARK    5  A    between atoms: C_18  and  O_19
REMARK    6  A    between atoms: C_23  and  C_24
REMARK                            x       y       z     vdW  Elec       q    Type
REMARK                         _______ _______ _______ _____ _____    ______ ____
ROOT
ATOM      1  C   UNL     1       2.554   7.135  18.454  0.00  0.00    +0.000 A 
ATOM      2  C   UNL     1       2.178   8.211  17.665  0.00  0.00    +0.000 A 
ATOM      3  C   UNL     1       1.534   9.291  18.272  0.00  0.00    +0.000 A 
ATOM      4  C   UNL     1       1.276   9.264  19.642  0.00  0.00    +0.000 A 
ATOM      5  C   UNL     1       1.659   8.116  20.333  0.00  0.00    +0.000 A 
ATOM      6  N   UNL     1       2.270   7.050  19.773  0.00  0.00    +0.000 NA
ENDROOT
BRANCH   4   7
ATOM      7  N   UNL     1       0.679  10.319  20.365  0.00  0.00    +0.000 N 
ATOM      8  C   UNL     1      -0.269  10.195  21.350  0.00  0.00    +0.000 C 
ATOM      9  O   UNL     1      -0.692   9.124  21.778  0.00  0.00    +0.000 OA
ATOM     10  N   UNL     1      -0.701  11.387  21.895  0.00  0.00    +0.000 N 
ATOM     11  C   UNL     1      -1.547  11.362  23.075  0.00  0.00    +0.000 C 
ATOM     12  C   UNL     1      -1.855  12.815  23.406  0.00  0.00    +0.000 C 
ATOM     13  C   UNL     1      -0.795  13.610  22.650  0.00  0.00    +0.000 C 
ATOM     14  C   UNL     1      -0.515  12.749  21.419  0.00  0.00    +0.000 C 
ATOM     15  H   UNL     1       1.150  11.208  20.319  0.00  0.00    +0.000 HD
BRANCH  13  16
ATOM     16  O   UNL     1      -1.246  14.912  22.323  0.00  0.00    +0.000 OA
ATOM     17  H   UNL     1      -0.526  15.545  22.489  0.00  0.00    +0.000 HD
ENDBRANCH  13  16
ENDBRANCH   4   7
BRANCH   1  18
ATOM     18  O   UNL     1       3.261   6.115  17.829  0.00  0.00    +0.000 OA
BRANCH  18  24
ATOM     19  C   UNL     1       4.616   1.914  20.058  0.00  0.00    +0.000 C 
ATOM     20  C   UNL     1       3.630   2.748  19.283  0.00  0.00    +0.000 A 
ATOM     21  C   UNL     1       2.405   2.172  18.913  0.00  0.00    +0.000 A 
ATOM     22  C   UNL     1       1.457   2.908  18.211  0.00  0.00    +0.000 A 
ATOM     23  C   UNL     1       1.728   4.225  17.860  0.00  0.00    +0.000 A 
ATOM     24  C   UNL     1       2.965   4.809  18.170  0.00  0.00    +0.000 A 
ATOM     25  C   UNL     1       3.915   4.087  18.920  0.00  0.00    +0.000 A 
ATOM     26  C   UNL     1       5.224   4.714  19.326  0.00  0.00    +0.000 C 
ENDBRANCH  18  24
ENDBRANCH   1  18
TORSDOF 4
ENDMDL
MODEL 7
REMARK VINA RESULT:      -7.2      2.675      8.929
REMARK  Name = 
REMARK  6 active torsions:
REMARK  status: ('A' for Active; 'I' for Inactive)
REMARK    1  A    between atoms: C_1  and  C_2
REMARK    2  A    between atoms: C_6  and  O_7
REMARK    3  A    between atoms: O_7  and  C_8
REMARK    4  A    between atoms: C_11  and  N_12
REMARK    5  A    between atoms: C_18  and  O_19
REMARK    6  A    between atoms: C_23  and  C_24
REMARK                            x       y       z     vdW  Elec       q    Type
REMARK                         _______ _______ _______ _____ _____    ______ ____
ROOT
ATOM      1  C   UNL     1       2.416   7.691  18.509  0.00  0.00    +0.000 A 
ATOM      2  C   UNL     1       1.781   8.731  17.848  0.00  0.00    +0.000 A 
ATOM      3  C   UNL     1       0.956   9.584  18.584  0.00  0.00    +0.000 A 
ATOM      4  C   UNL     1       0.782   9.372  19.952  0.00  0.00    +0.000 A 
ATOM      5  C   UNL     1       1.435   8.273  20.507  0.00  0.00    +0.000 A 
ATOM      6  N   UNL     1       2.226   7.422  19.820  0.00  0.00    +0.000 NA
ENDROOT
BRANCH   4   7
ATOM      7  N   UNL     1       0.015  10.200  20.799  0.00  0.00    +0.000 N 
ATOM      8  C   UNL     1       0.374  11.440  21.266  0.00  0.00    +0.000 C 
ATOM      9  O   UNL     1       1.407  12.028  20.956  0.00  0.00    +0.000 OA
ATOM     10  N   UNL     1      -0.552  12.041  22.093  0.00  0.00    +0.000 N 
ATOM     11  C   UNL     1      -0.366  13.429  22.478  0.00  0.00    +0.000 C 
ATOM     12  C   UNL     1      -1.531  13.776  23.392  0.00  0.00    +0.000 C 
ATOM     13  C   UNL     1      -2.565  12.686  23.120  0.00  0.00    +0.000 C 
ATOM     14  C   UNL     1      -1.713  11.470  22.760  0.00  0.00    +0.000 C 
ATOM     15  H   UNL     1      -0.960   9.966  20.881  0.00  0.00    +0.000 HD
BRANCH  13  16
ATOM     16  O   UNL     1      -3.402  12.462  24.241  0.00  0.00    +0.000 OA
ATOM     17  H   UNL     1      -2.845  12.262  25.013  0.00  0.00    +0.000 HD
ENDBRANCH  13  16
ENDBRANCH   4   7
BRANCH   1  18
ATOM     18  O   UNL     1       3.289   6.911  17.760  0.00  0.00    +0.000 OA
BRANCH  18  24
ATOM     19  C   UNL     1       2.422   2.137  18.714  0.00  0.00    +0.000 C 
ATOM     20  C   UNL     1       3.299   3.361  18.750  0.00  0.00    +0.000 A 
ATOM     21  C   UNL     1       4.568   3.262  19.342  0.00  0.00    +0.000 A 
ATOM     22  C   UNL     1       5.419   4.360  19.385  0.00  0.00    +0.000 A 
ATOM     23  C   UNL     1       5.007   5.574  18.847  0.00  0.00    +0.000 A 
ATOM     24  C   UNL     1       3.724   5.715  18.297  0.00  0.00    +0.000 A 
ATOM     25  C   UNL     1       2.870   4.597  18.209  0.00  0.00    +0.000 A 
ATOM     26  C   UNL     1       1.514   4.705  17.561  0.00  0.00    +0.000 C 
ENDBRANCH  18  24
ENDBRANCH   1  18
TORSDOF 4
ENDMDL
MODEL 8
REMARK VINA RESULT:      -7.2      2.490      9.033
REMARK  Name = 
REMARK  6 active torsions:
REMARK  status: ('A' for Active; 'I' for Inactive)
REMARK    1  A    between atoms: C_1  and  C_2
REMARK    2  A    between atoms: C_6  and  O_7
REMARK    3  A    between atoms: O_7  and  C_8
REMARK    4  A    between atoms: C_11  and  N_12
REMARK    5  A    between atoms: C_18  and  O_19
REMARK    6  A    between atoms: C_23  and  C_24
REMARK                            x       y       z     vdW  Elec       q    Type
REMARK                         _______ _______ _______ _____ _____    ______ ____
ROOT
ATOM      1  C   UNL     1       2.550   7.642  18.330  0.00  0.00    +0.000 A 
ATOM      2  C   UNL     1       2.191   7.521  19.663  0.00  0.00    +0.000 A 
ATOM      3  C   UNL     1       1.377   8.506  20.227  0.00  0.00    +0.000 A 
ATOM      4  C   UNL     1       0.953   9.584  19.451  0.00  0.00    +0.000 A 
ATOM      5  C   UNL     1       1.406   9.628  18.134  0.00  0.00    +0.000 A 
ATOM      6  N   UNL     1       2.205   8.700  17.564  0.00  0.00    +0.000 NA
ENDROOT
BRANCH   4   7
ATOM      7  N   UNL     1       0.090  10.606  19.901  0.00  0.00    +0.000 N 
ATOM      8  C   UNL     1       0.418  11.629  20.755  0.00  0.00    +0.000 C 
ATOM      9  O   UNL     1       1.544  11.826  21.205  0.00  0.00    +0.000 OA
ATOM     10  N   UNL     1      -0.615  12.494  21.051  0.00  0.00    +0.000 N 
ATOM     11  C   UNL     1      -0.330  13.718  21.778  0.00  0.00    +0.000 C 
ATOM     12  C   UNL     1      -1.665  14.427  21.955  0.00  0.00    +0.000 C 
ATOM     13  C   UNL     1      -2.580  13.776  20.922  0.00  0.00    +0.000 C 
ATOM     14  C   UNL     1      -2.045  12.348  20.822  0.00  0.00    +0.000 C 
ATOM     15  H   UNL     1      -0.762  10.726  19.379  0.00  0.00    +0.000 HD
BRANCH  13  16
ATOM     16  O   UNL     1      -3.940  13.830  21.315  0.00  0.00    +0.000 OA
ATOM     17  H   UNL     1      -4.307  14.694  21.059  0.00  0.00    +0.000 HD
ENDBRANCH  13  16
ENDBRANCH   4   7
BRANCH   1  18
ATOM     18  O   UNL     1       3.295   6.603  17.784  0.00  0.00    +0.000 OA
BRANCH  18  24
ATOM     19  C   UNL     1       4.483   2.331  19.971  0.00  0.00    +0.000 C 
ATOM     20  C   UNL     1       3.532   3.210  19.203  0.00  0.00    +0.000 A 
ATOM     21  C   UNL     1       2.287   2.685  18.824  0.00  0.00    +0.000 A 
ATOM     22  C   UNL     1       1.370   3.463  18.128  0.00  0.00    +0.000 A 
ATOM     23  C   UNL     1       1.691   4.773  17.792  0.00  0.00    +0.000 A 
ATOM     24  C   UNL     1       2.949   5.306  18.111  0.00  0.00    +0.000 A 
ATOM     25  C   UNL     1       3.869   4.541  18.855  0.00  0.00    +0.000 A 
ATOM     26  C   UNL     1       5.199   5.113  19.271  0.00  0.00    +0.000 C 
ENDBRANCH  18  24
ENDBRANCH   1  18
TORSDOF 4
ENDMDL
MODEL 9
REMARK VINA RESULT:      -7.2      2.137      8.895
REMARK  Name = 
REMARK  6 active torsions:
REMARK  status: ('A' for Active; 'I' for Inactive)
REMARK    1  A    between atoms: C_1  and  C_2
REMARK    2  A    between atoms: C_6  and  O_7
REMARK    3  A    between atoms: O_7  and  C_8
REMARK    4  A    between atoms: C_11  and  N_12
REMARK    5  A    between atoms: C_18  and  O_19
REMARK    6  A    between atoms: C_23  and  C_24
REMARK                            x       y       z     vdW  Elec       q    Type
REMARK                         _______ _______ _______ _____ _____    ______ ____
ROOT
ATOM      1  C   UNL     1       2.622   7.481  18.253  0.00  0.00    +0.000 A 
ATOM      2  C   UNL     1       2.267   7.368  19.588  0.00  0.00    +0.000 A 
ATOM      3  C   UNL     1       1.507   8.388  20.166  0.00  0.00    +0.000 A 
ATOM      4  C   UNL     1       1.132   9.491  19.400  0.00  0.00    +0.000 A 
ATOM      5  C   UNL     1       1.577   9.523  18.080  0.00  0.00    +0.000 A 
ATOM      6  N   UNL     1       2.324   8.561  17.498  0.00  0.00    +0.000 NA
ENDROOT
BRANCH   4   7
ATOM      7  N   UNL     1       0.324  10.551  19.865  0.00  0.00    +0.000 N 
ATOM      8  C   UNL     1      -0.943  10.857  19.434  0.00  0.00    +0.000 C 
ATOM      9  O   UNL     1      -1.575  10.201  18.609  0.00  0.00    +0.000 OA
ATOM     10  N   UNL     1      -1.516  11.955  20.042  0.00  0.00    +0.000 N 
ATOM     11  C   UNL     1      -2.920  12.243  19.809  0.00  0.00    +0.000 C 
ATOM     12  C   UNL     1      -3.229  13.507  20.597  0.00  0.00    +0.000 C 
ATOM     13  C   UNL     1      -2.084  13.621  21.599  0.00  0.00    +0.000 C 
ATOM     14  C   UNL     1      -0.903  12.988  20.863  0.00  0.00    +0.000 C 
ATOM     15  H   UNL     1       0.604  10.971  20.736  0.00  0.00    +0.000 HD
BRANCH  13  16
ATOM     16  O   UNL     1      -1.844  14.965  21.976  0.00  0.00    +0.000 OA
ATOM     17  H   UNL     1      -1.400  14.973  22.842  0.00  0.00    +0.000 HD
ENDBRANCH  13  16
ENDBRANCH   4   7
BRANCH   1  18
ATOM     18  O   UNL     1       3.311   6.411  17.694  0.00  0.00    +0.000 OA
BRANCH  18  24
ATOM     19  C   UNL     1       4.465   2.224  20.058  0.00  0.00    +0.000 C 
ATOM     20  C   UNL     1       3.521   3.078  19.254  0.00  0.00    +0.000 A 
ATOM     21  C   UNL     1       2.271   2.548  18.897  0.00  0.00    +0.000 A 
ATOM     22  C   UNL     1       1.360   3.304  18.169  0.00  0.00    +0.000 A 
ATOM     23  C   UNL     1       1.692   4.596  17.778  0.00  0.00    +0.000 A 
ATOM     24  C   UNL     1       2.954   5.132  18.075  0.00  0.00    +0.000 A 
ATOM     25  C   UNL     1       3.868   4.390  18.850  0.00  0.00    +0.000 A 
ATOM     26  C   UNL     1       5.203   4.969  19.242  0.00  0.00    +0.000 C 
ENDBRANCH  18  24
ENDBRANCH   1  18
TORSDOF 4
ENDMDL
