MODEL 1
REMARK VINA RESULT:      -8.3      0.000      0.000
REMARK  Name = 
REMARK  10 active torsions:
REMARK  status: ('A' for Active; 'I' for Inactive)
REMARK    1  A    between atoms: C_1  and  C_2
REMARK    2  A    between atoms: N_4  and  C_5
REMARK    3  A    between atoms: C_5  and  C_6
REMARK    4  A    between atoms: C_5  and  C_7
REMARK    5  A    between atoms: C_10  and  O_11
REMARK    6  A    between atoms: O_11  and  C_12
REMARK    7  A    between atoms: N_15  and  C_16
REMARK    8  A    between atoms: C_20  and  O_21
REMARK    9  A    between atoms: O_21  and  C_22
REMARK   10  A    between atoms: C_22  and  C_23
REMARK                            x       y       z     vdW  Elec       q    Type
REMARK                         _______ _______ _______ _____ _____    ______ ____
ROOT
ATOM      1  C   UNL     1       2.420   6.748  18.481  0.00  0.00    +0.000 C 
ATOM      2  C   UNL     1       2.084   7.974  17.632  0.00  0.00    +0.000 C 
ATOM      3  C   UNL     1       1.898   9.115  18.626  0.00  0.00    +0.000 C 
ATOM      4  N   UNL     1       1.422   8.470  19.844  0.00  0.00    +0.000 N 
ATOM      5  C   UNL     1       1.746   7.040  19.840  0.00  0.00    +0.000 C 
ENDROOT
BRANCH   4   6
ATOM      6  C   UNL     1       0.827   9.131  20.897  0.00  0.00    +0.000 A 
ATOM      7  C   UNL     1       1.090   8.782  22.230  0.00  0.00    +0.000 A 
ATOM      8  C   UNL     1       0.515   9.499  23.269  0.00  0.00    +0.000 A 
ATOM      9  N   UNL     1      -0.300  10.551  23.092  0.00  0.00    +0.000 NA
ATOM     10  C   UNL     1      -0.569  10.884  21.815  0.00  0.00    +0.000 A 
ATOM     11  C   UNL     1      -0.055  10.204  20.713  0.00  0.00    +0.000 A 
BRANCH  10  12
ATOM     12  O   UNL     1      -1.426  11.941  21.561  0.00  0.00    +0.000 OA
BRANCH  12  13
ATOM     13  C   UNL     1      -1.278  12.441  20.229  0.00  0.00    +0.000 C 
BRANCH  13  14
ATOM     14  C   UNL     1      -2.557  12.197  19.458  0.00  0.00    +0.000 A 
ATOM     15  C   UNL     1      -2.511  11.604  18.185  0.00  0.00    +0.000 A 
ATOM     16  C   UNL     1      -3.687  11.366  17.471  0.00  0.00    +0.000 A 
ATOM     17  C   UNL     1      -4.909  11.724  18.026  0.00  0.00    +0.000 A 
ATOM     18  F   UNL     1      -6.038  11.495  17.342  0.00  0.00    +0.000 F 
ATOM     19  C   UNL     1      -4.977  12.318  19.281  0.00  0.00    +0.000 A 
ATOM     20  C   UNL     1      -3.802  12.559  19.997  0.00  0.00    +0.000 A 
ENDBRANCH  13  14
ENDBRANCH  12  13
ENDBRANCH  10  12
ENDBRANCH   4   6
BRANCH   1  21
ATOM     21  O   UNL     1       3.849   6.631  18.569  0.00  0.00    +0.000 OA
BRANCH  21  25
ATOM     22  C   UNL     1       5.598   4.731  15.255  0.00  0.00    +0.000 A 
ATOM     23  C   UNL     1       4.994   4.011  16.294  0.00  0.00    +0.000 A 
ATOM     24  C   UNL     1       4.435   4.679  17.394  0.00  0.00    +0.000 A 
ATOM     25  C   UNL     1       4.484   6.072  17.487  0.00  0.00    +0.000 A 
ATOM     26  C   UNL     1       5.103   6.793  16.469  0.00  0.00    +0.000 A 
ATOM     27  C   UNL     1       5.653   6.131  15.365  0.00  0.00    +0.000 A 
BRANCH  22  28
ATOM     28  C   UNL     1       6.158   4.024  14.026  0.00  0.00    +0.000 C 
ATOM     29  C   UNL     1       7.378   4.778  13.486  0.00  0.00    +0.000 C 
BRANCH  28  33
ATOM     30  C   UNL     1       3.959   3.043  11.087  0.00  0.00    +0.000 C 
ATOM     31  C   UNL     1       5.183   3.018  11.963  0.00  0.00    +0.000 C 
ATOM     32  O   UNL     1       6.142   2.291  11.735  0.00  0.00    +0.000 OA
ATOM     33  N   UNL     1       5.103   3.892  13.025  0.00  0.00    +0.000 N 
ATOM     34  H   UNL     1       4.179   4.204  13.293  0.00  0.00    +0.000 HD
ENDBRANCH  28  33
ENDBRANCH  22  28
ENDBRANCH  21  25
ENDBRANCH   1  21
TORSDOF 8
ENDMDL
MODEL 2
REMARK VINA RESULT:      -8.3      1.129      1.608
REMARK  Name = 
REMARK  10 active torsions:
REMARK  status: ('A' for Active; 'I' for Inactive)
REMARK    1  A    between atoms: C_1  and  C_2
REMARK    2  A    between atoms: N_4  and  C_5
REMARK    3  A    between atoms: C_5  and  C_6
REMARK    4  A    between atoms: C_5  and  C_7
REMARK    5  A    between atoms: C_10  and  O_11
REMARK    6  A    between atoms: O_11  and  C_12
REMARK    7  A    between atoms: N_15  and  C_16
REMARK    8  A    between atoms: C_20  and  O_21
REMARK    9  A    between atoms: O_21  and  C_22
REMARK   10  A    between atoms: C_22  and  C_23
REMARK                            x       y       z     vdW  Elec       q    Type
REMARK                         _______ _______ _______ _____ _____    ______ ____
ROOT
ATOM      1  C   UNL     1       2.509   6.302  18.983  0.00  0.00    +0.000 C 
ATOM      2  C   UNL     1       2.191   7.370  17.936  0.00  0.00    +0.000 C 
ATOM      3  C   UNL     1       1.989   8.660  18.723  0.00  0.00    +0.000 C 
ATOM      4  N   UNL     1       1.492   8.225  20.023  0.00  0.00    +0.000 N 
ATOM      5  C   UNL     1       1.812   6.815  20.263  0.00  0.00    +0.000 C 
ENDROOT
BRANCH   4   6
ATOM      6  C   UNL     1       0.880   9.051  20.942  0.00  0.00    +0.000 A 
ATOM      7  C   UNL     1       0.808   8.717  22.302  0.00  0.00    +0.000 A 
ATOM      8  C   UNL     1       0.231   9.593  23.210  0.00  0.00    +0.000 A 
ATOM      9  N   UNL     1      -0.277  10.790  22.876  0.00  0.00    +0.000 NA
ATOM     10  C   UNL     1      -0.226  11.113  21.570  0.00  0.00    +0.000 A 
ATOM     11  C   UNL     1       0.313  10.284  20.589  0.00  0.00    +0.000 A 
BRANCH  10  12
ATOM     12  O   UNL     1      -0.759  12.320  21.153  0.00  0.00    +0.000 OA
BRANCH  12  13
ATOM     13  C   UNL     1      -1.653  12.874  22.122  0.00  0.00    +0.000 C 
BRANCH  13  14
ATOM     14  C   UNL     1      -3.072  12.785  21.602  0.00  0.00    +0.000 A 
ATOM     15  C   UNL     1      -4.156  12.867  22.493  0.00  0.00    +0.000 A 
ATOM     16  C   UNL     1      -5.468  12.799  22.020  0.00  0.00    +0.000 A 
ATOM     17  C   UNL     1      -5.698  12.642  20.660  0.00  0.00    +0.000 A 
ATOM     18  F   UNL     1      -6.957  12.576  20.206  0.00  0.00    +0.000 F 
ATOM     19  C   UNL     1      -4.641  12.551  19.762  0.00  0.00    +0.000 A 
ATOM     20  C   UNL     1      -3.327  12.619  20.232  0.00  0.00    +0.000 A 
ENDBRANCH  13  14
ENDBRANCH  12  13
ENDBRANCH  10  12
ENDBRANCH   4   6
BRANCH   1  21
ATOM     21  O   UNL     1       3.936   6.203  19.114  0.00  0.00    +0.000 OA
BRANCH  21  25
ATOM     22  C   UNL     1       5.791   4.689  15.661  0.00  0.00    +0.000 A 
ATOM     23  C   UNL     1       4.742   4.015  16.299  0.00  0.00    +0.000 A 
ATOM     24  C   UNL     1       4.158   4.542  17.462  0.00  0.00    +0.000 A 
ATOM     25  C   UNL     1       4.619   5.739  18.016  0.00  0.00    +0.000 A 
ATOM     26  C   UNL     1       5.678   6.403  17.400  0.00  0.00    +0.000 A 
ATOM     27  C   UNL     1       6.256   5.885  16.235  0.00  0.00    +0.000 A 
BRANCH  22  28
ATOM     28  C   UNL     1       6.398   4.160  14.366  0.00  0.00    +0.000 C 
ATOM     29  C   UNL     1       7.500   5.102  13.869  0.00  0.00    +0.000 C 
BRANCH  28  33
ATOM     30  C   UNL     1       4.266   3.192  11.374  0.00  0.00    +0.000 C 
ATOM     31  C   UNL     1       5.511   3.258  12.217  0.00  0.00    +0.000 C 
ATOM     32  O   UNL     1       6.562   2.723  11.884  0.00  0.00    +0.000 OA
ATOM     33  N   UNL     1       5.339   3.981  13.377  0.00  0.00    +0.000 N 
ATOM     34  H   UNL     1       4.388   4.108  13.699  0.00  0.00    +0.000 HD
ENDBRANCH  28  33
ENDBRANCH  22  28
ENDBRANCH  21  25
ENDBRANCH   1  21
TORSDOF 8
ENDMDL
MODEL 3
REMARK VINA RESULT:      -8.2      2.723      3.391
REMARK  Name = 
REMARK  10 active torsions:
REMARK  status: ('A' for Active; 'I' for Inactive)
REMARK    1  A    between atoms: C_1  and  C_2
REMARK    2  A    between atoms: N_4  and  C_5
REMARK    3  A    between atoms: C_5  and  C_6
REMARK    4  A    between atoms: C_5  and  C_7
REMARK    5  A    between atoms: C_10  and  O_11
REMARK    6  A    between atoms: O_11  and  C_12
REMARK    7  A    between atoms: N_15  and  C_16
REMARK    8  A    between atoms: C_20  and  O_21
REMARK    9  A    between atoms: O_21  and  C_22
REMARK   10  A    between atoms: C_22  and  C_23
REMARK                            x       y       z     vdW  Elec       q    Type
REMARK                         _______ _______ _______ _____ _____    ______ ____
ROOT
ATOM      1  C   UNL     1       2.783   5.727  19.186  0.00  0.00    +0.000 C 
ATOM      2  C   UNL     1       2.397   6.557  17.961  0.00  0.00    +0.000 C 
ATOM      3  C   UNL     1       2.214   7.979  18.478  0.00  0.00    +0.000 C 
ATOM      4  N   UNL     1       1.787   7.817  19.863  0.00  0.00    +0.000 N 
ATOM      5  C   UNL     1       2.142   6.488  20.369  0.00  0.00    +0.000 C 
ENDROOT
BRANCH   4   6
ATOM      6  C   UNL     1       1.208   8.810  20.624  0.00  0.00    +0.000 A 
ATOM      7  C   UNL     1       1.187   8.749  22.025  0.00  0.00    +0.000 A 
ATOM      8  C   UNL     1       0.642   9.789  22.764  0.00  0.00    +0.000 A 
ATOM      9  N   UNL     1       0.120  10.900  22.222  0.00  0.00    +0.000 NA
ATOM     10  C   UNL     1       0.123  10.961  20.876  0.00  0.00    +0.000 A 
ATOM     11  C   UNL     1       0.626   9.953  20.057  0.00  0.00    +0.000 A 
BRANCH  10  12
ATOM     12  O   UNL     1      -0.428  12.066  20.251  0.00  0.00    +0.000 OA
BRANCH  12  13
ATOM     13  C   UNL     1       0.010  12.186  18.895  0.00  0.00    +0.000 C 
BRANCH  13  14
ATOM     14  C   UNL     1       0.885  13.414  18.758  0.00  0.00    +0.000 A 
ATOM     15  C   UNL     1       2.232  13.282  18.378  0.00  0.00    +0.000 A 
ATOM     16  C   UNL     1       3.042  14.409  18.239  0.00  0.00    +0.000 A 
ATOM     17  C   UNL     1       2.511  15.669  18.484  0.00  0.00    +0.000 A 
ATOM     18  F   UNL     1       3.289  16.752  18.350  0.00  0.00    +0.000 F 
ATOM     19  C   UNL     1       1.184  15.822  18.869  0.00  0.00    +0.000 A 
ATOM     20  C   UNL     1       0.370  14.695  19.010  0.00  0.00    +0.000 A 
ENDBRANCH  13  14
ENDBRANCH  12  13
ENDBRANCH  10  12
ENDBRANCH   4   6
BRANCH   1  21
ATOM     21  O   UNL     1       4.217   5.665  19.261  0.00  0.00    +0.000 OA
BRANCH  21  25
ATOM     22  C   UNL     1       6.004   4.524  15.634  0.00  0.00    +0.000 A 
ATOM     23  C   UNL     1       5.102   3.695  16.313  0.00  0.00    +0.000 A 
ATOM     24  C   UNL     1       4.539   4.102  17.533  0.00  0.00    +0.000 A 
ATOM     25  C   UNL     1       4.875   5.332  18.102  0.00  0.00    +0.000 A 
ATOM     26  C   UNL     1       5.788   6.152  17.443  0.00  0.00    +0.000 A 
ATOM     27  C   UNL     1       6.345   5.753  16.223  0.00  0.00    +0.000 A 
BRANCH  22  28
ATOM     28  C   UNL     1       6.581   4.122  14.281  0.00  0.00    +0.000 C 
ATOM     29  C   UNL     1       7.594   5.167  13.801  0.00  0.00    +0.000 C 
BRANCH  28  33
ATOM     30  C   UNL     1       4.358   3.146  11.359  0.00  0.00    +0.000 C 
ATOM     31  C   UNL     1       5.632   3.226  12.156  0.00  0.00    +0.000 C 
ATOM     32  O   UNL     1       6.679   2.712  11.780  0.00  0.00    +0.000 OA
ATOM     33  N   UNL     1       5.489   3.934  13.330  0.00  0.00    +0.000 N 
ATOM     34  H   UNL     1       4.549   4.042  13.687  0.00  0.00    +0.000 HD
ENDBRANCH  28  33
ENDBRANCH  22  28
ENDBRANCH  21  25
ENDBRANCH   1  21
TORSDOF 8
ENDMDL
MODEL 4
REMARK VINA RESULT:      -8.2      4.005     11.876
REMARK  Name = 
REMARK  10 active torsions:
REMARK  status: ('A' for Active; 'I' for Inactive)
REMARK    1  A    between atoms: C_1  and  C_2
REMARK    2  A    between atoms: N_4  and  C_5
REMARK    3  A    between atoms: C_5  and  C_6
REMARK    4  A    between atoms: C_5  and  C_7
REMARK    5  A    between atoms: C_10  and  O_11
REMARK    6  A    between atoms: O_11  and  C_12
REMARK    7  A    between atoms: N_15  and  C_16
REMARK    8  A    between atoms: C_20  and  O_21
REMARK    9  A    between atoms: O_21  and  C_22
REMARK   10  A    between atoms: C_22  and  C_23
REMARK                            x       y       z     vdW  Elec       q    Type
REMARK                         _______ _______ _______ _____ _____    ______ ____
ROOT
ATOM      1  C   UNL     1       0.779  10.692  19.982  0.00  0.00    +0.000 C 
ATOM      2  C   UNL     1       1.391  10.803  18.585  0.00  0.00    +0.000 C 
ATOM      3  C   UNL     1       1.490   9.371  18.073  0.00  0.00    +0.000 C 
ATOM      4  N   UNL     1       1.655   8.560  19.273  0.00  0.00    +0.000 N 
ATOM      5  C   UNL     1       1.200   9.285  20.463  0.00  0.00    +0.000 C 
ENDROOT
BRANCH   4   6
ATOM      6  C   UNL     1       2.095   7.253  19.279  0.00  0.00    +0.000 A 
ATOM      7  C   UNL     1       1.944   6.429  20.405  0.00  0.00    +0.000 A 
ATOM      8  C   UNL     1       2.351   5.103  20.362  0.00  0.00    +0.000 A 
ATOM      9  N   UNL     1       2.891   4.520  19.280  0.00  0.00    +0.000 NA
ATOM     10  C   UNL     1       3.053   5.307  18.200  0.00  0.00    +0.000 A 
ATOM     11  C   UNL     1       2.695   6.653  18.164  0.00  0.00    +0.000 A 
BRANCH  10  12
ATOM     12  O   UNL     1       3.631   4.777  17.060  0.00  0.00    +0.000 OA
BRANCH  12  13
ATOM     13  C   UNL     1       4.853   4.092  17.349  0.00  0.00    +0.000 C 
BRANCH  13  14
ATOM     14  C   UNL     1       5.915   5.101  17.728  0.00  0.00    +0.000 A 
ATOM     15  C   UNL     1       6.621   4.962  18.935  0.00  0.00    +0.000 A 
ATOM     16  C   UNL     1       7.611   5.881  19.287  0.00  0.00    +0.000 A 
ATOM     17  C   UNL     1       7.893   6.943  18.438  0.00  0.00    +0.000 A 
ATOM     18  F   UNL     1       8.843   7.826  18.775  0.00  0.00    +0.000 F 
ATOM     19  C   UNL     1       7.201   7.104  17.242  0.00  0.00    +0.000 A 
ATOM     20  C   UNL     1       6.210   6.185  16.888  0.00  0.00    +0.000 A 
ENDBRANCH  13  14
ENDBRANCH  12  13
ENDBRANCH  10  12
ENDBRANCH   4   6
BRANCH   1  21
ATOM     21  O   UNL     1      -0.644  10.851  19.870  0.00  0.00    +0.000 OA
BRANCH  21  25
ATOM     22  C   UNL     1      -2.799  12.752  22.935  0.00  0.00    +0.000 A 
ATOM     23  C   UNL     1      -3.171  12.856  21.588  0.00  0.00    +0.000 A 
ATOM     24  C   UNL     1      -2.416  12.222  20.589  0.00  0.00    +0.000 A 
ATOM     25  C   UNL     1      -1.272  11.488  20.912  0.00  0.00    +0.000 A 
ATOM     26  C   UNL     1      -0.884  11.400  22.247  0.00  0.00    +0.000 A 
ATOM     27  C   UNL     1      -1.639  12.023  23.247  0.00  0.00    +0.000 A 
BRANCH  22  28
ATOM     28  C   UNL     1      -3.641  13.386  24.037  0.00  0.00    +0.000 C 
ATOM     29  C   UNL     1      -4.561  12.339  24.675  0.00  0.00    +0.000 C 
BRANCH  28  33
ATOM     30  C   UNL     1      -5.198  16.768  23.284  0.00  0.00    +0.000 C 
ATOM     31  C   UNL     1      -4.378  15.768  24.054  0.00  0.00    +0.000 C 
ATOM     32  O   UNL     1      -3.778  16.059  25.081  0.00  0.00    +0.000 OA
ATOM     33  N   UNL     1      -4.386  14.513  23.485  0.00  0.00    +0.000 N 
ATOM     34  H   UNL     1      -4.642  14.456  22.508  0.00  0.00    +0.000 HD
ENDBRANCH  28  33
ENDBRANCH  22  28
ENDBRANCH  21  25
ENDBRANCH   1  21
TORSDOF 8
ENDMDL
MODEL 5
REMARK VINA RESULT:      -8.0      2.898      4.951
REMARK  Name = 
REMARK  10 active torsions:
REMARK  status: ('A' for Active; 'I' for Inactive)
REMARK    1  A    between atoms: C_1  and  C_2
REMARK    2  A    between atoms: N_4  and  C_5
REMARK    3  A    between atoms: C_5  and  C_6
REMARK    4  A    between atoms: C_5  and  C_7
REMARK    5  A    between atoms: C_10  and  O_11
REMARK    6  A    between atoms: O_11  and  C_12
REMARK    7  A    between atoms: N_15  and  C_16
REMARK    8  A    between atoms: C_20  and  O_21
REMARK    9  A    between atoms: O_21  and  C_22
REMARK   10  A    between atoms: C_22  and  C_23
REMARK                            x       y       z     vdW  Elec       q    Type
REMARK                         _______ _______ _______ _____ _____    ______ ____
ROOT
ATOM      1  C   UNL     1       6.875   6.488  16.384  0.00  0.00    +0.000 C 
ATOM      2  C   UNL     1       7.301   6.682  17.839  0.00  0.00    +0.000 C 
ATOM      3  C   UNL     1       6.347   5.819  18.657  0.00  0.00    +0.000 C 
ATOM      4  N   UNL     1       5.116   5.788  17.877  0.00  0.00    +0.000 N 
ATOM      5  C   UNL     1       5.373   6.140  16.478  0.00  0.00    +0.000 C 
ENDROOT
BRANCH   4   6
ATOM      6  C   UNL     1       3.890   5.393  18.367  0.00  0.00    +0.000 A 
ATOM      7  C   UNL     1       3.266   4.213  17.934  0.00  0.00    +0.000 A 
ATOM      8  C   UNL     1       2.056   3.816  18.484  0.00  0.00    +0.000 A 
ATOM      9  N   UNL     1       1.412   4.496  19.446  0.00  0.00    +0.000 NA
ATOM     10  C   UNL     1       1.996   5.638  19.858  0.00  0.00    +0.000 A 
ATOM     11  C   UNL     1       3.196   6.122  19.343  0.00  0.00    +0.000 A 
BRANCH  10  12
ATOM     12  O   UNL     1       1.370   6.403  20.826  0.00  0.00    +0.000 OA
BRANCH  12  13
ATOM     13  C   UNL     1       1.956   7.702  20.943  0.00  0.00    +0.000 C 
BRANCH  13  14
ATOM     14  C   UNL     1       1.106   8.705  20.194  0.00  0.00    +0.000 A 
ATOM     15  C   UNL     1       0.005   9.308  20.826  0.00  0.00    +0.000 A 
ATOM     16  C   UNL     1      -0.778  10.243  20.146  0.00  0.00    +0.000 A 
ATOM     17  C   UNL     1      -0.466  10.572  18.834  0.00  0.00    +0.000 A 
ATOM     18  F   UNL     1      -1.217  11.469  18.181  0.00  0.00    +0.000 F 
ATOM     19  C   UNL     1       0.614   9.982  18.187  0.00  0.00    +0.000 A 
ATOM     20  C   UNL     1       1.399   9.046  18.864  0.00  0.00    +0.000 A 
ENDBRANCH  13  14
ENDBRANCH  12  13
ENDBRANCH  10  12
ENDBRANCH   4   6
BRANCH   1  21
ATOM     21  O   UNL     1       7.668   5.434  15.814  0.00  0.00    +0.000 OA
BRANCH  21  25
ATOM     22  C   UNL     1       5.916   3.663  12.430  0.00  0.00    +0.000 A 
ATOM     23  C   UNL     1       5.444   3.421  13.727  0.00  0.00    +0.000 A 
ATOM     24  C   UNL     1       6.066   4.016  14.836  0.00  0.00    +0.000 A 
ATOM     25  C   UNL     1       7.176   4.848  14.673  0.00  0.00    +0.000 A 
ATOM     26  C   UNL     1       7.665   5.075  13.389  0.00  0.00    +0.000 A 
ATOM     27  C   UNL     1       7.041   4.491  12.280  0.00  0.00    +0.000 A 
BRANCH  22  28
ATOM     28  C   UNL     1       5.216   3.071  11.212  0.00  0.00    +0.000 C 
ATOM     29  C   UNL     1       3.793   3.628  11.091  0.00  0.00    +0.000 C 
BRANCH  28  33
ATOM     30  C   UNL     1       6.146  -0.611  11.333  0.00  0.00    +0.000 C 
ATOM     31  C   UNL     1       6.380   0.866  11.158  0.00  0.00    +0.000 C 
ATOM     32  O   UNL     1       7.483   1.333  10.903  0.00  0.00    +0.000 OA
ATOM     33  N   UNL     1       5.232   1.614  11.309  0.00  0.00    +0.000 N 
ATOM     34  H   UNL     1       4.467   1.182  11.810  0.00  0.00    +0.000 HD
ENDBRANCH  28  33
ENDBRANCH  22  28
ENDBRANCH  21  25
ENDBRANCH   1  21
TORSDOF 8
ENDMDL
MODEL 6
REMARK VINA RESULT:      -8.0      3.038      4.090
REMARK  Name = 
REMARK  10 active torsions:
REMARK  status: ('A' for Active; 'I' for Inactive)
REMARK    1  A    between atoms: C_1  and  C_2
REMARK    2  A    between atoms: N_4  and  C_5
REMARK    3  A    between atoms: C_5  and  C_6
REMARK    4  A    between atoms: C_5  and  C_7
REMARK    5  A    between atoms: C_10  and  O_11
REMARK    6  A    between atoms: O_11  and  C_12
REMARK    7  A    between atoms: N_15  and  C_16
REMARK    8  A    between atoms: C_20  and  O_21
REMARK    9  A    between atoms: O_21  and  C_22
REMARK   10  A    between atoms: C_22  and  C_23
REMARK                            x       y       z     vdW  Elec       q    Type
REMARK                         _______ _______ _______ _____ _____    ______ ____
ROOT
ATOM      1  C   UNL     1       2.747   3.185  21.081  0.00  0.00    +0.000 C 
ATOM      2  C   UNL     1       1.231   3.104  20.902  0.00  0.00    +0.000 C 
ATOM      3  C   UNL     1       0.864   4.297  20.027  0.00  0.00    +0.000 C 
ATOM      4  N   UNL     1       1.873   5.304  20.332  0.00  0.00    +0.000 N 
ATOM      5  C   UNL     1       3.061   4.690  20.934  0.00  0.00    +0.000 C 
ENDROOT
BRANCH   4   6
ATOM      6  C   UNL     1       1.764   6.641  20.017  0.00  0.00    +0.000 A 
ATOM      7  C   UNL     1       2.199   7.147  18.783  0.00  0.00    +0.000 A 
ATOM      8  C   UNL     1       2.028   8.489  18.476  0.00  0.00    +0.000 A 
ATOM      9  N   UNL     1       1.446   9.377  19.297  0.00  0.00    +0.000 NA
ATOM     10  C   UNL     1       1.038   8.904  20.489  0.00  0.00    +0.000 A 
ATOM     11  C   UNL     1       1.192   7.578  20.889  0.00  0.00    +0.000 A 
BRANCH  10  12
ATOM     12  O   UNL     1       0.456   9.772  21.396  0.00  0.00    +0.000 OA
BRANCH  12  13
ATOM     13  C   UNL     1       0.569  11.136  20.979  0.00  0.00    +0.000 C 
BRANCH  13  14
ATOM     14  C   UNL     1      -0.322  12.000  21.845  0.00  0.00    +0.000 A 
ATOM     15  C   UNL     1      -1.392  11.424  22.552  0.00  0.00    +0.000 A 
ATOM     16  C   UNL     1      -2.211  12.211  23.362  0.00  0.00    +0.000 A 
ATOM     17  C   UNL     1      -1.968  13.575  23.462  0.00  0.00    +0.000 A 
ATOM     18  F   UNL     1      -2.754  14.332  24.240  0.00  0.00    +0.000 F 
ATOM     19  C   UNL     1      -0.920  14.167  22.766  0.00  0.00    +0.000 A 
ATOM     20  C   UNL     1      -0.099  13.381  21.954  0.00  0.00    +0.000 A 
ENDBRANCH  13  14
ENDBRANCH  12  13
ENDBRANCH  10  12
ENDBRANCH   4   6
BRANCH   1  21
ATOM     21  O   UNL     1       3.369   2.373  20.072  0.00  0.00    +0.000 OA
BRANCH  21  25
ATOM     22  C   UNL     1       5.217   4.510  16.962  0.00  0.00    +0.000 A 
ATOM     23  C   UNL     1       3.984   3.867  16.794  0.00  0.00    +0.000 A 
ATOM     24  C   UNL     1       3.405   3.146  17.850  0.00  0.00    +0.000 A 
ATOM     25  C   UNL     1       4.051   3.042  19.085  0.00  0.00    +0.000 A 
ATOM     26  C   UNL     1       5.288   3.660  19.253  0.00  0.00    +0.000 A 
ATOM     27  C   UNL     1       5.864   4.387  18.204  0.00  0.00    +0.000 A 
BRANCH  22  28
ATOM     28  C   UNL     1       5.832   5.345  15.844  0.00  0.00    +0.000 C 
ATOM     29  C   UNL     1       5.088   6.678  15.702  0.00  0.00    +0.000 C 
BRANCH  28  33
ATOM     30  C   UNL     1       6.605   3.726  12.495  0.00  0.00    +0.000 C 
ATOM     31  C   UNL     1       6.830   4.638  13.671  0.00  0.00    +0.000 C 
ATOM     32  O   UNL     1       7.815   5.361  13.766  0.00  0.00    +0.000 OA
ATOM     33  N   UNL     1       5.820   4.572  14.605  0.00  0.00    +0.000 N 
ATOM     34  H   UNL     1       5.234   3.747  14.588  0.00  0.00    +0.000 HD
ENDBRANCH  28  33
ENDBRANCH  22  28
ENDBRANCH  21  25
ENDBRANCH   1  21
TORSDOF 8
ENDMDL
MODEL 7
REMARK VINA RESULT:      -7.9      2.803      4.360
REMARK  Name = 
REMARK  10 active torsions:
REMARK  status: ('A' for Active; 'I' for Inactive)
REMARK    1  A    between atoms: C_1  and  C_2
REMARK    2  A    between atoms: N_4  and  C_5
REMARK    3  A    between atoms: C_5  and  C_6
REMARK    4  A    between atoms: C_5  and  C_7
REMARK    5  A    between atoms: C_10  and  O_11
REMARK    6  A    between atoms: O_11  and  C_12
REMARK    7  A    between atoms: N_15  and  C_16
REMARK    8  A    between atoms: C_20  and  O_21
REMARK    9  A    between atoms: O_21  and  C_22
REMARK   10  A    between atoms: C_22  and  C_23
REMARK                            x       y       z     vdW  Elec       q    Type
REMARK                         _______ _______ _______ _____ _____    ______ ____
ROOT
ATOM      1  C   UNL     1       2.724   2.922  20.879  0.00  0.00    +0.000 C 
ATOM      2  C   UNL     1       1.219   2.881  20.610  0.00  0.00    +0.000 C 
ATOM      3  C   UNL     1       0.922   4.129  19.786  0.00  0.00    +0.000 C 
ATOM      4  N   UNL     1       1.928   5.097  20.205  0.00  0.00    +0.000 N 
ATOM      5  C   UNL     1       3.069   4.428  20.837  0.00  0.00    +0.000 C 
ENDROOT
BRANCH   4   6
ATOM      6  C   UNL     1       1.858   6.452  19.962  0.00  0.00    +0.000 A 
ATOM      7  C   UNL     1       2.258   7.003  18.735  0.00  0.00    +0.000 A 
ATOM      8  C   UNL     1       2.127   8.365  18.503  0.00  0.00    +0.000 A 
ATOM      9  N   UNL     1       1.618   9.231  19.393  0.00  0.00    +0.000 NA
ATOM     10  C   UNL     1       1.244   8.713  20.578  0.00  0.00    +0.000 A 
ATOM     11  C   UNL     1       1.363   7.364  20.905  0.00  0.00    +0.000 A 
BRANCH  10  12
ATOM     12  O   UNL     1       0.739   9.555  21.552  0.00  0.00    +0.000 OA
BRANCH  12  13
ATOM     13  C   UNL     1       0.635  10.905  21.092  0.00  0.00    +0.000 C 
BRANCH  13  14
ATOM     14  C   UNL     1      -0.703  11.476  21.508  0.00  0.00    +0.000 A 
ATOM     15  C   UNL     1      -1.538  12.084  20.554  0.00  0.00    +0.000 A 
ATOM     16  C   UNL     1      -2.779  12.602  20.927  0.00  0.00    +0.000 A 
ATOM     17  C   UNL     1      -3.186  12.519  22.253  0.00  0.00    +0.000 A 
ATOM     18  F   UNL     1      -4.377  13.016  22.611  0.00  0.00    +0.000 F 
ATOM     19  C   UNL     1      -2.373  11.929  23.214  0.00  0.00    +0.000 A 
ATOM     20  C   UNL     1      -1.130  11.409  22.843  0.00  0.00    +0.000 A 
ENDBRANCH  13  14
ENDBRANCH  12  13
ENDBRANCH  10  12
ENDBRANCH   4   6
BRANCH   1  21
ATOM     21  O   UNL     1       3.390   2.158  19.861  0.00  0.00    +0.000 OA
BRANCH  21  25
ATOM     22  C   UNL     1       5.382   4.405  16.923  0.00  0.00    +0.000 A 
ATOM     23  C   UNL     1       4.239   3.648  16.635  0.00  0.00    +0.000 A 
ATOM     24  C   UNL     1       3.610   2.894  17.638  0.00  0.00    +0.000 A 
ATOM     25  C   UNL     1       4.117   2.870  18.940  0.00  0.00    +0.000 A 
ATOM     26  C   UNL     1       5.267   3.602  19.228  0.00  0.00    +0.000 A 
ATOM     27  C   UNL     1       5.891   4.362  18.232  0.00  0.00    +0.000 A 
BRANCH  22  28
ATOM     28  C   UNL     1       6.043   5.273  15.859  0.00  0.00    +0.000 C 
ATOM     29  C   UNL     1       6.619   4.399  14.739  0.00  0.00    +0.000 C 
BRANCH  28  33
ATOM     30  C   UNL     1       7.981   7.941  17.745  0.00  0.00    +0.000 C 
ATOM     31  C   UNL     1       6.765   7.273  17.162  0.00  0.00    +0.000 C 
ATOM     32  O   UNL     1       5.637   7.735  17.282  0.00  0.00    +0.000 OA
ATOM     33  N   UNL     1       7.062   6.110  16.485  0.00  0.00    +0.000 N 
ATOM     34  H   UNL     1       7.945   5.667  16.704  0.00  0.00    +0.000 HD
ENDBRANCH  28  33
ENDBRANCH  22  28
ENDBRANCH  21  25
ENDBRANCH   1  21
TORSDOF 8
ENDMDL
MODEL 8
REMARK VINA RESULT:      -7.8      5.700      8.472
REMARK  Name = 
REMARK  10 active torsions:
REMARK  status: ('A' for Active; 'I' for Inactive)
REMARK    1  A    between atoms: C_1  and  C_2
REMARK    2  A    between atoms: N_4  and  C_5
REMARK    3  A    between atoms: C_5  and  C_6
REMARK    4  A    between atoms: C_5  and  C_7
REMARK    5  A    between atoms: C_10  and  O_11
REMARK    6  A    between atoms: O_11  and  C_12
REMARK    7  A    between atoms: N_15  and  C_16
REMARK    8  A    between atoms: C_20  and  O_21
REMARK    9  A    between atoms: O_21  and  C_22
REMARK   10  A    between atoms: C_22  and  C_23
REMARK                            x       y       z     vdW  Elec       q    Type
REMARK                         _______ _______ _______ _____ _____    ______ ____
ROOT
ATOM      1  C   UNL     1       0.538  11.805  20.617  0.00  0.00    +0.000 C 
ATOM      2  C   UNL     1      -0.497  12.898  20.884  0.00  0.00    +0.000 C 
ATOM      3  C   UNL     1      -0.220  13.978  19.844  0.00  0.00    +0.000 C 
ATOM      4  N   UNL     1       1.208  13.872  19.572  0.00  0.00    +0.000 N 
ATOM      5  C   UNL     1       1.723  12.561  19.976  0.00  0.00    +0.000 C 
ENDROOT
BRANCH   4   6
ATOM      6  C   UNL     1       1.957  14.841  18.939  0.00  0.00    +0.000 A 
ATOM      7  C   UNL     1       1.461  16.135  18.725  0.00  0.00    +0.000 A 
ATOM      8  C   UNL     1       2.258  17.102  18.130  0.00  0.00    +0.000 A 
ATOM      9  N   UNL     1       3.523  16.891  17.735  0.00  0.00    +0.000 NA
ATOM     10  C   UNL     1       4.003  15.647  17.923  0.00  0.00    +0.000 A 
ATOM     11  C   UNL     1       3.265  14.610  18.489  0.00  0.00    +0.000 A 
BRANCH  10  12
ATOM     12  O   UNL     1       5.291  15.352  17.511  0.00  0.00    +0.000 OA
BRANCH  12  13
ATOM     13  C   UNL     1       6.249  15.577  18.548  0.00  0.00    +0.000 C 
BRANCH  13  14
ATOM     14  C   UNL     1       7.306  14.495  18.498  0.00  0.00    +0.000 A 
ATOM     15  C   UNL     1       8.279  14.412  19.509  0.00  0.00    +0.000 A 
ATOM     16  C   UNL     1       9.250  13.409  19.477  0.00  0.00    +0.000 A 
ATOM     17  C   UNL     1       9.254  12.493  18.433  0.00  0.00    +0.000 A 
ATOM     18  F   UNL     1      10.185  11.531  18.401  0.00  0.00    +0.000 F 
ATOM     19  C   UNL     1       8.305  12.562  17.418  0.00  0.00    +0.000 A 
ATOM     20  C   UNL     1       7.332  13.564  17.448  0.00  0.00    +0.000 A 
ENDBRANCH  13  14
ENDBRANCH  12  13
ENDBRANCH  10  12
ENDBRANCH   4   6
BRANCH   1  21
ATOM     21  O   UNL     1      -0.050  10.826  19.745  0.00  0.00    +0.000 OA
BRANCH  21  25
ATOM     22  C   UNL     1       2.402   7.558  18.763  0.00  0.00    +0.000 A 
ATOM     23  C   UNL     1       1.979   8.487  17.804  0.00  0.00    +0.000 A 
ATOM     24  C   UNL     1       1.144   9.556  18.165  0.00  0.00    +0.000 A 
ATOM     25  C   UNL     1       0.706   9.709  19.482  0.00  0.00    +0.000 A 
ATOM     26  C   UNL     1       1.105   8.777  20.438  0.00  0.00    +0.000 A 
ATOM     27  C   UNL     1       1.944   7.715  20.082  0.00  0.00    +0.000 A 
BRANCH  22  28
ATOM     28  C   UNL     1       3.355   6.424  18.399  0.00  0.00    +0.000 C 
ATOM     29  C   UNL     1       4.297   6.861  17.271  0.00  0.00    +0.000 C 
BRANCH  28  33
ATOM     30  C   UNL     1       1.780   2.975  18.167  0.00  0.00    +0.000 C 
ATOM     31  C   UNL     1       2.709   4.034  18.696  0.00  0.00    +0.000 C 
ATOM     32  O   UNL     1       3.497   3.824  19.611  0.00  0.00    +0.000 OA
ATOM     33  N   UNL     1       2.579   5.240  18.043  0.00  0.00    +0.000 N 
ATOM     34  H   UNL     1       1.716   5.395  17.537  0.00  0.00    +0.000 HD
ENDBRANCH  28  33
ENDBRANCH  22  28
ENDBRANCH  21  25
ENDBRANCH   1  21
TORSDOF 8
ENDMDL
MODEL 9
REMARK VINA RESULT:      -7.8      3.848     11.277
REMARK  Name = 
REMARK  10 active torsions:
REMARK  status: ('A' for Active; 'I' for Inactive)
REMARK    1  A    between atoms: C_1  and  C_2
REMARK    2  A    between atoms: N_4  and  C_5
REMARK    3  A    between atoms: C_5  and  C_6
REMARK    4  A    between atoms: C_5  and  C_7
REMARK    5  A    between atoms: C_10  and  O_11
REMARK    6  A    between atoms: O_11  and  C_12
REMARK    7  A    between atoms: N_15  and  C_16
REMARK    8  A    between atoms: C_20  and  O_21
REMARK    9  A    between atoms: O_21  and  C_22
REMARK   10  A    between atoms: C_22  and  C_23
REMARK                            x       y       z     vdW  Elec       q    Type
REMARK                         _______ _______ _______ _____ _____    ______ ____
ROOT
ATOM      1  C   UNL     1       1.103   9.915  19.266  0.00  0.00    +0.000 C 
ATOM      2  C   UNL     1       2.054   9.766  18.079  0.00  0.00    +0.000 C 
ATOM      3  C   UNL     1       2.231   8.264  17.889  0.00  0.00    +0.000 C 
ATOM      4  N   UNL     1       2.056   7.700  19.222  0.00  0.00    +0.000 N 
ATOM      5  C   UNL     1       1.339   8.633  20.096  0.00  0.00    +0.000 C 
ENDROOT
BRANCH   4   6
ATOM      6  C   UNL     1       2.434   6.426  19.587  0.00  0.00    +0.000 A 
ATOM      7  C   UNL     1       1.820   5.751  20.653  0.00  0.00    +0.000 A 
ATOM      8  C   UNL     1       2.188   4.449  20.963  0.00  0.00    +0.000 A 
ATOM      9  N   UNL     1       3.117   3.753  20.291  0.00  0.00    +0.000 NA
ATOM     10  C   UNL     1       3.722   4.398  19.276  0.00  0.00    +0.000 A 
ATOM     11  C   UNL     1       3.432   5.711  18.911  0.00  0.00    +0.000 A 
BRANCH  10  12
ATOM     12  O   UNL     1       4.712   3.748  18.559  0.00  0.00    +0.000 OA
BRANCH  12  13
ATOM     13  C   UNL     1       4.290   3.434  17.229  0.00  0.00    +0.000 C 
BRANCH  13  14
ATOM     14  C   UNL     1       5.299   3.979  16.241  0.00  0.00    +0.000 A 
ATOM     15  C   UNL     1       6.386   4.746  16.694  0.00  0.00    +0.000 A 
ATOM     16  C   UNL     1       7.327   5.243  15.791  0.00  0.00    +0.000 A 
ATOM     17  C   UNL     1       7.180   4.981  14.435  0.00  0.00    +0.000 A 
ATOM     18  F   UNL     1       8.084   5.458  13.568  0.00  0.00    +0.000 F 
ATOM     19  C   UNL     1       6.108   4.231  13.965  0.00  0.00    +0.000 A 
ATOM     20  C   UNL     1       5.165   3.733  14.866  0.00  0.00    +0.000 A 
ENDBRANCH  13  14
ENDBRANCH  12  13
ENDBRANCH  10  12
ENDBRANCH   4   6
BRANCH   1  21
ATOM     21  O   UNL     1      -0.238  10.028  18.764  0.00  0.00    +0.000 OA
BRANCH  21  25
ATOM     22  C   UNL     1      -2.776  13.012  20.285  0.00  0.00    +0.000 A 
ATOM     23  C   UNL     1      -3.153  12.185  19.219  0.00  0.00    +0.000 A 
ATOM     24  C   UNL     1      -2.272  11.210  18.725  0.00  0.00    +0.000 A 
ATOM     25  C   UNL     1      -0.996  11.054  19.273  0.00  0.00    +0.000 A 
ATOM     26  C   UNL     1      -0.606  11.888  20.318  0.00  0.00    +0.000 A 
ATOM     27  C   UNL     1      -1.486  12.855  20.819  0.00  0.00    +0.000 A 
BRANCH  22  28
ATOM     28  C   UNL     1      -3.742  14.036  20.871  0.00  0.00    +0.000 C 
ATOM     29  C   UNL     1      -3.364  14.356  22.322  0.00  0.00    +0.000 C 
BRANCH  28  33
ATOM     30  C   UNL     1      -7.092  12.308  21.348  0.00  0.00    +0.000 C 
ATOM     31  C   UNL     1      -5.663  12.660  21.667  0.00  0.00    +0.000 C 
ATOM     32  O   UNL     1      -5.073  12.204  22.639  0.00  0.00    +0.000 OA
ATOM     33  N   UNL     1      -5.107  13.530  20.755  0.00  0.00    +0.000 N 
ATOM     34  H   UNL     1      -5.748  14.072  20.190  0.00  0.00    +0.000 HD
ENDBRANCH  28  33
ENDBRANCH  22  28
ENDBRANCH  21  25
ENDBRANCH   1  21
TORSDOF 8
ENDMDL
