MODEL 1
REMARK VINA RESULT:      -6.1      0.000      0.000
REMARK  Name = 
REMARK  2 active torsions:
REMARK  status: ('A' for Active; 'I' for Inactive)
REMARK    1  A    between atoms: C_1  and  C_2
REMARK    2  A    between atoms: C_21  and  C_22
REMARK                            x       y       z     vdW  Elec       q    Type
REMARK                         _______ _______ _______ _____ _____    ______ ____
ROOT
ATOM      1  C   UNL     1       9.201  11.353  18.003  0.00  0.00    +0.000 C 
ATOM      2  C   UNL     1       9.582  12.530  18.932  0.00  0.00    +0.000 C 
ATOM      3  C   UNL     1      10.703  12.003  19.862  0.00  0.00    +0.000 C 
ATOM      4  O   UNL     1      10.579  11.020  20.584  0.00  0.00    +0.000 OA
ATOM      5  N   UNL     1      11.851  12.773  19.855  0.00  0.00    +0.000 N 
ATOM      6  C   UNL     1      12.333  13.210  18.547  0.00  0.00    +0.000 C 
ATOM      7  C   UNL     1      11.242  13.698  17.581  0.00  0.00    +0.000 C 
ATOM      8  O   UNL     1      11.516  14.137  16.469  0.00  0.00    +0.000 OA
ATOM      9  N   UNL     1       9.986  13.698  18.130  0.00  0.00    +0.000 N 
ATOM     10  C   UNL     1       8.834  14.539  17.731  0.00  0.00    +0.000 C 
ATOM     11  C   UNL     1       9.057  16.008  18.047  0.00  0.00    +0.000 A 
ATOM     12  C   UNL     1      10.171  16.689  17.525  0.00  0.00    +0.000 A 
ATOM     13  C   UNL     1      10.628  17.864  18.120  0.00  0.00    +0.000 A 
ATOM     14 BR   UNL     1      12.284  18.597  17.581  0.00  0.00    +0.000 Br
ATOM     15  C   UNL     1       9.923  18.441  19.167  0.00  0.00    +0.000 A 
ATOM     16  C   UNL     1       8.721  17.869  19.573  0.00  0.00    +0.000 A 
ATOM     17  C   UNL     1       8.281  16.665  19.010  0.00  0.00    +0.000 A 
ATOM     18  O   UNL     1       7.170  16.132  19.600  0.00  0.00    +0.000 OA
ATOM     19  C   UNL     1       6.643  14.972  18.976  0.00  0.00    +0.000 C 
ATOM     20  C   UNL     1       7.679  13.943  18.567  0.00  0.00    +0.000 C 
ATOM     21  C   UNL     1       8.366  13.101  19.705  0.00  0.00    +0.000 C 
ATOM     22  H   UNL     1      11.748  13.546  20.503  0.00  0.00    +0.000 HD
ENDROOT
BRANCH  21  23
ATOM     23  C   UNL     1       8.728  13.841  21.000  0.00  0.00    +0.000 A 
ATOM     24  C   UNL     1       7.929  13.683  22.140  0.00  0.00    +0.000 A 
ATOM     25  C   UNL     1       8.211  14.383  23.322  0.00  0.00    +0.000 A 
ATOM     26  C   UNL     1       9.286  15.265  23.385  0.00  0.00    +0.000 A 
ATOM     27  C   UNL     1      10.115  15.407  22.286  0.00  0.00    +0.000 A 
ATOM     28  C   UNL     1       9.853  14.673  21.129  0.00  0.00    +0.000 A 
ENDBRANCH  21  23
TORSDOF 1
ENDMDL
MODEL 2
REMARK VINA RESULT:      -5.6      3.008      5.231
REMARK  Name = 
REMARK  2 active torsions:
REMARK  status: ('A' for Active; 'I' for Inactive)
REMARK    1  A    between atoms: C_1  and  C_2
REMARK    2  A    between atoms: C_21  and  C_22
REMARK                            x       y       z     vdW  Elec       q    Type
REMARK                         _______ _______ _______ _____ _____    ______ ____
ROOT
ATOM      1  C   UNL     1       8.658  14.869  24.489  0.00  0.00    +0.000 C 
ATOM      2  C   UNL     1       8.482  14.091  23.163  0.00  0.00    +0.000 C 
ATOM      3  C   UNL     1       8.250  12.611  23.557  0.00  0.00    +0.000 C 
ATOM      4  O   UNL     1       9.034  11.959  24.238  0.00  0.00    +0.000 OA
ATOM      5  N   UNL     1       7.101  12.059  23.024  0.00  0.00    +0.000 N 
ATOM      6  C   UNL     1       5.893  12.879  23.092  0.00  0.00    +0.000 C 
ATOM      7  C   UNL     1       6.095  14.364  22.752  0.00  0.00    +0.000 C 
ATOM      8  O   UNL     1       5.156  15.152  22.724  0.00  0.00    +0.000 OA
ATOM      9  N   UNL     1       7.379  14.670  22.379  0.00  0.00    +0.000 N 
ATOM     10  C   UNL     1       7.818  15.796  21.524  0.00  0.00    +0.000 C 
ATOM     11  C   UNL     1       7.354  15.643  20.085  0.00  0.00    +0.000 A 
ATOM     12  C   UNL     1       5.987  15.505  19.789  0.00  0.00    +0.000 A 
ATOM     13  C   UNL     1       5.575  14.947  18.579  0.00  0.00    +0.000 A 
ATOM     14 BR   UNL     1       3.754  14.511  18.326  0.00  0.00    +0.000 Br
ATOM     15  C   UNL     1       6.507  14.623  17.603  0.00  0.00    +0.000 A 
ATOM     16  C   UNL     1       7.849  14.921  17.819  0.00  0.00    +0.000 A 
ATOM     17  C   UNL     1       8.273  15.440  19.048  0.00  0.00    +0.000 A 
ATOM     18  O   UNL     1       9.628  15.544  19.187  0.00  0.00    +0.000 OA
ATOM     19  C   UNL     1      10.074  16.169  20.380  0.00  0.00    +0.000 C 
ATOM     20  C   UNL     1       9.358  15.722  21.638  0.00  0.00    +0.000 C 
ATOM     21  C   UNL     1       9.676  14.285  22.193  0.00  0.00    +0.000 C 
ATOM     22  H   UNL     1       7.284  11.727  22.084  0.00  0.00    +0.000 HD
ENDROOT
BRANCH  21  23
ATOM     23  C   UNL     1       9.844  13.160  21.163  0.00  0.00    +0.000 A 
ATOM     24  C   UNL     1      11.128  12.738  20.794  0.00  0.00    +0.000 A 
ATOM     25  C   UNL     1      11.310  11.745  19.821  0.00  0.00    +0.000 A 
ATOM     26  C   UNL     1      10.216  11.163  19.186  0.00  0.00    +0.000 A 
ATOM     27  C   UNL     1       8.937  11.533  19.563  0.00  0.00    +0.000 A 
ATOM     28  C   UNL     1       8.764  12.490  20.563  0.00  0.00    +0.000 A 
ENDBRANCH  21  23
TORSDOF 1
ENDMDL
MODEL 3
REMARK VINA RESULT:      -5.6     10.819     13.166
REMARK  Name = 
REMARK  2 active torsions:
REMARK  status: ('A' for Active; 'I' for Inactive)
REMARK    1  A    between atoms: C_1  and  C_2
REMARK    2  A    between atoms: C_21  and  C_22
REMARK                            x       y       z     vdW  Elec       q    Type
REMARK                         _______ _______ _______ _____ _____    ______ ____
ROOT
ATOM      1  C   UNL     1      -5.844  14.461  23.711  0.00  0.00    +0.000 C 
ATOM      2  C   UNL     1      -4.677  14.082  22.768  0.00  0.00    +0.000 C 
ATOM      3  C   UNL     1      -5.247  13.050  21.764  0.00  0.00    +0.000 C 
ATOM      4  O   UNL     1      -5.774  11.996  22.101  0.00  0.00    +0.000 OA
ATOM      5  N   UNL     1      -5.062  13.391  20.438  0.00  0.00    +0.000 N 
ATOM      6  C   UNL     1      -5.347  14.778  20.077  0.00  0.00    +0.000 C 
ATOM      7  C   UNL     1      -4.834  15.829  21.074  0.00  0.00    +0.000 C 
ATOM      8  O   UNL     1      -4.963  17.030  20.867  0.00  0.00    +0.000 OA
ATOM      9  N   UNL     1      -4.134  15.290  22.124  0.00  0.00    +0.000 N 
ATOM     10  C   UNL     1      -3.099  15.958  22.946  0.00  0.00    +0.000 C 
ATOM     11  C   UNL     1      -1.837  16.254  22.155  0.00  0.00    +0.000 A 
ATOM     12  C   UNL     1      -1.895  17.032  20.985  0.00  0.00    +0.000 A 
ATOM     13  C   UNL     1      -0.877  16.961  20.035  0.00  0.00    +0.000 A 
ATOM     14 BR   UNL     1      -1.114  17.790  18.353  0.00  0.00    +0.000 Br
ATOM     15  C   UNL     1       0.262  16.208  20.281  0.00  0.00    +0.000 A 
ATOM     16  C   UNL     1       0.407  15.577  21.513  0.00  0.00    +0.000 A 
ATOM     17  C   UNL     1      -0.630  15.607  22.452  0.00  0.00    +0.000 A 
ATOM     18  O   UNL     1      -0.426  14.824  23.553  0.00  0.00    +0.000 OA
ATOM     19  C   UNL     1      -1.413  14.926  24.567  0.00  0.00    +0.000 C 
ATOM     20  C   UNL     1      -2.843  14.924  24.066  0.00  0.00    +0.000 C 
ATOM     21  C   UNL     1      -3.432  13.565  23.534  0.00  0.00    +0.000 C 
ATOM     22  H   UNL     1      -4.140  13.099  20.135  0.00  0.00    +0.000 HD
ENDROOT
BRANCH  21  23
ATOM     23  C   UNL     1      -2.499  12.677  22.700  0.00  0.00    +0.000 A 
ATOM     24  C   UNL     1      -1.880  11.568  23.291  0.00  0.00    +0.000 A 
ATOM     25  C   UNL     1      -0.986  10.767  22.565  0.00  0.00    +0.000 A 
ATOM     26  C   UNL     1      -0.681  11.066  21.239  0.00  0.00    +0.000 A 
ATOM     27  C   UNL     1      -1.311  12.132  20.621  0.00  0.00    +0.000 A 
ATOM     28  C   UNL     1      -2.232  12.896  21.338  0.00  0.00    +0.000 A 
ENDBRANCH  21  23
TORSDOF 1
ENDMDL
MODEL 4
REMARK VINA RESULT:      -5.6     11.391     14.050
REMARK  Name = 
REMARK  2 active torsions:
REMARK  status: ('A' for Active; 'I' for Inactive)
REMARK    1  A    between atoms: C_1  and  C_2
REMARK    2  A    between atoms: C_21  and  C_22
REMARK                            x       y       z     vdW  Elec       q    Type
REMARK                         _______ _______ _______ _____ _____    ______ ____
ROOT
ATOM      1  C   UNL     1      -4.774  17.154  23.545  0.00  0.00    +0.000 C 
ATOM      2  C   UNL     1      -4.409  16.024  22.554  0.00  0.00    +0.000 C 
ATOM      3  C   UNL     1      -4.875  16.504  21.157  0.00  0.00    +0.000 C 
ATOM      4  O   UNL     1      -6.030  16.827  20.902  0.00  0.00    +0.000 OA
ATOM      5  N   UNL     1      -3.885  16.485  20.194  0.00  0.00    +0.000 N 
ATOM      6  C   UNL     1      -2.582  17.015  20.590  0.00  0.00    +0.000 C 
ATOM      7  C   UNL     1      -2.107  16.595  21.990  0.00  0.00    +0.000 C 
ATOM      8  O   UNL     1      -1.011  16.930  22.426  0.00  0.00    +0.000 OA
ATOM      9  N   UNL     1      -2.967  15.735  22.624  0.00  0.00    +0.000 N 
ATOM     10  C   UNL     1      -2.634  14.755  23.683  0.00  0.00    +0.000 C 
ATOM     11  C   UNL     1      -1.759  13.624  23.168  0.00  0.00    +0.000 A 
ATOM     12  C   UNL     1      -0.522  13.901  22.560  0.00  0.00    +0.000 A 
ATOM     13  C   UNL     1       0.081  12.967  21.718  0.00  0.00    +0.000 A 
ATOM     14 BR   UNL     1       1.587  13.471  20.695  0.00  0.00    +0.000 Br
ATOM     15  C   UNL     1      -0.476  11.706  21.556  0.00  0.00    +0.000 A 
ATOM     16  C   UNL     1      -1.606  11.363  22.294  0.00  0.00    +0.000 A 
ATOM     17  C   UNL     1      -2.240  12.310  23.105  0.00  0.00    +0.000 A 
ATOM     18  O   UNL     1      -3.420  11.894  23.653  0.00  0.00    +0.000 OA
ATOM     19  C   UNL     1      -4.022  12.798  24.566  0.00  0.00    +0.000 C 
ATOM     20  C   UNL     1      -4.027  14.246  24.118  0.00  0.00    +0.000 C 
ATOM     21  C   UNL     1      -5.011  14.654  22.960  0.00  0.00    +0.000 C 
ATOM     22  H   UNL     1      -3.814  15.556  19.794  0.00  0.00    +0.000 HD
ENDROOT
BRANCH  21  23
ATOM     23  C   UNL     1      -5.173  13.663  21.800  0.00  0.00    +0.000 A 
ATOM     24  C   UNL     1      -6.324  12.868  21.716  0.00  0.00    +0.000 A 
ATOM     25  C   UNL     1      -6.476  11.923  20.692  0.00  0.00    +0.000 A 
ATOM     26  C   UNL     1      -5.476  11.740  19.740  0.00  0.00    +0.000 A 
ATOM     27  C   UNL     1      -4.349  12.542  19.776  0.00  0.00    +0.000 A 
ATOM     28  C   UNL     1      -4.226  13.511  20.772  0.00  0.00    +0.000 A 
ENDBRANCH  21  23
TORSDOF 1
ENDMDL
MODEL 5
REMARK VINA RESULT:      -5.6      2.838      5.224
REMARK  Name = 
REMARK  2 active torsions:
REMARK  status: ('A' for Active; 'I' for Inactive)
REMARK    1  A    between atoms: C_1  and  C_2
REMARK    2  A    between atoms: C_21  and  C_22
REMARK                            x       y       z     vdW  Elec       q    Type
REMARK                         _______ _______ _______ _____ _____    ______ ____
ROOT
ATOM      1  C   UNL     1       8.855  18.153  19.102  0.00  0.00    +0.000 C 
ATOM      2  C   UNL     1       8.091  16.950  19.704  0.00  0.00    +0.000 C 
ATOM      3  C   UNL     1       6.692  16.949  19.039  0.00  0.00    +0.000 C 
ATOM      4  O   UNL     1       5.922  17.903  19.079  0.00  0.00    +0.000 OA
ATOM      5  N   UNL     1       6.353  15.752  18.439  0.00  0.00    +0.000 N 
ATOM      6  C   UNL     1       7.388  15.117  17.625  0.00  0.00    +0.000 C 
ATOM      7  C   UNL     1       8.799  15.139  18.233  0.00  0.00    +0.000 C 
ATOM      8  O   UNL     1       9.749  14.599  17.677  0.00  0.00    +0.000 OA
ATOM      9  N   UNL     1       8.848  15.707  19.481  0.00  0.00    +0.000 N 
ATOM     10  C   UNL     1       9.849  15.452  20.542  0.00  0.00    +0.000 C 
ATOM     11  C   UNL     1       9.750  14.043  21.101  0.00  0.00    +0.000 A 
ATOM     12  C   UNL     1       9.865  12.929  20.251  0.00  0.00    +0.000 A 
ATOM     13  C   UNL     1       9.363  11.687  20.638  0.00  0.00    +0.000 A 
ATOM     14 BR   UNL     1       9.272  10.285  19.373  0.00  0.00    +0.000 Br
ATOM     15  C   UNL     1       8.844  11.504  21.912  0.00  0.00    +0.000 A 
ATOM     16  C   UNL     1       8.890  12.558  22.821  0.00  0.00    +0.000 A 
ATOM     17  C   UNL     1       9.350  13.818  22.425  0.00  0.00    +0.000 A 
ATOM     18  O   UNL     1       9.200  14.801  23.362  0.00  0.00    +0.000 OA
ATOM     19  C   UNL     1       9.761  16.060  23.024  0.00  0.00    +0.000 C 
ATOM     20  C   UNL     1       9.489  16.515  21.604  0.00  0.00    +0.000 C 
ATOM     21  C   UNL     1       8.032  16.993  21.252  0.00  0.00    +0.000 C 
ATOM     22  H   UNL     1       5.969  15.119  19.131  0.00  0.00    +0.000 HD
ENDROOT
BRANCH  21  23
ATOM     23  C   UNL     1       6.869  16.199  21.864  0.00  0.00    +0.000 A 
ATOM     24  C   UNL     1       6.159  16.728  22.950  0.00  0.00    +0.000 A 
ATOM     25  C   UNL     1       5.123  16.003  23.557  0.00  0.00    +0.000 A 
ATOM     26  C   UNL     1       4.786  14.731  23.103  0.00  0.00    +0.000 A 
ATOM     27  C   UNL     1       5.444  14.205  22.005  0.00  0.00    +0.000 A 
ATOM     28  C   UNL     1       6.443  14.951  21.380  0.00  0.00    +0.000 A 
ENDBRANCH  21  23
TORSDOF 1
ENDMDL
MODEL 6
REMARK VINA RESULT:      -5.4     11.737     14.425
REMARK  Name = 
REMARK  2 active torsions:
REMARK  status: ('A' for Active; 'I' for Inactive)
REMARK    1  A    between atoms: C_1  and  C_2
REMARK    2  A    between atoms: C_21  and  C_22
REMARK                            x       y       z     vdW  Elec       q    Type
REMARK                         _______ _______ _______ _____ _____    ______ ____
ROOT
ATOM      1  C   UNL     1      -5.665  16.924  23.340  0.00  0.00    +0.000 C 
ATOM      2  C   UNL     1      -5.067  15.844  22.407  0.00  0.00    +0.000 C 
ATOM      3  C   UNL     1      -5.451  16.256  20.964  0.00  0.00    +0.000 C 
ATOM      4  O   UNL     1      -6.607  16.430  20.594  0.00  0.00    +0.000 OA
ATOM      5  N   UNL     1      -4.377  16.358  20.101  0.00  0.00    +0.000 N 
ATOM      6  C   UNL     1      -3.196  17.050  20.612  0.00  0.00    +0.000 C 
ATOM      7  C   UNL     1      -2.811  16.699  22.058  0.00  0.00    +0.000 C 
ATOM      8  O   UNL     1      -1.813  17.172  22.591  0.00  0.00    +0.000 OA
ATOM      9  N   UNL     1      -3.614  15.740  22.620  0.00  0.00    +0.000 N 
ATOM     10  C   UNL     1      -3.265  14.815  23.722  0.00  0.00    +0.000 C 
ATOM     11  C   UNL     1      -2.210  13.802  23.313  0.00  0.00    +0.000 A 
ATOM     12  C   UNL     1      -0.963  14.230  22.822  0.00  0.00    +0.000 A 
ATOM     13  C   UNL     1      -0.170  13.376  22.058  0.00  0.00    +0.000 A 
ATOM     14 BR   UNL     1       1.355  14.062  21.176  0.00  0.00    +0.000 Br
ATOM     15  C   UNL     1      -0.546  12.054  21.864  0.00  0.00    +0.000 A 
ATOM     16  C   UNL     1      -1.690  11.574  22.495  0.00  0.00    +0.000 A 
ATOM     17  C   UNL     1      -2.513  12.437  23.226  0.00  0.00    +0.000 A 
ATOM     18  O   UNL     1      -3.680  11.878  23.664  0.00  0.00    +0.000 OA
ATOM     19  C   UNL     1      -4.477  12.702  24.500  0.00  0.00    +0.000 C 
ATOM     20  C   UNL     1      -4.619  14.136  24.030  0.00  0.00    +0.000 C 
ATOM     21  C   UNL     1      -5.529  14.412  22.777  0.00  0.00    +0.000 C 
ATOM     22  H   UNL     1      -4.152  15.444  19.726  0.00  0.00    +0.000 HD
ENDROOT
BRANCH  21  23
ATOM     23  C   UNL     1      -5.452  13.403  21.622  0.00  0.00    +0.000 A 
ATOM     24  C   UNL     1      -4.342  13.406  20.767  0.00  0.00    +0.000 A 
ATOM     25  C   UNL     1      -4.268  12.527  19.677  0.00  0.00    +0.000 A 
ATOM     26  C   UNL     1      -5.306  11.637  19.411  0.00  0.00    +0.000 A 
ATOM     27  C   UNL     1      -6.393  11.586  20.266  0.00  0.00    +0.000 A 
ATOM     28  C   UNL     1      -6.438  12.433  21.372  0.00  0.00    +0.000 A 
ENDBRANCH  21  23
TORSDOF 1
ENDMDL
MODEL 7
REMARK VINA RESULT:      -5.4     11.479     13.943
REMARK  Name = 
REMARK  2 active torsions:
REMARK  status: ('A' for Active; 'I' for Inactive)
REMARK    1  A    between atoms: C_1  and  C_2
REMARK    2  A    between atoms: C_21  and  C_22
REMARK                            x       y       z     vdW  Elec       q    Type
REMARK                         _______ _______ _______ _____ _____    ______ ____
ROOT
ATOM      1  C   UNL     1      -1.497  15.559  25.766  0.00  0.00    +0.000 C 
ATOM      2  C   UNL     1      -2.255  15.638  24.420  0.00  0.00    +0.000 C 
ATOM      3  C   UNL     1      -2.096  17.094  23.917  0.00  0.00    +0.000 C 
ATOM      4  O   UNL     1      -2.440  18.077  24.565  0.00  0.00    +0.000 OA
ATOM      5  N   UNL     1      -1.580  17.196  22.639  0.00  0.00    +0.000 N 
ATOM      6  C   UNL     1      -0.437  16.342  22.329  0.00  0.00    +0.000 C 
ATOM      7  C   UNL     1      -0.540  14.900  22.852  0.00  0.00    +0.000 C 
ATOM      8  O   UNL     1       0.328  14.067  22.619  0.00  0.00    +0.000 OA
ATOM      9  N   UNL     1      -1.729  14.632  23.482  0.00  0.00    +0.000 N 
ATOM     10  C   UNL     1      -2.380  13.312  23.639  0.00  0.00    +0.000 C 
ATOM     11  C   UNL     1      -2.867  12.748  22.314  0.00  0.00    +0.000 A 
ATOM     12  C   UNL     1      -1.970  12.560  21.248  0.00  0.00    +0.000 A 
ATOM     13  C   UNL     1      -2.436  12.464  19.937  0.00  0.00    +0.000 A 
ATOM     14 BR   UNL     1      -1.202  12.500  18.506  0.00  0.00    +0.000 Br
ATOM     15  C   UNL     1      -3.799  12.441  19.677  0.00  0.00    +0.000 A 
ATOM     16  C   UNL     1      -4.695  12.448  20.742  0.00  0.00    +0.000 A 
ATOM     17  C   UNL     1      -4.234  12.589  22.056  0.00  0.00    +0.000 A 
ATOM     18  O   UNL     1      -5.218  12.736  22.993  0.00  0.00    +0.000 OA
ATOM     19  C   UNL     1      -4.778  12.769  24.341  0.00  0.00    +0.000 C 
ATOM     20  C   UNL     1      -3.556  13.630  24.591  0.00  0.00    +0.000 C 
ATOM     21  C   UNL     1      -3.735  15.192  24.540  0.00  0.00    +0.000 C 
ATOM     22  H   UNL     1      -2.327  17.098  21.960  0.00  0.00    +0.000 HD
ENDROOT
BRANCH  21  23
ATOM     23  C   UNL     1      -4.657  15.754  23.449  0.00  0.00    +0.000 A 
ATOM     24  C   UNL     1      -5.924  16.243  23.791  0.00  0.00    +0.000 A 
ATOM     25  C   UNL     1      -6.804  16.720  22.809  0.00  0.00    +0.000 A 
ATOM     26  C   UNL     1      -6.443  16.704  21.464  0.00  0.00    +0.000 A 
ATOM     27  C   UNL     1      -5.180  16.264  21.105  0.00  0.00    +0.000 A 
ATOM     28  C   UNL     1      -4.295  15.834  22.093  0.00  0.00    +0.000 A 
ENDBRANCH  21  23
TORSDOF 1
ENDMDL
MODEL 8
REMARK VINA RESULT:      -5.4     11.253     13.324
REMARK  Name = 
REMARK  2 active torsions:
REMARK  status: ('A' for Active; 'I' for Inactive)
REMARK    1  A    between atoms: C_1  and  C_2
REMARK    2  A    between atoms: C_21  and  C_22
REMARK                            x       y       z     vdW  Elec       q    Type
REMARK                         _______ _______ _______ _____ _____    ______ ____
ROOT
ATOM      1  C   UNL     1      -0.420  11.523  22.190  0.00  0.00    +0.000 C 
ATOM      2  C   UNL     1      -1.140  12.892  22.212  0.00  0.00    +0.000 C 
ATOM      3  C   UNL     1      -0.098  13.937  21.740  0.00  0.00    +0.000 C 
ATOM      4  O   UNL     1       0.986  14.108  22.288  0.00  0.00    +0.000 OA
ATOM      5  N   UNL     1      -0.517  14.711  20.675  0.00  0.00    +0.000 N 
ATOM      6  C   UNL     1      -1.175  14.005  19.578  0.00  0.00    +0.000 C 
ATOM      7  C   UNL     1      -2.184  12.929  20.009  0.00  0.00    +0.000 C 
ATOM      8  O   UNL     1      -2.841  12.297  19.189  0.00  0.00    +0.000 OA
ATOM      9  N   UNL     1      -2.346  12.845  21.369  0.00  0.00    +0.000 N 
ATOM     10  C   UNL     1      -3.532  12.342  22.099  0.00  0.00    +0.000 C 
ATOM     11  C   UNL     1      -4.739  13.249  21.933  0.00  0.00    +0.000 A 
ATOM     12  C   UNL     1      -5.233  13.551  20.652  0.00  0.00    +0.000 A 
ATOM     13  C   UNL     1      -6.028  14.677  20.445  0.00  0.00    +0.000 A 
ATOM     14 BR   UNL     1      -6.437  15.217  18.680  0.00  0.00    +0.000 Br
ATOM     15  C   UNL     1      -6.437  15.455  21.519  0.00  0.00    +0.000 A 
ATOM     16  C   UNL     1      -6.099  15.061  22.810  0.00  0.00    +0.000 A 
ATOM     17  C   UNL     1      -5.264  13.958  23.021  0.00  0.00    +0.000 A 
ATOM     18  O   UNL     1      -4.885  13.769  24.320  0.00  0.00    +0.000 OA
ATOM     19  C   UNL     1      -4.131  12.594  24.572  0.00  0.00    +0.000 C 
ATOM     20  C   UNL     1      -3.035  12.313  23.562  0.00  0.00    +0.000 C 
ATOM     21  C   UNL     1      -1.753  13.224  23.596  0.00  0.00    +0.000 C 
ATOM     22  H   UNL     1      -1.069  15.490  21.014  0.00  0.00    +0.000 HD
ENDROOT
BRANCH  21  23
ATOM     23  C   UNL     1      -1.968  14.722  23.852  0.00  0.00    +0.000 A 
ATOM     24  C   UNL     1      -1.686  15.262  25.114  0.00  0.00    +0.000 A 
ATOM     25  C   UNL     1      -1.917  16.618  25.387  0.00  0.00    +0.000 A 
ATOM     26  C   UNL     1      -2.449  17.459  24.413  0.00  0.00    +0.000 A 
ATOM     27  C   UNL     1      -2.697  16.959  23.146  0.00  0.00    +0.000 A 
ATOM     28  C   UNL     1      -2.422  15.619  22.870  0.00  0.00    +0.000 A 
ENDBRANCH  21  23
TORSDOF 1
ENDMDL
MODEL 9
REMARK VINA RESULT:      -5.3      2.680      4.974
REMARK  Name = 
REMARK  2 active torsions:
REMARK  status: ('A' for Active; 'I' for Inactive)
REMARK    1  A    between atoms: C_1  and  C_2
REMARK    2  A    between atoms: C_21  and  C_22
REMARK                            x       y       z     vdW  Elec       q    Type
REMARK                         _______ _______ _______ _____ _____    ______ ____
ROOT
ATOM      1  C   UNL     1       7.798  17.754  18.567  0.00  0.00    +0.000 C 
ATOM      2  C   UNL     1       7.883  16.530  19.509  0.00  0.00    +0.000 C 
ATOM      3  C   UNL     1       6.544  16.488  20.287  0.00  0.00    +0.000 C 
ATOM      4  O   UNL     1       6.125  17.418  20.967  0.00  0.00    +0.000 OA
ATOM      5  N   UNL     1       5.878  15.280  20.199  0.00  0.00    +0.000 N 
ATOM      6  C   UNL     1       5.803  14.675  18.871  0.00  0.00    +0.000 C 
ATOM      7  C   UNL     1       7.102  14.739  18.052  0.00  0.00    +0.000 C 
ATOM      8  O   UNL     1       7.189  14.225  16.942  0.00  0.00    +0.000 OA
ATOM      9  N   UNL     1       8.148  15.309  18.731  0.00  0.00    +0.000 N 
ATOM     10  C   UNL     1       9.594  15.084  18.499  0.00  0.00    +0.000 C 
ATOM     11  C   UNL     1      10.024  13.674  18.865  0.00  0.00    +0.000 A 
ATOM     12  C   UNL     1       9.407  12.563  18.264  0.00  0.00    +0.000 A 
ATOM     13  C   UNL     1       9.464  11.307  18.866  0.00  0.00    +0.000 A 
ATOM     14 BR   UNL     1       8.394   9.902  18.194  0.00  0.00    +0.000 Br
ATOM     15  C   UNL     1      10.225  11.111  20.011  0.00  0.00    +0.000 A 
ATOM     16  C   UNL     1      10.982  12.166  20.512  0.00  0.00    +0.000 A 
ATOM     17  C   UNL     1      10.894  13.439  19.938  0.00  0.00    +0.000 A 
ATOM     18  O   UNL     1      11.565  14.418  20.614  0.00  0.00    +0.000 OA
ATOM     19  C   UNL     1      11.580  15.692  19.990  0.00  0.00    +0.000 C 
ATOM     20  C   UNL     1      10.248  16.138  19.422  0.00  0.00    +0.000 C 
ATOM     21  C   UNL     1       9.126  16.573  20.435  0.00  0.00    +0.000 C 
ATOM     22  H   UNL     1       6.243  14.637  20.892  0.00  0.00    +0.000 HD
ENDROOT
BRANCH  21  23
ATOM     23  C   UNL     1       8.987  15.747  21.721  0.00  0.00    +0.000 A 
ATOM     24  C   UNL     1       9.441  16.270  22.939  0.00  0.00    +0.000 A 
ATOM     25  C   UNL     1       9.368  15.518  24.120  0.00  0.00    +0.000 A 
ATOM     26  C   UNL     1       8.857  14.223  24.107  0.00  0.00    +0.000 A 
ATOM     27  C   UNL     1       8.364  13.699  22.925  0.00  0.00    +0.000 A 
ATOM     28  C   UNL     1       8.399  14.471  21.763  0.00  0.00    +0.000 A 
ENDBRANCH  21  23
TORSDOF 1
ENDMDL
