MODEL 1
REMARK VINA RESULT:      -7.3      0.000      0.000
REMARK  Name = 
REMARK  12 active torsions:
REMARK  status: ('A' for Active; 'I' for Inactive)
REMARK    1  A    between atoms: C_1  and  O_2
REMARK    2  A    between atoms: O_2  and  C_3
REMARK    3  A    between atoms: C_5  and  C_6
REMARK    4  A    between atoms: C_6  and  C_7
REMARK    5  A    between atoms: C_6  and  C_8
REMARK    6  A    between atoms: C_9  and  O_10
REMARK    7  A    between atoms: O_10  and  C_11
REMARK    8  A    between atoms: C_17  and  N_18
REMARK    9  A    between atoms: C_20  and  C_21
REMARK   10  A    between atoms: C_21  and  C_22
REMARK   11  A    between atoms: C_21  and  C_23
REMARK   12  A    between atoms: C_21  and  O_24
REMARK                            x       y       z     vdW  Elec       q    Type
REMARK                         _______ _______ _______ _____ _____    ______ ____
ROOT
ATOM      1  C   UNL     1       5.504   7.047  16.938  0.00  0.00    +0.000 A 
ATOM      2  C   UNL     1       4.343   7.709  17.368  0.00  0.00    +0.000 A 
ATOM      3  C   UNL     1       3.167   7.020  17.709  0.00  0.00    +0.000 A 
ATOM      4  C   UNL     1       3.154   5.630  17.538  0.00  0.00    +0.000 A 
ATOM      5  C   UNL     1       4.327   4.963  17.146  0.00  0.00    +0.000 A 
ATOM      6  C   UNL     1       5.520   5.646  16.819  0.00  0.00    +0.000 A 
ENDROOT
BRANCH   3   7
ATOM      7  C   UNL     1       2.000   7.760  18.355  0.00  0.00    +0.000 C 
ATOM      8  C   UNL     1       2.238   7.828  19.870  0.00  0.00    +0.000 C 
ATOM      9  C   UNL     1       1.758   9.175  17.813  0.00  0.00    +0.000 C 
ENDBRANCH   3   7
BRANCH   6  10
ATOM     10  C   UNL     1       6.743   4.811  16.397  0.00  0.00    +0.000 C 
ATOM     11  C   UNL     1       7.596   4.467  17.629  0.00  0.00    +0.000 C 
ATOM     12  C   UNL     1       6.315   3.522  15.680  0.00  0.00    +0.000 C 
BRANCH  10  13
ATOM     13  O   UNL     1       7.647   5.463  15.500  0.00  0.00    +0.000 OA
ATOM     14  H   UNL     1       7.386   5.223  14.594  0.00  0.00    +0.000 HD
ENDBRANCH  10  13
ENDBRANCH   6  10
BRANCH   1  16
ATOM     15  C   UNL     1       7.464   8.146  17.715  0.00  0.00    +0.000 C 
ATOM     16  O   UNL     1       6.652   7.728  16.617  0.00  0.00    +0.000 OA
ENDBRANCH   1  16
BRANCH   4  17
ATOM     17  O   UNL     1       1.992   4.941  17.834  0.00  0.00    +0.000 OA
BRANCH  17  18
ATOM     18  C   UNL     1       1.915   4.234  19.009  0.00  0.00    +0.000 A 
ATOM     19  C   UNL     1       1.882   4.782  20.273  0.00  0.00    +0.000 A 
ATOM     20  N   UNL     1       1.730   4.060  21.404  0.00  0.00    +0.000 NA
ATOM     21  C   UNL     1       1.674   2.738  21.254  0.00  0.00    +0.000 A 
ATOM     22  N   UNL     1       1.459   1.985  22.389  0.00  0.00    +0.000 N 
ATOM     23  N   UNL     1       1.756   2.092  20.083  0.00  0.00    +0.000 NA
ATOM     24  C   UNL     1       1.892   2.846  18.974  0.00  0.00    +0.000 A 
ATOM     25  H   UNL     1       1.017   2.553  23.096  0.00  0.00    +0.000 HD
ATOM     26  H   UNL     1       1.017   1.110  22.148  0.00  0.00    +0.000 HD
BRANCH  24  27
ATOM     27  N   UNL     1       2.072   2.136  17.785  0.00  0.00    +0.000 N 
ATOM     28  H   UNL     1       1.220   1.625  17.585  0.00  0.00    +0.000 HD
ATOM     29  H   UNL     1       2.382   2.729  17.023  0.00  0.00    +0.000 HD
ENDBRANCH  24  27
ENDBRANCH  17  18
ENDBRANCH   4  17
TORSDOF 7
ENDMDL
MODEL 2
REMARK VINA RESULT:      -6.9      2.861      4.930
REMARK  Name = 
REMARK  12 active torsions:
REMARK  status: ('A' for Active; 'I' for Inactive)
REMARK    1  A    between atoms: C_1  and  O_2
REMARK    2  A    between atoms: O_2  and  C_3
REMARK    3  A    between atoms: C_5  and  C_6
REMARK    4  A    between atoms: C_6  and  C_7
REMARK    5  A    between atoms: C_6  and  C_8
REMARK    6  A    between atoms: C_9  and  O_10
REMARK    7  A    between atoms: O_10  and  C_11
REMARK    8  A    between atoms: C_17  and  N_18
REMARK    9  A    between atoms: C_20  and  C_21
REMARK   10  A    between atoms: C_21  and  C_22
REMARK   11  A    between atoms: C_21  and  C_23
REMARK   12  A    between atoms: C_21  and  O_24
REMARK                            x       y       z     vdW  Elec       q    Type
REMARK                         _______ _______ _______ _____ _____    ______ ____
ROOT
ATOM      1  C   UNL     1       5.473   4.602  17.249  0.00  0.00    +0.000 A 
ATOM      2  C   UNL     1       4.228   4.003  17.498  0.00  0.00    +0.000 A 
ATOM      3  C   UNL     1       3.229   4.631  18.260  0.00  0.00    +0.000 A 
ATOM      4  C   UNL     1       3.536   5.868  18.842  0.00  0.00    +0.000 A 
ATOM      5  C   UNL     1       4.766   6.487  18.562  0.00  0.00    +0.000 A 
ATOM      6  C   UNL     1       5.769   5.870  17.780  0.00  0.00    +0.000 A 
ENDROOT
BRANCH   3   7
ATOM      7  C   UNL     1       1.829   4.032  18.339  0.00  0.00    +0.000 C 
ATOM      8  C   UNL     1       1.857   2.629  17.717  0.00  0.00    +0.000 C 
ATOM      9  C   UNL     1       1.246   3.950  19.756  0.00  0.00    +0.000 C 
ENDBRANCH   3   7
BRANCH   6  10
ATOM     10  C   UNL     1       7.081   6.642  17.542  0.00  0.00    +0.000 C 
ATOM     11  C   UNL     1       6.799   8.151  17.469  0.00  0.00    +0.000 C 
ATOM     12  C   UNL     1       8.103   6.353  18.651  0.00  0.00    +0.000 C 
BRANCH  10  13
ATOM     13  O   UNL     1       7.753   6.338  16.317  0.00  0.00    +0.000 OA
ATOM     14  H   UNL     1       8.104   5.433  16.390  0.00  0.00    +0.000 HD
ENDBRANCH  10  13
ENDBRANCH   6  10
BRANCH   1  16
ATOM     15  C   UNL     1       6.091   3.697  15.139  0.00  0.00    +0.000 C 
ATOM     16  O   UNL     1       6.439   3.985  16.494  0.00  0.00    +0.000 OA
ENDBRANCH   1  16
BRANCH   4  17
ATOM     17  O   UNL     1       2.576   6.482  19.626  0.00  0.00    +0.000 OA
BRANCH  17  18
ATOM     18  C   UNL     1       2.098   7.715  19.254  0.00  0.00    +0.000 A 
ATOM     19  C   UNL     1       2.165   8.251  17.987  0.00  0.00    +0.000 A 
ATOM     20  N   UNL     1       1.617   9.435  17.639  0.00  0.00    +0.000 NA
ATOM     21  C   UNL     1       1.040  10.126  18.619  0.00  0.00    +0.000 A 
ATOM     22  N   UNL     1       0.421  11.309  18.275  0.00  0.00    +0.000 N 
ATOM     23  N   UNL     1       0.967   9.732  19.898  0.00  0.00    +0.000 NA
ATOM     24  C   UNL     1       1.512   8.539  20.206  0.00  0.00    +0.000 A 
ATOM     25  H   UNL     1       0.183  11.296  17.295  0.00  0.00    +0.000 HD
ATOM     26  H   UNL     1      -0.314  11.522  18.934  0.00  0.00    +0.000 HD
BRANCH  24  27
ATOM     27  N   UNL     1       1.504   8.207  21.562  0.00  0.00    +0.000 N 
ATOM     28  H   UNL     1       1.566   7.198  21.646  0.00  0.00    +0.000 HD
ATOM     29  H   UNL     1       2.213   8.705  22.087  0.00  0.00    +0.000 HD
ENDBRANCH  24  27
ENDBRANCH  17  18
ENDBRANCH   4  17
TORSDOF 7
ENDMDL
MODEL 3
REMARK VINA RESULT:      -6.7      3.294      5.891
REMARK  Name = 
REMARK  12 active torsions:
REMARK  status: ('A' for Active; 'I' for Inactive)
REMARK    1  A    between atoms: C_1  and  O_2
REMARK    2  A    between atoms: O_2  and  C_3
REMARK    3  A    between atoms: C_5  and  C_6
REMARK    4  A    between atoms: C_6  and  C_7
REMARK    5  A    between atoms: C_6  and  C_8
REMARK    6  A    between atoms: C_9  and  O_10
REMARK    7  A    between atoms: O_10  and  C_11
REMARK    8  A    between atoms: C_17  and  N_18
REMARK    9  A    between atoms: C_20  and  C_21
REMARK   10  A    between atoms: C_21  and  C_22
REMARK   11  A    between atoms: C_21  and  C_23
REMARK   12  A    between atoms: C_21  and  O_24
REMARK                            x       y       z     vdW  Elec       q    Type
REMARK                         _______ _______ _______ _____ _____    ______ ____
ROOT
ATOM      1  C   UNL     1       1.900   4.150  19.968  0.00  0.00    +0.000 A 
ATOM      2  C   UNL     1       1.761   5.536  20.141  0.00  0.00    +0.000 A 
ATOM      3  C   UNL     1       2.602   6.463  19.504  0.00  0.00    +0.000 A 
ATOM      4  C   UNL     1       3.656   5.960  18.729  0.00  0.00    +0.000 A 
ATOM      5  C   UNL     1       3.772   4.575  18.522  0.00  0.00    +0.000 A 
ATOM      6  C   UNL     1       2.919   3.637  19.145  0.00  0.00    +0.000 A 
ENDROOT
BRANCH   3   7
ATOM      7  C   UNL     1       2.292   7.955  19.565  0.00  0.00    +0.000 C 
ATOM      8  C   UNL     1       1.749   8.401  18.201  0.00  0.00    +0.000 C 
ATOM      9  C   UNL     1       1.302   8.360  20.665  0.00  0.00    +0.000 C 
ENDBRANCH   3   7
BRANCH   6  10
ATOM     10  C   UNL     1       3.143   2.142  18.848  0.00  0.00    +0.000 C 
ATOM     11  C   UNL     1       3.636   1.960  17.403  0.00  0.00    +0.000 C 
ATOM     12  C   UNL     1       4.154   1.527  19.827  0.00  0.00    +0.000 C 
BRANCH  10  13
ATOM     13  O   UNL     1       1.976   1.320  18.939  0.00  0.00    +0.000 OA
ATOM     14  H   UNL     1       1.211   1.908  19.064  0.00  0.00    +0.000 HD
ENDBRANCH  10  13
ENDBRANCH   6  10
BRANCH   1  16
ATOM     15  C   UNL     1       1.438   2.855  21.907  0.00  0.00    +0.000 C 
ATOM     16  O   UNL     1       1.067   3.252  20.587  0.00  0.00    +0.000 OA
ENDBRANCH   1  16
BRANCH   4  17
ATOM     17  O   UNL     1       4.515   6.860  18.124  0.00  0.00    +0.000 OA
BRANCH  17  18
ATOM     18  C   UNL     1       5.316   6.431  17.094  0.00  0.00    +0.000 A 
ATOM     19  C   UNL     1       4.901   6.196  15.802  0.00  0.00    +0.000 A 
ATOM     20  N   UNL     1       5.731   5.847  14.795  0.00  0.00    +0.000 NA
ATOM     21  C   UNL     1       7.008   5.668  15.122  0.00  0.00    +0.000 A 
ATOM     22  N   UNL     1       7.884   5.370  14.099  0.00  0.00    +0.000 N 
ATOM     23  N   UNL     1       7.514   5.809  16.356  0.00  0.00    +0.000 NA
ATOM     24  C   UNL     1       6.659   6.172  17.332  0.00  0.00    +0.000 A 
ATOM     25  H   UNL     1       7.502   5.687  13.221  0.00  0.00    +0.000 HD
ATOM     26  H   UNL     1       8.817   5.671  14.341  0.00  0.00    +0.000 HD
BRANCH  24  27
ATOM     27  N   UNL     1       7.201   6.214  18.618  0.00  0.00    +0.000 N 
ATOM     28  H   UNL     1       6.730   6.945  19.140  0.00  0.00    +0.000 HD
ATOM     29  H   UNL     1       7.185   5.310  19.075  0.00  0.00    +0.000 HD
ENDBRANCH  24  27
ENDBRANCH  17  18
ENDBRANCH   4  17
TORSDOF 7
ENDMDL
MODEL 4
REMARK VINA RESULT:      -6.3      3.198      5.765
REMARK  Name = 
REMARK  12 active torsions:
REMARK  status: ('A' for Active; 'I' for Inactive)
REMARK    1  A    between atoms: C_1  and  O_2
REMARK    2  A    between atoms: O_2  and  C_3
REMARK    3  A    between atoms: C_5  and  C_6
REMARK    4  A    between atoms: C_6  and  C_7
REMARK    5  A    between atoms: C_6  and  C_8
REMARK    6  A    between atoms: C_9  and  O_10
REMARK    7  A    between atoms: O_10  and  C_11
REMARK    8  A    between atoms: C_17  and  N_18
REMARK    9  A    between atoms: C_20  and  C_21
REMARK   10  A    between atoms: C_21  and  C_22
REMARK   11  A    between atoms: C_21  and  C_23
REMARK   12  A    between atoms: C_21  and  O_24
REMARK                            x       y       z     vdW  Elec       q    Type
REMARK                         _______ _______ _______ _____ _____    ______ ____
ROOT
ATOM      1  C   UNL     1       3.070   3.396  17.924  0.00  0.00    +0.000 A 
ATOM      2  C   UNL     1       3.921   4.218  17.168  0.00  0.00    +0.000 A 
ATOM      3  C   UNL     1       3.946   5.614  17.314  0.00  0.00    +0.000 A 
ATOM      4  C   UNL     1       3.028   6.192  18.202  0.00  0.00    +0.000 A 
ATOM      5  C   UNL     1       2.204   5.369  18.988  0.00  0.00    +0.000 A 
ATOM      6  C   UNL     1       2.186   3.962  18.860  0.00  0.00    +0.000 A 
ENDROOT
BRANCH   3   7
ATOM      7  C   UNL     1       5.018   6.444  16.618  0.00  0.00    +0.000 C 
ATOM      8  C   UNL     1       6.249   6.526  17.532  0.00  0.00    +0.000 C 
ATOM      9  C   UNL     1       5.441   5.919  15.239  0.00  0.00    +0.000 C 
ENDBRANCH   3   7
BRANCH   6  10
ATOM     10  C   UNL     1       1.238   3.161  19.773  0.00  0.00    +0.000 C 
ATOM     11  C   UNL     1       0.505   2.085  18.957  0.00  0.00    +0.000 C 
ATOM     12  C   UNL     1       2.003   2.509  20.933  0.00  0.00    +0.000 C 
BRANCH  10  13
ATOM     13  O   UNL     1       0.195   3.924  20.387  0.00  0.00    +0.000 OA
ATOM     14  H   UNL     1       0.496   4.848  20.436  0.00  0.00    +0.000 HD
ENDBRANCH  10  13
ENDBRANCH   6  10
BRANCH   1  16
ATOM     15  C   UNL     1       4.117   1.323  18.431  0.00  0.00    +0.000 C 
ATOM     16  O   UNL     1       3.061   2.031  17.781  0.00  0.00    +0.000 OA
ENDBRANCH   1  16
BRANCH   4  17
ATOM     17  O   UNL     1       3.014   7.569  18.331  0.00  0.00    +0.000 OA
BRANCH  17  18
ATOM     18  C   UNL     1       2.129   8.150  19.206  0.00  0.00    +0.000 A 
ATOM     19  C   UNL     1       1.831   7.686  20.469  0.00  0.00    +0.000 A 
ATOM     20  N   UNL     1       1.012   8.325  21.332  0.00  0.00    +0.000 NA
ATOM     21  C   UNL     1       0.428   9.432  20.878  0.00  0.00    +0.000 A 
ATOM     22  N   UNL     1      -0.364  10.133  21.763  0.00  0.00    +0.000 N 
ATOM     23  N   UNL     1       0.597   9.943  19.651  0.00  0.00    +0.000 NA
ATOM     24  C   UNL     1       1.432   9.288  18.822  0.00  0.00    +0.000 A 
ATOM     25  H   UNL     1      -0.097   9.910  22.710  0.00  0.00    +0.000 HD
ATOM     26  H   UNL     1      -0.399  11.108  21.503  0.00  0.00    +0.000 HD
BRANCH  24  27
ATOM     27  N   UNL     1       1.507   9.793  17.522  0.00  0.00    +0.000 N 
ATOM     28  H   UNL     1       1.079  10.713  17.511  0.00  0.00    +0.000 HD
ATOM     29  H   UNL     1       2.451   9.777  17.154  0.00  0.00    +0.000 HD
ENDBRANCH  24  27
ENDBRANCH  17  18
ENDBRANCH   4  17
TORSDOF 7
ENDMDL
MODEL 5
REMARK VINA RESULT:      -6.3      3.208      5.964
REMARK  Name = 
REMARK  12 active torsions:
REMARK  status: ('A' for Active; 'I' for Inactive)
REMARK    1  A    between atoms: C_1  and  O_2
REMARK    2  A    between atoms: O_2  and  C_3
REMARK    3  A    between atoms: C_5  and  C_6
REMARK    4  A    between atoms: C_6  and  C_7
REMARK    5  A    between atoms: C_6  and  C_8
REMARK    6  A    between atoms: C_9  and  O_10
REMARK    7  A    between atoms: O_10  and  C_11
REMARK    8  A    between atoms: C_17  and  N_18
REMARK    9  A    between atoms: C_20  and  C_21
REMARK   10  A    between atoms: C_21  and  C_22
REMARK   11  A    between atoms: C_21  and  C_23
REMARK   12  A    between atoms: C_21  and  O_24
REMARK                            x       y       z     vdW  Elec       q    Type
REMARK                         _______ _______ _______ _____ _____    ______ ____
ROOT
ATOM      1  C   UNL     1       2.946   3.625  17.928  0.00  0.00    +0.000 A 
ATOM      2  C   UNL     1       3.811   4.504  17.256  0.00  0.00    +0.000 A 
ATOM      3  C   UNL     1       3.939   5.856  17.615  0.00  0.00    +0.000 A 
ATOM      4  C   UNL     1       3.111   6.338  18.638  0.00  0.00    +0.000 A 
ATOM      5  C   UNL     1       2.275   5.452  19.338  0.00  0.00    +0.000 A 
ATOM      6  C   UNL     1       2.154   4.086  18.994  0.00  0.00    +0.000 A 
ENDROOT
BRANCH   3   7
ATOM      7  C   UNL     1       5.028   6.720  16.990  0.00  0.00    +0.000 C 
ATOM      8  C   UNL     1       6.361   6.415  17.688  0.00  0.00    +0.000 C 
ATOM      9  C   UNL     1       5.194   6.546  15.475  0.00  0.00    +0.000 C 
ENDBRANCH   3   7
BRANCH   6  10
ATOM     10  C   UNL     1       1.202   3.209  19.829  0.00  0.00    +0.000 C 
ATOM     11  C   UNL     1       0.470   2.211  18.918  0.00  0.00    +0.000 C 
ATOM     12  C   UNL     1       1.964   2.454  20.928  0.00  0.00    +0.000 C 
BRANCH  10  13
ATOM     13  O   UNL     1       0.159   3.916  20.506  0.00  0.00    +0.000 OA
ATOM     14  H   UNL     1       0.124   3.584  21.420  0.00  0.00    +0.000 HD
ENDBRANCH  10  13
ENDBRANCH   6  10
BRANCH   1  16
ATOM     15  C   UNL     1       3.870   1.438  18.044  0.00  0.00    +0.000 C 
ATOM     16  O   UNL     1       2.835   2.303  17.575  0.00  0.00    +0.000 OA
ENDBRANCH   1  16
BRANCH   4  17
ATOM     17  O   UNL     1       3.199   7.676  18.980  0.00  0.00    +0.000 OA
BRANCH  17  18
ATOM     18  C   UNL     1       2.067   8.452  18.940  0.00  0.00    +0.000 A 
ATOM     19  C   UNL     1       1.545   9.050  17.814  0.00  0.00    +0.000 A 
ATOM     20  N   UNL     1       0.387   9.744  17.798  0.00  0.00    +0.000 NA
ATOM     21  C   UNL     1      -0.226   9.893  18.970  0.00  0.00    +0.000 A 
ATOM     22  N   UNL     1      -1.440  10.546  18.967  0.00  0.00    +0.000 N 
ATOM     23  N   UNL     1       0.219   9.408  20.137  0.00  0.00    +0.000 NA
ATOM     24  C   UNL     1       1.369   8.707  20.113  0.00  0.00    +0.000 A 
ATOM     25  H   UNL     1      -1.853  10.494  18.047  0.00  0.00    +0.000 HD
ATOM     26  H   UNL     1      -2.001  10.244  19.750  0.00  0.00    +0.000 HD
BRANCH  24  27
ATOM     27  N   UNL     1       1.851   8.302  21.360  0.00  0.00    +0.000 N 
ATOM     28  H   UNL     1       2.865   8.290  21.322  0.00  0.00    +0.000 HD
ATOM     29  H   UNL     1       1.477   8.858  22.119  0.00  0.00    +0.000 HD
ENDBRANCH  24  27
ENDBRANCH  17  18
ENDBRANCH   4  17
TORSDOF 7
ENDMDL
MODEL 6
REMARK VINA RESULT:      -6.3      3.137      5.640
REMARK  Name = 
REMARK  12 active torsions:
REMARK  status: ('A' for Active; 'I' for Inactive)
REMARK    1  A    between atoms: C_1  and  O_2
REMARK    2  A    between atoms: O_2  and  C_3
REMARK    3  A    between atoms: C_5  and  C_6
REMARK    4  A    between atoms: C_6  and  C_7
REMARK    5  A    between atoms: C_6  and  C_8
REMARK    6  A    between atoms: C_9  and  O_10
REMARK    7  A    between atoms: O_10  and  C_11
REMARK    8  A    between atoms: C_17  and  N_18
REMARK    9  A    between atoms: C_20  and  C_21
REMARK   10  A    between atoms: C_21  and  C_22
REMARK   11  A    between atoms: C_21  and  C_23
REMARK   12  A    between atoms: C_21  and  O_24
REMARK                            x       y       z     vdW  Elec       q    Type
REMARK                         _______ _______ _______ _____ _____    ______ ____
ROOT
ATOM      1  C   UNL     1       4.071   3.114  19.053  0.00  0.00    +0.000 A 
ATOM      2  C   UNL     1       5.049   4.047  18.675  0.00  0.00    +0.000 A 
ATOM      3  C   UNL     1       4.749   5.397  18.430  0.00  0.00    +0.000 A 
ATOM      4  C   UNL     1       3.405   5.788  18.504  0.00  0.00    +0.000 A 
ATOM      5  C   UNL     1       2.430   4.865  18.921  0.00  0.00    +0.000 A 
ATOM      6  C   UNL     1       2.728   3.509  19.186  0.00  0.00    +0.000 A 
ENDROOT
BRANCH   3   7
ATOM      7  C   UNL     1       5.868   6.410  18.216  0.00  0.00    +0.000 C 
ATOM      8  C   UNL     1       7.154   5.866  18.853  0.00  0.00    +0.000 C 
ATOM      9  C   UNL     1       6.138   6.766  16.748  0.00  0.00    +0.000 C 
ENDBRANCH   3   7
BRANCH   6  10
ATOM     10  C   UNL     1       1.578   2.587  19.632  0.00  0.00    +0.000 C 
ATOM     11  C   UNL     1       1.468   2.585  21.165  0.00  0.00    +0.000 C 
ATOM     12  C   UNL     1       0.243   3.026  19.013  0.00  0.00    +0.000 C 
BRANCH  10  13
ATOM     13  O   UNL     1       1.727   1.210  19.277  0.00  0.00    +0.000 OA
ATOM     14  H   UNL     1       1.768   1.159  18.306  0.00  0.00    +0.000 HD
ENDBRANCH  10  13
ENDBRANCH   6  10
BRANCH   1  16
ATOM     15  C   UNL     1       5.009   1.523  20.550  0.00  0.00    +0.000 C 
ATOM     16  O   UNL     1       4.377   1.799  19.299  0.00  0.00    +0.000 OA
ENDBRANCH   1  16
BRANCH   4  17
ATOM     17  O   UNL     1       3.087   7.105  18.230  0.00  0.00    +0.000 OA
BRANCH  17  18
ATOM     18  C   UNL     1       2.279   7.794  19.103  0.00  0.00    +0.000 A 
ATOM     19  C   UNL     1       1.957   7.393  20.381  0.00  0.00    +0.000 A 
ATOM     20  N   UNL     1       1.221   8.131  21.239  0.00  0.00    +0.000 NA
ATOM     21  C   UNL     1       0.743   9.279  20.766  0.00  0.00    +0.000 A 
ATOM     22  N   UNL     1       0.040  10.078  21.644  0.00  0.00    +0.000 N 
ATOM     23  N   UNL     1       0.941   9.742  19.524  0.00  0.00    +0.000 NA
ATOM     24  C   UNL     1       1.693   8.986  18.700  0.00  0.00    +0.000 A 
ATOM     25  H   UNL     1       0.299   9.852  22.592  0.00  0.00    +0.000 HD
ATOM     26  H   UNL     1       0.099  11.045  21.359  0.00  0.00    +0.000 HD
BRANCH  24  27
ATOM     27  N   UNL     1       1.796   9.450  17.387  0.00  0.00    +0.000 N 
ATOM     28  H   UNL     1       0.907   9.859  17.121  0.00  0.00    +0.000 HD
ATOM     29  H   UNL     1       2.586  10.071  17.256  0.00  0.00    +0.000 HD
ENDBRANCH  24  27
ENDBRANCH  17  18
ENDBRANCH   4  17
TORSDOF 7
ENDMDL
MODEL 7
REMARK VINA RESULT:      -6.2      7.535     11.072
REMARK  Name = 
REMARK  12 active torsions:
REMARK  status: ('A' for Active; 'I' for Inactive)
REMARK    1  A    between atoms: C_1  and  O_2
REMARK    2  A    between atoms: O_2  and  C_3
REMARK    3  A    between atoms: C_5  and  C_6
REMARK    4  A    between atoms: C_6  and  C_7
REMARK    5  A    between atoms: C_6  and  C_8
REMARK    6  A    between atoms: C_9  and  O_10
REMARK    7  A    between atoms: O_10  and  C_11
REMARK    8  A    between atoms: C_17  and  N_18
REMARK    9  A    between atoms: C_20  and  C_21
REMARK   10  A    between atoms: C_21  and  C_22
REMARK   11  A    between atoms: C_21  and  C_23
REMARK   12  A    between atoms: C_21  and  O_24
REMARK                            x       y       z     vdW  Elec       q    Type
REMARK                         _______ _______ _______ _____ _____    ______ ____
ROOT
ATOM      1  C   UNL     1      -5.568  12.326  20.563  0.00  0.00    +0.000 A 
ATOM      2  C   UNL     1      -5.147  11.933  19.283  0.00  0.00    +0.000 A 
ATOM      3  C   UNL     1      -3.791  11.866  18.923  0.00  0.00    +0.000 A 
ATOM      4  C   UNL     1      -2.845  12.281  19.871  0.00  0.00    +0.000 A 
ATOM      5  C   UNL     1      -3.262  12.637  21.165  0.00  0.00    +0.000 A 
ATOM      6  C   UNL     1      -4.624  12.689  21.540  0.00  0.00    +0.000 A 
ENDROOT
BRANCH   3   7
ATOM      7  C   UNL     1      -3.375  11.249  17.593  0.00  0.00    +0.000 C 
ATOM      8  C   UNL     1      -3.261   9.728  17.770  0.00  0.00    +0.000 C 
ATOM      9  C   UNL     1      -4.316  11.556  16.421  0.00  0.00    +0.000 C 
ENDBRANCH   3   7
BRANCH   6  10
ATOM     10  C   UNL     1      -4.963  13.097  22.986  0.00  0.00    +0.000 C 
ATOM     11  C   UNL     1      -3.798  12.740  23.922  0.00  0.00    +0.000 C 
ATOM     12  C   UNL     1      -5.269  14.599  23.081  0.00  0.00    +0.000 C 
BRANCH  10  13
ATOM     13  O   UNL     1      -6.100  12.441  23.554  0.00  0.00    +0.000 OA
ATOM     14  H   UNL     1      -6.865  13.032  23.447  0.00  0.00    +0.000 HD
ENDBRANCH  10  13
ENDBRANCH   6  10
BRANCH   1  16
ATOM     15  C   UNL     1      -7.659  11.198  20.654  0.00  0.00    +0.000 C 
ATOM     16  O   UNL     1      -6.895  12.378  20.908  0.00  0.00    +0.000 OA
ENDBRANCH   1  16
BRANCH   4  17
ATOM     17  O   UNL     1      -1.508  12.257  19.520  0.00  0.00    +0.000 OA
BRANCH  17  18
ATOM     18  C   UNL     1      -0.662  11.391  20.169  0.00  0.00    +0.000 A 
ATOM     19  C   UNL     1      -0.452  11.347  21.530  0.00  0.00    +0.000 A 
ATOM     20  N   UNL     1       0.330  10.432  22.143  0.00  0.00    +0.000 NA
ATOM     21  C   UNL     1       0.969   9.578  21.347  0.00  0.00    +0.000 A 
ATOM     22  N   UNL     1       1.726   8.598  21.954  0.00  0.00    +0.000 N 
ATOM     23  N   UNL     1       0.889   9.565  20.009  0.00  0.00    +0.000 NA
ATOM     24  C   UNL     1       0.087  10.483  19.434  0.00  0.00    +0.000 A 
ATOM     25  H   UNL     1       1.396   8.448  22.896  0.00  0.00    +0.000 HD
ATOM     26  H   UNL     1       1.801   7.792  21.351  0.00  0.00    +0.000 HD
BRANCH  24  27
ATOM     27  N   UNL     1       0.104  10.502  18.037  0.00  0.00    +0.000 N 
ATOM     28  H   UNL     1       0.714  11.255  17.735  0.00  0.00    +0.000 HD
ATOM     29  H   UNL     1       0.340   9.601  17.640  0.00  0.00    +0.000 HD
ENDBRANCH  24  27
ENDBRANCH  17  18
ENDBRANCH   4  17
TORSDOF 7
ENDMDL
MODEL 8
REMARK VINA RESULT:      -6.0      3.011      6.166
REMARK  Name = 
REMARK  12 active torsions:
REMARK  status: ('A' for Active; 'I' for Inactive)
REMARK    1  A    between atoms: C_1  and  O_2
REMARK    2  A    between atoms: O_2  and  C_3
REMARK    3  A    between atoms: C_5  and  C_6
REMARK    4  A    between atoms: C_6  and  C_7
REMARK    5  A    between atoms: C_6  and  C_8
REMARK    6  A    between atoms: C_9  and  O_10
REMARK    7  A    between atoms: O_10  and  C_11
REMARK    8  A    between atoms: C_17  and  N_18
REMARK    9  A    between atoms: C_20  and  C_21
REMARK   10  A    between atoms: C_21  and  C_22
REMARK   11  A    between atoms: C_21  and  C_23
REMARK   12  A    between atoms: C_21  and  O_24
REMARK                            x       y       z     vdW  Elec       q    Type
REMARK                         _______ _______ _______ _____ _____    ______ ____
ROOT
ATOM      1  C   UNL     1       1.340   7.741  20.609  0.00  0.00    +0.000 A 
ATOM      2  C   UNL     1       1.597   6.389  20.884  0.00  0.00    +0.000 A 
ATOM      3  C   UNL     1       2.093   5.504  19.912  0.00  0.00    +0.000 A 
ATOM      4  C   UNL     1       2.263   5.995  18.611  0.00  0.00    +0.000 A 
ATOM      5  C   UNL     1       2.046   7.357  18.345  0.00  0.00    +0.000 A 
ATOM      6  C   UNL     1       1.564   8.258  19.321  0.00  0.00    +0.000 A 
ENDROOT
BRANCH   3   7
ATOM      7  C   UNL     1       2.540   4.100  20.305  0.00  0.00    +0.000 C 
ATOM      8  C   UNL     1       2.415   3.950  21.827  0.00  0.00    +0.000 C 
ATOM      9  C   UNL     1       1.770   2.965  19.616  0.00  0.00    +0.000 C 
ENDBRANCH   3   7
BRANCH   6  10
ATOM     10  C   UNL     1       1.358   9.729  18.913  0.00  0.00    +0.000 C 
ATOM     11  C   UNL     1       2.403  10.136  17.862  0.00  0.00    +0.000 C 
ATOM     12  C   UNL     1      -0.057   9.960  18.362  0.00  0.00    +0.000 C 
BRANCH  10  13
ATOM     13  O   UNL     1       1.514  10.682  19.968  0.00  0.00    +0.000 OA
ATOM     14  H   UNL     1       0.626  10.906  20.297  0.00  0.00    +0.000 HD
ENDBRANCH  10  13
ENDBRANCH   6  10
BRANCH   1  16
ATOM     15  C   UNL     1      -0.528   8.500  21.869  0.00  0.00    +0.000 C 
ATOM     16  O   UNL     1       0.865   8.600  21.568  0.00  0.00    +0.000 OA
ENDBRANCH   1  16
BRANCH   4  17
ATOM     17  O   UNL     1       2.717   5.127  17.635  0.00  0.00    +0.000 OA
BRANCH  17  18
ATOM     18  C   UNL     1       3.966   5.320  17.096  0.00  0.00    +0.000 A 
ATOM     19  C   UNL     1       4.448   6.511  16.599  0.00  0.00    +0.000 A 
ATOM     20  N   UNL     1       5.708   6.684  16.146  0.00  0.00    +0.000 NA
ATOM     21  C   UNL     1       6.483   5.602  16.136  0.00  0.00    +0.000 A 
ATOM     22  N   UNL     1       7.792   5.767  15.735  0.00  0.00    +0.000 N 
ATOM     23  N   UNL     1       6.104   4.381  16.539  0.00  0.00    +0.000 NA
ATOM     24  C   UNL     1       4.844   4.249  16.999  0.00  0.00    +0.000 A 
ATOM     25  H   UNL     1       8.065   6.731  15.855  0.00  0.00    +0.000 HD
ATOM     26  H   UNL     1       8.377   5.058  16.152  0.00  0.00    +0.000 HD
BRANCH  24  27
ATOM     27  N   UNL     1       4.455   2.947  17.317  0.00  0.00    +0.000 N 
ATOM     28  H   UNL     1       4.115   2.938  18.273  0.00  0.00    +0.000 HD
ATOM     29  H   UNL     1       3.799   2.564  16.646  0.00  0.00    +0.000 HD
ENDBRANCH  24  27
ENDBRANCH  17  18
ENDBRANCH   4  17
TORSDOF 7
ENDMDL
MODEL 9
REMARK VINA RESULT:      -6.0      4.293      6.473
REMARK  Name = 
REMARK  12 active torsions:
REMARK  status: ('A' for Active; 'I' for Inactive)
REMARK    1  A    between atoms: C_1  and  O_2
REMARK    2  A    between atoms: O_2  and  C_3
REMARK    3  A    between atoms: C_5  and  C_6
REMARK    4  A    between atoms: C_6  and  C_7
REMARK    5  A    between atoms: C_6  and  C_8
REMARK    6  A    between atoms: C_9  and  O_10
REMARK    7  A    between atoms: O_10  and  C_11
REMARK    8  A    between atoms: C_17  and  N_18
REMARK    9  A    between atoms: C_20  and  C_21
REMARK   10  A    between atoms: C_21  and  C_22
REMARK   11  A    between atoms: C_21  and  C_23
REMARK   12  A    between atoms: C_21  and  O_24
REMARK                            x       y       z     vdW  Elec       q    Type
REMARK                         _______ _______ _______ _____ _____    ______ ____
ROOT
ATOM      1  C   UNL     1       2.151   5.602  20.221  0.00  0.00    +0.000 A 
ATOM      2  C   UNL     1       1.602   6.642  20.987  0.00  0.00    +0.000 A 
ATOM      3  C   UNL     1       1.523   7.963  20.517  0.00  0.00    +0.000 A 
ATOM      4  C   UNL     1       2.083   8.242  19.263  0.00  0.00    +0.000 A 
ATOM      5  C   UNL     1       2.597   7.196  18.479  0.00  0.00    +0.000 A 
ATOM      6  C   UNL     1       2.664   5.861  18.937  0.00  0.00    +0.000 A 
ENDROOT
BRANCH   3   7
ATOM      7  C   UNL     1       0.745   9.015  21.300  0.00  0.00    +0.000 C 
ATOM      8  C   UNL     1      -0.657   8.467  21.604  0.00  0.00    +0.000 C 
ATOM      9  C   UNL     1       1.410   9.465  22.607  0.00  0.00    +0.000 C 
ENDBRANCH   3   7
BRANCH   6  10
ATOM     10  C   UNL     1       3.251   4.797  17.991  0.00  0.00    +0.000 C 
ATOM     11  C   UNL     1       2.120   4.070  17.247  0.00  0.00    +0.000 C 
ATOM     12  C   UNL     1       4.222   5.427  16.982  0.00  0.00    +0.000 C 
BRANCH  10  13
ATOM     13  O   UNL     1       3.992   3.754  18.632  0.00  0.00    +0.000 OA
ATOM     14  H   UNL     1       4.873   4.108  18.846  0.00  0.00    +0.000 HD
ENDBRANCH  10  13
ENDBRANCH   6  10
BRANCH   1  16
ATOM     15  C   UNL     1       0.996   3.568  20.648  0.00  0.00    +0.000 C 
ATOM     16  O   UNL     1       2.215   4.312  20.686  0.00  0.00    +0.000 OA
ENDBRANCH   1  16
BRANCH   4  17
ATOM     17  O   UNL     1       2.046   9.545  18.802  0.00  0.00    +0.000 OA
BRANCH  17  18
ATOM     18  C   UNL     1       0.837  10.096  18.451  0.00  0.00    +0.000 A 
ATOM     19  C   UNL     1      -0.156   9.460  17.740  0.00  0.00    +0.000 A 
ATOM     20  N   UNL     1      -1.363  10.005  17.477  0.00  0.00    +0.000 NA
ATOM     21  C   UNL     1      -1.545  11.257  17.892  0.00  0.00    +0.000 A 
ATOM     22  N   UNL     1      -2.790  11.813  17.688  0.00  0.00    +0.000 N 
ATOM     23  N   UNL     1      -0.631  11.993  18.539  0.00  0.00    +0.000 NA
ATOM     24  C   UNL     1       0.556  11.411  18.797  0.00  0.00    +0.000 A 
ATOM     25  H   UNL     1      -3.478  11.081  17.589  0.00  0.00    +0.000 HD
ATOM     26  H   UNL     1      -2.967  12.532  18.374  0.00  0.00    +0.000 HD
BRANCH  24  27
ATOM     27  N   UNL     1       1.516  12.239  19.384  0.00  0.00    +0.000 N 
ATOM     28  H   UNL     1       1.036  12.969  19.900  0.00  0.00    +0.000 HD
ATOM     29  H   UNL     1       2.188  11.721  19.938  0.00  0.00    +0.000 HD
ENDBRANCH  24  27
ENDBRANCH  17  18
ENDBRANCH   4  17
TORSDOF 7
ENDMDL
