MODEL 1
REMARK VINA RESULT:      -9.2      0.000      0.000
REMARK  Name = 
REMARK  10 active torsions:
REMARK  status: ('A' for Active; 'I' for Inactive)
REMARK    1  A    between atoms: C_1  and  C_2
REMARK    2  A    between atoms: C_2  and  C_3
REMARK    3  A    between atoms: C_2  and  C_4
REMARK    4  A    between atoms: C_6  and  C_7
REMARK    5  A    between atoms: N_9  and  C_10
REMARK    6  A    between atoms: C_14  and  C_15
REMARK    7  A    between atoms: C_15  and  C_16
REMARK    8  A    between atoms: C_15  and  N_17
REMARK    9  A    between atoms: N_17  and  C_18
REMARK   10  A    between atoms: C_23  and  C_24
REMARK                            x       y       z     vdW  Elec       q    Type
REMARK                         _______ _______ _______ _____ _____    ______ ____
ROOT
ATOM      1  C   UNL     1       3.119   6.269  18.565  0.00  0.00    +0.000 A 
ATOM      2  C   UNL     1       2.724   5.535  19.684  0.00  0.00    +0.000 A 
ATOM      3  C   UNL     1       1.876   6.090  20.637  0.00  0.00    +0.000 A 
ATOM      4  C   UNL     1       1.432   7.408  20.509  0.00  0.00    +0.000 A 
ATOM      5  C   UNL     1       1.821   8.212  19.421  0.00  0.00    +0.000 A 
ATOM      6  C   UNL     1       2.673   7.611  18.450  0.00  0.00    +0.000 A 
ENDROOT
BRANCH   1   9
ATOM      7  C   UNL     1       5.172   6.209  17.122  0.00  0.00    +0.000 C 
ATOM      8  O   UNL     1       5.778   7.131  17.659  0.00  0.00    +0.000 OA
ATOM      9  N   UNL     1       3.948   5.709  17.552  0.00  0.00    +0.000 N 
ATOM     10  H   UNL     1       3.628   4.854  17.126  0.00  0.00    +0.000 HD
BRANCH   7  13
ATOM     11  C   UNL     1       6.391   4.541  14.088  0.00  0.00    +0.000 A 
ATOM     12  C   UNL     1       5.260   4.845  14.895  0.00  0.00    +0.000 A 
ATOM     13  C   UNL     1       5.747   5.588  15.951  0.00  0.00    +0.000 A 
ATOM     14  N   UNL     1       7.090   5.706  15.700  0.00  0.00    +0.000 N 
ATOM     15  N   UNL     1       7.499   5.076  14.593  0.00  0.00    +0.000 NA
ATOM     16  H   UNL     1       7.769   6.199  16.274  0.00  0.00    +0.000 HD
BRANCH  11  18
ATOM     17  C   UNL     1       5.073   3.416  12.287  0.00  0.00    +0.000 C 
ATOM     18  C   UNL     1       6.470   3.705  12.840  0.00  0.00    +0.000 C 
ATOM     19  C   UNL     1       7.352   4.355  11.774  0.00  0.00    +0.000 C 
ENDBRANCH  11  18
ENDBRANCH   7  13
ENDBRANCH   1   9
BRANCH   5  20
ATOM     20  C   UNL     1       1.199   9.619  19.198  0.00  0.00    +0.000 C 
ATOM     21  C   UNL     1       1.783  10.280  17.923  0.00  0.00    +0.000 C 
BRANCH  20  22
ATOM     22  N   UNL     1      -0.315   9.750  19.442  0.00  0.00    +0.000 N 
ATOM     23  H   UNL     1      -0.759   8.972  18.963  0.00  0.00    +0.000 HD
BRANCH  22  24
ATOM     24  C   UNL     1      -0.971  10.928  19.013  0.00  0.00    +0.000 A 
ATOM     25  N   UNL     1      -0.853  11.950  19.853  0.00  0.00    +0.000 NA
ATOM     26  C   UNL     1      -1.939  12.664  20.052  0.00  0.00    +0.000 A 
ATOM     27  N   UNL     1      -3.131  12.383  19.536  0.00  0.00    +0.000 NA
ATOM     28  C   UNL     1      -3.169  11.526  18.507  0.00  0.00    +0.000 A 
ATOM     29  C   UNL     1      -4.383  11.317  17.845  0.00  0.00    +0.000 A 
ATOM     30  C   UNL     1      -4.439  11.101  16.469  0.00  0.00    +0.000 A 
ATOM     31  C   UNL     1      -3.239  10.903  15.801  0.00  0.00    +0.000 A 
ATOM     32  C   UNL     1      -2.054  10.712  16.560  0.00  0.00    +0.000 A 
ATOM     33  C   UNL     1      -2.006  10.965  17.998  0.00  0.00    +0.000 A 
BRANCH  29  34
ATOM     34  C   UNL     1      -5.575  11.166  18.711  0.00  0.00    +0.000 C 
ATOM     35  N   UNL     1      -6.110  12.270  19.310  0.00  0.00    +0.000 N 
ATOM     36  O   UNL     1      -6.122  10.077  18.846  0.00  0.00    +0.000 OA
ATOM     37  H   UNL     1      -5.614  13.142  19.399  0.00  0.00    +0.000 HD
ATOM     38  H   UNL     1      -6.864  12.076  19.960  0.00  0.00    +0.000 HD
ENDBRANCH  29  34
ENDBRANCH  22  24
ENDBRANCH  20  22
ENDBRANCH   5  20
TORSDOF 7
ENDMDL
MODEL 2
REMARK VINA RESULT:      -9.0      2.504      2.677
REMARK  Name = 
REMARK  10 active torsions:
REMARK  status: ('A' for Active; 'I' for Inactive)
REMARK    1  A    between atoms: C_1  and  C_2
REMARK    2  A    between atoms: C_2  and  C_3
REMARK    3  A    between atoms: C_2  and  C_4
REMARK    4  A    between atoms: C_6  and  C_7
REMARK    5  A    between atoms: N_9  and  C_10
REMARK    6  A    between atoms: C_14  and  C_15
REMARK    7  A    between atoms: C_15  and  C_16
REMARK    8  A    between atoms: C_15  and  N_17
REMARK    9  A    between atoms: N_17  and  C_18
REMARK   10  A    between atoms: C_23  and  C_24
REMARK                            x       y       z     vdW  Elec       q    Type
REMARK                         _______ _______ _______ _____ _____    ______ ____
ROOT
ATOM      1  C   UNL     1       3.212   5.836  18.575  0.00  0.00    +0.000 A 
ATOM      2  C   UNL     1       2.796   5.007  19.617  0.00  0.00    +0.000 A 
ATOM      3  C   UNL     1       1.983   5.495  20.635  0.00  0.00    +0.000 A 
ATOM      4  C   UNL     1       1.596   6.838  20.651  0.00  0.00    +0.000 A 
ATOM      5  C   UNL     1       2.010   7.733  19.647  0.00  0.00    +0.000 A 
ATOM      6  C   UNL     1       2.824   7.200  18.607  0.00  0.00    +0.000 A 
ENDROOT
BRANCH   1   9
ATOM      7  C   UNL     1       5.328   5.686  17.233  0.00  0.00    +0.000 C 
ATOM      8  O   UNL     1       6.044   6.345  17.980  0.00  0.00    +0.000 OA
ATOM      9  N   UNL     1       4.005   5.350  17.497  0.00  0.00    +0.000 N 
ATOM     10  H   UNL     1       3.571   4.678  16.884  0.00  0.00    +0.000 HD
BRANCH   7  13
ATOM     11  C   UNL     1       6.485   4.379  14.004  0.00  0.00    +0.000 A 
ATOM     12  C   UNL     1       5.411   4.449  14.933  0.00  0.00    +0.000 A 
ATOM     13  C   UNL     1       5.872   5.222  15.978  0.00  0.00    +0.000 A 
ATOM     14  N   UNL     1       7.142   5.582  15.607  0.00  0.00    +0.000 N 
ATOM     15  N   UNL     1       7.534   5.078  14.430  0.00  0.00    +0.000 NA
ATOM     16  H   UNL     1       7.785   6.161  16.140  0.00  0.00    +0.000 HD
BRANCH  11  18
ATOM     17  C   UNL     1       5.179   3.253  12.196  0.00  0.00    +0.000 C 
ATOM     18  C   UNL     1       6.573   3.621  12.708  0.00  0.00    +0.000 C 
ATOM     19  C   UNL     1       7.355   4.396  11.647  0.00  0.00    +0.000 C 
ENDBRANCH  11  18
ENDBRANCH   7  13
ENDBRANCH   1   9
BRANCH   5  20
ATOM     20  C   UNL     1       1.448   9.181  19.581  0.00  0.00    +0.000 C 
ATOM     21  C   UNL     1       1.698   9.801  18.182  0.00  0.00    +0.000 C 
BRANCH  20  22
ATOM     22  N   UNL     1       0.075   9.420  20.234  0.00  0.00    +0.000 N 
ATOM     23  H   UNL     1      -0.568   9.665  19.485  0.00  0.00    +0.000 HD
BRANCH  22  24
ATOM     24  C   UNL     1      -0.041  10.425  21.222  0.00  0.00    +0.000 A 
ATOM     25  N   UNL     1       0.092   9.978  22.467  0.00  0.00    +0.000 NA
ATOM     26  C   UNL     1      -0.746  10.473  23.351  0.00  0.00    +0.000 A 
ATOM     27  N   UNL     1      -1.737  11.310  23.064  0.00  0.00    +0.000 NA
ATOM     28  C   UNL     1      -1.689  11.938  21.883  0.00  0.00    +0.000 A 
ATOM     29  C   UNL     1      -2.632  12.932  21.606  0.00  0.00    +0.000 A 
ATOM     30  C   UNL     1      -2.304  14.068  20.867  0.00  0.00    +0.000 A 
ATOM     31  C   UNL     1      -1.064  14.093  20.244  0.00  0.00    +0.000 A 
ATOM     32  C   UNL     1      -0.293  12.901  20.202  0.00  0.00    +0.000 A 
ATOM     33  C   UNL     1      -0.638  11.727  21.001  0.00  0.00    +0.000 A 
BRANCH  29  34
ATOM     34  C   UNL     1      -4.029  12.626  21.992  0.00  0.00    +0.000 C 
ATOM     35  N   UNL     1      -4.336  12.453  23.310  0.00  0.00    +0.000 N 
ATOM     36  O   UNL     1      -4.920  12.585  21.151  0.00  0.00    +0.000 OA
ATOM     37  H   UNL     1      -3.641  12.284  24.020  0.00  0.00    +0.000 HD
ATOM     38  H   UNL     1      -5.288  12.153  23.488  0.00  0.00    +0.000 HD
ENDBRANCH  29  34
ENDBRANCH  22  24
ENDBRANCH  20  22
ENDBRANCH   5  20
TORSDOF 7
ENDMDL
MODEL 3
REMARK VINA RESULT:      -9.0      1.916      2.333
REMARK  Name = 
REMARK  10 active torsions:
REMARK  status: ('A' for Active; 'I' for Inactive)
REMARK    1  A    between atoms: C_1  and  C_2
REMARK    2  A    between atoms: C_2  and  C_3
REMARK    3  A    between atoms: C_2  and  C_4
REMARK    4  A    between atoms: C_6  and  C_7
REMARK    5  A    between atoms: N_9  and  C_10
REMARK    6  A    between atoms: C_14  and  C_15
REMARK    7  A    between atoms: C_15  and  C_16
REMARK    8  A    between atoms: C_15  and  N_17
REMARK    9  A    between atoms: N_17  and  C_18
REMARK   10  A    between atoms: C_23  and  C_24
REMARK                            x       y       z     vdW  Elec       q    Type
REMARK                         _______ _______ _______ _____ _____    ______ ____
ROOT
ATOM      1  C   UNL     1       3.056   6.152  18.526  0.00  0.00    +0.000 A 
ATOM      2  C   UNL     1       2.702   5.390  19.640  0.00  0.00    +0.000 A 
ATOM      3  C   UNL     1       1.915   5.931  20.653  0.00  0.00    +0.000 A 
ATOM      4  C   UNL     1       1.492   7.261  20.589  0.00  0.00    +0.000 A 
ATOM      5  C   UNL     1       1.843   8.092  19.508  0.00  0.00    +0.000 A 
ATOM      6  C   UNL     1       2.633   7.506  18.477  0.00  0.00    +0.000 A 
ENDROOT
BRANCH   1   9
ATOM      7  C   UNL     1       5.203   5.665  17.322  0.00  0.00    +0.000 C 
ATOM      8  O   UNL     1       5.973   6.070  18.188  0.00  0.00    +0.000 OA
ATOM      9  N   UNL     1       3.821   5.610  17.456  0.00  0.00    +0.000 N 
ATOM     10  H   UNL     1       3.311   5.116  16.740  0.00  0.00    +0.000 HD
BRANCH   7  13
ATOM     11  C   UNL     1       6.366   4.387  14.084  0.00  0.00    +0.000 A 
ATOM     12  C   UNL     1       5.308   4.411  15.033  0.00  0.00    +0.000 A 
ATOM     13  C   UNL     1       5.748   5.218  16.062  0.00  0.00    +0.000 A 
ATOM     14  N   UNL     1       6.990   5.639  15.662  0.00  0.00    +0.000 N 
ATOM     15  N   UNL     1       7.385   5.144  14.483  0.00  0.00    +0.000 NA
ATOM     16  H   UNL     1       7.612   6.257  16.177  0.00  0.00    +0.000 HD
BRANCH  11  18
ATOM     17  C   UNL     1       5.082   3.349  12.208  0.00  0.00    +0.000 C 
ATOM     18  C   UNL     1       6.469   3.621  12.793  0.00  0.00    +0.000 C 
ATOM     19  C   UNL     1       7.358   4.337  11.776  0.00  0.00    +0.000 C 
ENDBRANCH  11  18
ENDBRANCH   7  13
ENDBRANCH   1   9
BRANCH   5  20
ATOM     20  C   UNL     1       1.240   9.517  19.361  0.00  0.00    +0.000 C 
ATOM     21  C   UNL     1       0.706   9.739  17.923  0.00  0.00    +0.000 C 
BRANCH  20  22
ATOM     22  N   UNL     1       0.379  10.026  20.531  0.00  0.00    +0.000 N 
ATOM     23  H   UNL     1      -0.443   9.429  20.572  0.00  0.00    +0.000 HD
BRANCH  22  24
ATOM     24  C   UNL     1      -0.082  11.363  20.502  0.00  0.00    +0.000 A 
ATOM     25  N   UNL     1       0.722  12.227  21.111  0.00  0.00    +0.000 NA
ATOM     26  C   UNL     1       0.135  13.138  21.855  0.00  0.00    +0.000 A 
ATOM     27  N   UNL     1      -1.172  13.195  22.086  0.00  0.00    +0.000 NA
ATOM     28  C   UNL     1      -1.971  12.496  21.270  0.00  0.00    +0.000 A 
ATOM     29  C   UNL     1      -3.356  12.645  21.390  0.00  0.00    +0.000 A 
ATOM     30  C   UNL     1      -4.196  12.610  20.276  0.00  0.00    +0.000 A 
ATOM     31  C   UNL     1      -3.638  12.227  19.065  0.00  0.00    +0.000 A 
ATOM     32  C   UNL     1      -2.326  11.686  19.052  0.00  0.00    +0.000 A 
ATOM     33  C   UNL     1      -1.451  11.751  20.221  0.00  0.00    +0.000 A 
BRANCH  29  34
ATOM     34  C   UNL     1      -3.889  12.667  22.771  0.00  0.00    +0.000 C 
ATOM     35  N   UNL     1      -3.301  11.889  23.726  0.00  0.00    +0.000 N 
ATOM     36  O   UNL     1      -4.809  13.416  23.080  0.00  0.00    +0.000 OA
ATOM     37  H   UNL     1      -2.683  11.124  23.510  0.00  0.00    +0.000 HD
ATOM     38  H   UNL     1      -3.778  11.884  24.621  0.00  0.00    +0.000 HD
ENDBRANCH  29  34
ENDBRANCH  22  24
ENDBRANCH  20  22
ENDBRANCH   5  20
TORSDOF 7
ENDMDL
MODEL 4
REMARK VINA RESULT:      -8.9      2.609      3.096
REMARK  Name = 
REMARK  10 active torsions:
REMARK  status: ('A' for Active; 'I' for Inactive)
REMARK    1  A    between atoms: C_1  and  C_2
REMARK    2  A    between atoms: C_2  and  C_3
REMARK    3  A    between atoms: C_2  and  C_4
REMARK    4  A    between atoms: C_6  and  C_7
REMARK    5  A    between atoms: N_9  and  C_10
REMARK    6  A    between atoms: C_14  and  C_15
REMARK    7  A    between atoms: C_15  and  C_16
REMARK    8  A    between atoms: C_15  and  N_17
REMARK    9  A    between atoms: N_17  and  C_18
REMARK   10  A    between atoms: C_23  and  C_24
REMARK                            x       y       z     vdW  Elec       q    Type
REMARK                         _______ _______ _______ _____ _____    ______ ____
ROOT
ATOM      1  C   UNL     1       3.124   5.761  18.590  0.00  0.00    +0.000 A 
ATOM      2  C   UNL     1       2.744   4.882  19.605  0.00  0.00    +0.000 A 
ATOM      3  C   UNL     1       1.947   5.315  20.661  0.00  0.00    +0.000 A 
ATOM      4  C   UNL     1       1.541   6.649  20.742  0.00  0.00    +0.000 A 
ATOM      5  C   UNL     1       1.918   7.592  19.768  0.00  0.00    +0.000 A 
ATOM      6  C   UNL     1       2.716   7.116  18.688  0.00  0.00    +0.000 A 
ENDROOT
BRANCH   1   9
ATOM      7  C   UNL     1       5.287   5.306  17.402  0.00  0.00    +0.000 C 
ATOM      8  O   UNL     1       6.042   5.517  18.346  0.00  0.00    +0.000 OA
ATOM      9  N   UNL     1       3.899   5.334  17.476  0.00  0.00    +0.000 N 
ATOM     10  H   UNL     1       3.391   4.994  16.674  0.00  0.00    +0.000 HD
BRANCH   7  13
ATOM     11  C   UNL     1       6.537   4.406  14.070  0.00  0.00    +0.000 A 
ATOM     12  C   UNL     1       5.504   4.229  15.031  0.00  0.00    +0.000 A 
ATOM     13  C   UNL     1       5.858   5.017  16.107  0.00  0.00    +0.000 A 
ATOM     14  N   UNL     1       7.027   5.622  15.721  0.00  0.00    +0.000 N 
ATOM     15  N   UNL     1       7.458   5.262  14.506  0.00  0.00    +0.000 NA
ATOM     16  H   UNL     1       7.574   6.281  16.269  0.00  0.00    +0.000 HD
BRANCH  11  18
ATOM     17  C   UNL     1       5.357   3.351  12.136  0.00  0.00    +0.000 C 
ATOM     18  C   UNL     1       6.711   3.747  12.729  0.00  0.00    +0.000 C 
ATOM     19  C   UNL     1       7.491   4.631  11.756  0.00  0.00    +0.000 C 
ENDBRANCH  11  18
ENDBRANCH   7  13
ENDBRANCH   1   9
BRANCH   5  20
ATOM     20  C   UNL     1       1.333   9.032  19.775  0.00  0.00    +0.000 C 
ATOM     21  C   UNL     1       1.345   9.635  18.347  0.00  0.00    +0.000 C 
BRANCH  20  22
ATOM     22  N   UNL     1       0.080   9.264  20.638  0.00  0.00    +0.000 N 
ATOM     23  H   UNL     1      -0.700   9.384  19.998  0.00  0.00    +0.000 HD
BRANCH  22  24
ATOM     24  C   UNL     1       0.061  10.367  21.523  0.00  0.00    +0.000 A 
ATOM     25  N   UNL     1      -0.532  10.119  22.686  0.00  0.00    +0.000 NA
ATOM     26  C   UNL     1      -1.319  11.065  23.148  0.00  0.00    +0.000 A 
ATOM     27  N   UNL     1      -1.607  12.189  22.500  0.00  0.00    +0.000 NA
ATOM     28  C   UNL     1      -0.811  12.531  21.478  0.00  0.00    +0.000 A 
ATOM     29  C   UNL     1      -0.992  13.775  20.867  0.00  0.00    +0.000 A 
ATOM     30  C   UNL     1       0.085  14.518  20.385  0.00  0.00    +0.000 A 
ATOM     31  C   UNL     1       1.327  13.901  20.353  0.00  0.00    +0.000 A 
ATOM     32  C   UNL     1       1.406  12.504  20.594  0.00  0.00    +0.000 A 
ATOM     33  C   UNL     1       0.275  11.744  21.121  0.00  0.00    +0.000 A 
BRANCH  29  34
ATOM     34  C   UNL     1      -2.395  14.172  20.607  0.00  0.00    +0.000 C 
ATOM     35  N   UNL     1      -3.240  13.284  20.006  0.00  0.00    +0.000 N 
ATOM     36  O   UNL     1      -2.821  15.260  20.978  0.00  0.00    +0.000 OA
ATOM     37  H   UNL     1      -2.920  12.467  19.512  0.00  0.00    +0.000 HD
ATOM     38  H   UNL     1      -4.154  13.658  19.776  0.00  0.00    +0.000 HD
ENDBRANCH  29  34
ENDBRANCH  22  24
ENDBRANCH  20  22
ENDBRANCH   5  20
TORSDOF 7
ENDMDL
MODEL 5
REMARK VINA RESULT:      -8.9      1.625      2.147
REMARK  Name = 
REMARK  10 active torsions:
REMARK  status: ('A' for Active; 'I' for Inactive)
REMARK    1  A    between atoms: C_1  and  C_2
REMARK    2  A    between atoms: C_2  and  C_3
REMARK    3  A    between atoms: C_2  and  C_4
REMARK    4  A    between atoms: C_6  and  C_7
REMARK    5  A    between atoms: N_9  and  C_10
REMARK    6  A    between atoms: C_14  and  C_15
REMARK    7  A    between atoms: C_15  and  C_16
REMARK    8  A    between atoms: C_15  and  N_17
REMARK    9  A    between atoms: N_17  and  C_18
REMARK   10  A    between atoms: C_23  and  C_24
REMARK                            x       y       z     vdW  Elec       q    Type
REMARK                         _______ _______ _______ _____ _____    ______ ____
ROOT
ATOM      1  C   UNL     1       3.275   5.503  18.745  0.00  0.00    +0.000 A 
ATOM      2  C   UNL     1       2.898   4.593  19.733  0.00  0.00    +0.000 A 
ATOM      3  C   UNL     1       2.041   4.973  20.761  0.00  0.00    +0.000 A 
ATOM      4  C   UNL     1       1.569   6.286  20.843  0.00  0.00    +0.000 A 
ATOM      5  C   UNL     1       1.940   7.259  19.897  0.00  0.00    +0.000 A 
ATOM      6  C   UNL     1       2.802   6.837  18.844  0.00  0.00    +0.000 A 
ENDROOT
BRANCH   1   9
ATOM      7  C   UNL     1       5.279   5.771  17.257  0.00  0.00    +0.000 C 
ATOM      8  O   UNL     1       5.827   6.676  17.879  0.00  0.00    +0.000 OA
ATOM      9  N   UNL     1       4.113   5.128  17.657  0.00  0.00    +0.000 N 
ATOM     10  H   UNL     1       3.848   4.301  17.145  0.00  0.00    +0.000 HD
BRANCH   7  13
ATOM     11  C   UNL     1       6.535   4.531  14.039  0.00  0.00    +0.000 A 
ATOM     12  C   UNL     1       5.428   4.594  14.929  0.00  0.00    +0.000 A 
ATOM     13  C   UNL     1       5.863   5.332  16.011  0.00  0.00    +0.000 A 
ATOM     14  N   UNL     1       7.152   5.679  15.696  0.00  0.00    +0.000 N 
ATOM     15  N   UNL     1       7.579   5.200  14.522  0.00  0.00    +0.000 NA
ATOM     16  H   UNL     1       7.783   6.234  16.268  0.00  0.00    +0.000 HD
BRANCH  11  18
ATOM     17  C   UNL     1       5.289   3.351  12.223  0.00  0.00    +0.000 C 
ATOM     18  C   UNL     1       6.660   3.805  12.727  0.00  0.00    +0.000 C 
ATOM     19  C   UNL     1       7.372   4.654  11.673  0.00  0.00    +0.000 C 
ENDBRANCH  11  18
ENDBRANCH   7  13
ENDBRANCH   1   9
BRANCH   5  20
ATOM     20  C   UNL     1       1.288   8.670  19.898  0.00  0.00    +0.000 C 
ATOM     21  C   UNL     1       0.731   9.014  21.304  0.00  0.00    +0.000 C 
BRANCH  20  22
ATOM     22  N   UNL     1       2.037   9.777  19.136  0.00  0.00    +0.000 N 
ATOM     23  H   UNL     1       2.643  10.240  19.808  0.00  0.00    +0.000 HD
BRANCH  22  24
ATOM     24  C   UNL     1       1.284  10.788  18.494  0.00  0.00    +0.000 A 
ATOM     25  N   UNL     1       1.915  11.953  18.394  0.00  0.00    +0.000 NA
ATOM     26  C   UNL     1       1.194  13.025  18.641  0.00  0.00    +0.000 A 
ATOM     27  N   UNL     1      -0.071  13.005  19.046  0.00  0.00    +0.000 NA
ATOM     28  C   UNL     1      -0.750  11.861  18.888  0.00  0.00    +0.000 A 
ATOM     29  C   UNL     1      -2.120  11.843  19.167  0.00  0.00    +0.000 A 
ATOM     30  C   UNL     1      -3.010  11.073  18.418  0.00  0.00    +0.000 A 
ATOM     31  C   UNL     1      -2.473  10.172  17.511  0.00  0.00    +0.000 A 
ATOM     32  C   UNL     1      -1.076   9.917  17.541  0.00  0.00    +0.000 A 
ATOM     33  C   UNL     1      -0.154  10.747  18.312  0.00  0.00    +0.000 A 
BRANCH  29  34
ATOM     34  C   UNL     1      -2.539  12.547  20.401  0.00  0.00    +0.000 C 
ATOM     35  N   UNL     1      -1.776  12.433  21.527  0.00  0.00    +0.000 N 
ATOM     36  O   UNL     1      -3.525  13.275  20.407  0.00  0.00    +0.000 OA
ATOM     37  H   UNL     1      -1.078  11.717  21.649  0.00  0.00    +0.000 HD
ATOM     38  H   UNL     1      -2.174  12.862  22.354  0.00  0.00    +0.000 HD
ENDBRANCH  29  34
ENDBRANCH  22  24
ENDBRANCH  20  22
ENDBRANCH   5  20
TORSDOF 7
ENDMDL
MODEL 6
REMARK VINA RESULT:      -8.8      1.248      1.507
REMARK  Name = 
REMARK  10 active torsions:
REMARK  status: ('A' for Active; 'I' for Inactive)
REMARK    1  A    between atoms: C_1  and  C_2
REMARK    2  A    between atoms: C_2  and  C_3
REMARK    3  A    between atoms: C_2  and  C_4
REMARK    4  A    between atoms: C_6  and  C_7
REMARK    5  A    between atoms: N_9  and  C_10
REMARK    6  A    between atoms: C_14  and  C_15
REMARK    7  A    between atoms: C_15  and  C_16
REMARK    8  A    between atoms: C_15  and  N_17
REMARK    9  A    between atoms: N_17  and  C_18
REMARK   10  A    between atoms: C_23  and  C_24
REMARK                            x       y       z     vdW  Elec       q    Type
REMARK                         _______ _______ _______ _____ _____    ______ ____
ROOT
ATOM      1  C   UNL     1       3.030   6.310  18.457  0.00  0.00    +0.000 A 
ATOM      2  C   UNL     1       2.578   5.557  19.541  0.00  0.00    +0.000 A 
ATOM      3  C   UNL     1       1.783   6.132  20.527  0.00  0.00    +0.000 A 
ATOM      4  C   UNL     1       1.449   7.488  20.467  0.00  0.00    +0.000 A 
ATOM      5  C   UNL     1       1.902   8.309  19.418  0.00  0.00    +0.000 A 
ATOM      6  C   UNL     1       2.697   7.689  18.412  0.00  0.00    +0.000 A 
ENDROOT
BRANCH   1   9
ATOM      7  C   UNL     1       5.191   5.783  17.293  0.00  0.00    +0.000 C 
ATOM      8  O   UNL     1       5.951   6.211  18.156  0.00  0.00    +0.000 OA
ATOM      9  N   UNL     1       3.806   5.735  17.412  0.00  0.00    +0.000 N 
ATOM     10  H   UNL     1       3.303   5.221  16.705  0.00  0.00    +0.000 HD
BRANCH   7  13
ATOM     11  C   UNL     1       6.381   4.422  14.099  0.00  0.00    +0.000 A 
ATOM     12  C   UNL     1       5.294   4.516  15.010  0.00  0.00    +0.000 A 
ATOM     13  C   UNL     1       5.749   5.297  16.053  0.00  0.00    +0.000 A 
ATOM     14  N   UNL     1       7.028   5.638  15.696  0.00  0.00    +0.000 N 
ATOM     15  N   UNL     1       7.432   5.114  14.532  0.00  0.00    +0.000 NA
ATOM     16  H   UNL     1       7.669   6.217  16.231  0.00  0.00    +0.000 HD
BRANCH  11  18
ATOM     17  C   UNL     1       5.092   3.391  12.222  0.00  0.00    +0.000 C 
ATOM     18  C   UNL     1       6.480   3.646  12.814  0.00  0.00    +0.000 C 
ATOM     19  C   UNL     1       7.385   4.342  11.797  0.00  0.00    +0.000 C 
ENDBRANCH  11  18
ENDBRANCH   7  13
ENDBRANCH   1   9
BRANCH   5  20
ATOM     20  C   UNL     1       1.398   9.773  19.269  0.00  0.00    +0.000 C 
ATOM     21  C   UNL     1       1.891  10.388  17.934  0.00  0.00    +0.000 C 
BRANCH  20  22
ATOM     22  N   UNL     1      -0.056  10.049  19.690  0.00  0.00    +0.000 N 
ATOM     23  H   UNL     1      -0.629   9.331  19.256  0.00  0.00    +0.000 HD
BRANCH  22  24
ATOM     24  C   UNL     1      -0.633  11.296  19.357  0.00  0.00    +0.000 A 
ATOM     25  N   UNL     1       0.077  12.346  19.755  0.00  0.00    +0.000 NA
ATOM     26  C   UNL     1      -0.605  13.345  20.270  0.00  0.00    +0.000 A 
ATOM     27  N   UNL     1      -1.916  13.332  20.481  0.00  0.00    +0.000 NA
ATOM     28  C   UNL     1      -2.632  12.396  19.845  0.00  0.00    +0.000 A 
ATOM     29  C   UNL     1      -4.028  12.440  19.926  0.00  0.00    +0.000 A 
ATOM     30  C   UNL     1      -4.835  12.077  18.848  0.00  0.00    +0.000 A 
ATOM     31  C   UNL     1      -4.220  11.482  17.757  0.00  0.00    +0.000 A 
ATOM     32  C   UNL     1      -2.864  11.075  17.870  0.00  0.00    +0.000 A 
ATOM     33  C   UNL     1      -2.024  11.484  18.993  0.00  0.00    +0.000 A 
BRANCH  29  34
ATOM     34  C   UNL     1      -4.591  12.725  21.266  0.00  0.00    +0.000 C 
ATOM     35  N   UNL     1      -3.910  12.320  22.377  0.00  0.00    +0.000 N 
ATOM     36  O   UNL     1      -5.625  13.371  21.389  0.00  0.00    +0.000 OA
ATOM     37  H   UNL     1      -3.172  11.634  22.351  0.00  0.00    +0.000 HD
ATOM     38  H   UNL     1      -4.401  12.466  23.252  0.00  0.00    +0.000 HD
ENDBRANCH  29  34
ENDBRANCH  22  24
ENDBRANCH  20  22
ENDBRANCH   5  20
TORSDOF 7
ENDMDL
MODEL 7
REMARK VINA RESULT:      -8.5      2.413      3.693
REMARK  Name = 
REMARK  10 active torsions:
REMARK  status: ('A' for Active; 'I' for Inactive)
REMARK    1  A    between atoms: C_1  and  C_2
REMARK    2  A    between atoms: C_2  and  C_3
REMARK    3  A    between atoms: C_2  and  C_4
REMARK    4  A    between atoms: C_6  and  C_7
REMARK    5  A    between atoms: N_9  and  C_10
REMARK    6  A    between atoms: C_14  and  C_15
REMARK    7  A    between atoms: C_15  and  C_16
REMARK    8  A    between atoms: C_15  and  N_17
REMARK    9  A    between atoms: N_17  and  C_18
REMARK   10  A    between atoms: C_23  and  C_24
REMARK                            x       y       z     vdW  Elec       q    Type
REMARK                         _______ _______ _______ _____ _____    ______ ____
ROOT
ATOM      1  C   UNL     1       3.211   6.100  18.641  0.00  0.00    +0.000 A 
ATOM      2  C   UNL     1       2.878   5.341  19.763  0.00  0.00    +0.000 A 
ATOM      3  C   UNL     1       2.041   5.855  20.749  0.00  0.00    +0.000 A 
ATOM      4  C   UNL     1       1.546   7.158  20.650  0.00  0.00    +0.000 A 
ATOM      5  C   UNL     1       1.872   7.986  19.560  0.00  0.00    +0.000 A 
ATOM      6  C   UNL     1       2.714   7.426  18.556  0.00  0.00    +0.000 A 
ENDROOT
BRANCH   1   9
ATOM      7  C   UNL     1       5.283   6.046  17.226  0.00  0.00    +0.000 C 
ATOM      8  O   UNL     1       5.928   6.886  17.846  0.00  0.00    +0.000 OA
ATOM      9  N   UNL     1       4.027   5.581  17.596  0.00  0.00    +0.000 N 
ATOM     10  H   UNL     1       3.668   4.783  17.096  0.00  0.00    +0.000 HD
BRANCH   7  13
ATOM     11  C   UNL     1       6.473   4.535  14.099  0.00  0.00    +0.000 A 
ATOM     12  C   UNL     1       5.364   4.737  14.966  0.00  0.00    +0.000 A 
ATOM     13  C   UNL     1       5.844   5.494  16.015  0.00  0.00    +0.000 A 
ATOM     14  N   UNL     1       7.161   5.717  15.704  0.00  0.00    +0.000 N 
ATOM     15  N   UNL     1       7.562   5.142  14.564  0.00  0.00    +0.000 NA
ATOM     16  H   UNL     1       7.829   6.248  16.257  0.00  0.00    +0.000 HD
BRANCH  11  18
ATOM     17  C   UNL     1       5.155   3.367  12.326  0.00  0.00    +0.000 C 
ATOM     18  C   UNL     1       6.553   3.732  12.830  0.00  0.00    +0.000 C 
ATOM     19  C   UNL     1       7.348   4.460  11.745  0.00  0.00    +0.000 C 
ENDBRANCH  11  18
ENDBRANCH   7  13
ENDBRANCH   1   9
BRANCH   5  20
ATOM     20  C   UNL     1       1.194   9.372  19.373  0.00  0.00    +0.000 C 
ATOM     21  C   UNL     1       1.629  10.018  18.033  0.00  0.00    +0.000 C 
BRANCH  20  22
ATOM     22  N   UNL     1      -0.291   9.472  19.766  0.00  0.00    +0.000 N 
ATOM     23  H   UNL     1      -0.800   8.837  19.157  0.00  0.00    +0.000 HD
BRANCH  22  24
ATOM     24  C   UNL     1      -0.932  10.730  19.678  0.00  0.00    +0.000 A 
ATOM     25  N   UNL     1      -1.555  10.941  18.523  0.00  0.00    +0.000 NA
ATOM     26  C   UNL     1      -1.420  12.141  18.004  0.00  0.00    +0.000 A 
ATOM     27  N   UNL     1      -0.656  13.101  18.513  0.00  0.00    +0.000 NA
ATOM     28  C   UNL     1      -0.259  12.961  19.785  0.00  0.00    +0.000 A 
ATOM     29  C   UNL     1       0.422  14.016  20.401  0.00  0.00    +0.000 A 
ATOM     30  C   UNL     1       0.242  14.314  21.751  0.00  0.00    +0.000 A 
ATOM     31  C   UNL     1      -0.484  13.414  22.516  0.00  0.00    +0.000 A 
ATOM     32  C   UNL     1      -0.815  12.150  21.960  0.00  0.00    +0.000 A 
ATOM     33  C   UNL     1      -0.642  11.860  20.538  0.00  0.00    +0.000 A 
BRANCH  29  34
ATOM     34  C   UNL     1       1.466  14.678  19.584  0.00  0.00    +0.000 C 
ATOM     35  N   UNL     1       1.118  15.714  18.768  0.00  0.00    +0.000 N 
ATOM     36  O   UNL     1       2.642  14.348  19.679  0.00  0.00    +0.000 OA
ATOM     37  H   UNL     1       0.166  15.908  18.499  0.00  0.00    +0.000 HD
ATOM     38  H   UNL     1       1.864  16.053  18.172  0.00  0.00    +0.000 HD
ENDBRANCH  29  34
ENDBRANCH  22  24
ENDBRANCH  20  22
ENDBRANCH   5  20
TORSDOF 7
ENDMDL
MODEL 8
REMARK VINA RESULT:      -8.4      2.868     11.071
REMARK  Name = 
REMARK  10 active torsions:
REMARK  status: ('A' for Active; 'I' for Inactive)
REMARK    1  A    between atoms: C_1  and  C_2
REMARK    2  A    between atoms: C_2  and  C_3
REMARK    3  A    between atoms: C_2  and  C_4
REMARK    4  A    between atoms: C_6  and  C_7
REMARK    5  A    between atoms: N_9  and  C_10
REMARK    6  A    between atoms: C_14  and  C_15
REMARK    7  A    between atoms: C_15  and  C_16
REMARK    8  A    between atoms: C_15  and  N_17
REMARK    9  A    between atoms: N_17  and  C_18
REMARK   10  A    between atoms: C_23  and  C_24
REMARK                            x       y       z     vdW  Elec       q    Type
REMARK                         _______ _______ _______ _____ _____    ______ ____
ROOT
ATOM      1  C   UNL     1       1.176   9.795  19.466  0.00  0.00    +0.000 A 
ATOM      2  C   UNL     1       1.710  10.187  18.238  0.00  0.00    +0.000 A 
ATOM      3  C   UNL     1       2.418   9.286  17.448  0.00  0.00    +0.000 A 
ATOM      4  C   UNL     1       2.638   7.978  17.887  0.00  0.00    +0.000 A 
ATOM      5  C   UNL     1       2.155   7.531  19.130  0.00  0.00    +0.000 A 
ATOM      6  C   UNL     1       1.416   8.468  19.909  0.00  0.00    +0.000 A 
ENDROOT
BRANCH   1   9
ATOM      7  C   UNL     1      -0.908  11.066  20.047  0.00  0.00    +0.000 C 
ATOM      8  O   UNL     1      -1.643  10.578  19.194  0.00  0.00    +0.000 OA
ATOM      9  N   UNL     1       0.409  10.682  20.271  0.00  0.00    +0.000 N 
ATOM     10  H   UNL     1       0.858  11.045  21.098  0.00  0.00    +0.000 HD
BRANCH   7  13
ATOM     11  C   UNL     1      -2.220  13.581  22.377  0.00  0.00    +0.000 A 
ATOM     12  C   UNL     1      -1.770  12.242  22.216  0.00  0.00    +0.000 A 
ATOM     13  C   UNL     1      -1.423  12.124  20.885  0.00  0.00    +0.000 A 
ATOM     14  N   UNL     1      -1.649  13.369  20.358  0.00  0.00    +0.000 N 
ATOM     15  N   UNL     1      -2.137  14.256  21.233  0.00  0.00    +0.000 NA
ATOM     16  H   UNL     1      -1.496  13.652  19.394  0.00  0.00    +0.000 HD
BRANCH  11  18
ATOM     17  C   UNL     1      -3.679  13.300  24.386  0.00  0.00    +0.000 C 
ATOM     18  C   UNL     1      -2.779  14.256  23.600  0.00  0.00    +0.000 C 
ATOM     19  C   UNL     1      -1.674  14.821  24.493  0.00  0.00    +0.000 C 
ENDBRANCH  11  18
ENDBRANCH   7  13
ENDBRANCH   1   9
BRANCH   5  20
ATOM     20  C   UNL     1       2.261   6.036  19.543  0.00  0.00    +0.000 C 
ATOM     21  C   UNL     1       1.322   5.729  20.737  0.00  0.00    +0.000 C 
BRANCH  20  22
ATOM     22  N   UNL     1       2.324   5.007  18.400  0.00  0.00    +0.000 N 
ATOM     23  H   UNL     1       1.568   4.346  18.558  0.00  0.00    +0.000 HD
BRANCH  22  24
ATOM     24  C   UNL     1       3.507   4.250  18.233  0.00  0.00    +0.000 A 
ATOM     25  N   UNL     1       3.698   3.329  19.172  0.00  0.00    +0.000 NA
ATOM     26  C   UNL     1       4.927   3.211  19.623  0.00  0.00    +0.000 A 
ATOM     27  N   UNL     1       5.942   3.988  19.260  0.00  0.00    +0.000 NA
ATOM     28  C   UNL     1       5.791   4.716  18.146  0.00  0.00    +0.000 A 
ATOM     29  C   UNL     1       6.886   5.432  17.653  0.00  0.00    +0.000 A 
ATOM     30  C   UNL     1       7.105   5.585  16.284  0.00  0.00    +0.000 A 
ATOM     31  C   UNL     1       6.098   5.172  15.423  0.00  0.00    +0.000 A 
ATOM     32  C   UNL     1       4.831   4.828  15.963  0.00  0.00    +0.000 A 
ATOM     33  C   UNL     1       4.623   4.649  17.398  0.00  0.00    +0.000 A 
BRANCH  29  34
ATOM     34  C   UNL     1       7.692   6.159  18.660  0.00  0.00    +0.000 C 
ATOM     35  N   UNL     1       8.180   5.482  19.740  0.00  0.00    +0.000 N 
ATOM     36  O   UNL     1       7.976   7.341  18.505  0.00  0.00    +0.000 OA
ATOM     37  H   UNL     1       7.835   4.580  20.027  0.00  0.00    +0.000 HD
ATOM     38  H   UNL     1       8.640   6.063  20.432  0.00  0.00    +0.000 HD
ENDBRANCH  29  34
ENDBRANCH  22  24
ENDBRANCH  20  22
ENDBRANCH   5  20
TORSDOF 7
ENDMDL
MODEL 9
REMARK VINA RESULT:      -8.4      3.131     10.897
REMARK  Name = 
REMARK  10 active torsions:
REMARK  status: ('A' for Active; 'I' for Inactive)
REMARK    1  A    between atoms: C_1  and  C_2
REMARK    2  A    between atoms: C_2  and  C_3
REMARK    3  A    between atoms: C_2  and  C_4
REMARK    4  A    between atoms: C_6  and  C_7
REMARK    5  A    between atoms: N_9  and  C_10
REMARK    6  A    between atoms: C_14  and  C_15
REMARK    7  A    between atoms: C_15  and  C_16
REMARK    8  A    between atoms: C_15  and  N_17
REMARK    9  A    between atoms: N_17  and  C_18
REMARK   10  A    between atoms: C_23  and  C_24
REMARK                            x       y       z     vdW  Elec       q    Type
REMARK                         _______ _______ _______ _____ _____    ______ ____
ROOT
ATOM      1  C   UNL     1       1.476   8.882  19.707  0.00  0.00    +0.000 A 
ATOM      2  C   UNL     1       1.966   9.290  18.467  0.00  0.00    +0.000 A 
ATOM      3  C   UNL     1       2.598   8.387  17.617  0.00  0.00    +0.000 A 
ATOM      4  C   UNL     1       2.784   7.058  18.007  0.00  0.00    +0.000 A 
ATOM      5  C   UNL     1       2.343   6.592  19.259  0.00  0.00    +0.000 A 
ATOM      6  C   UNL     1       1.682   7.534  20.099  0.00  0.00    +0.000 A 
ENDROOT
BRANCH   1   9
ATOM      7  C   UNL     1      -0.442  10.375  20.329  0.00  0.00    +0.000 C 
ATOM      8  O   UNL     1      -1.174  10.107  19.381  0.00  0.00    +0.000 OA
ATOM      9  N   UNL     1       0.786   9.774  20.575  0.00  0.00    +0.000 N 
ATOM     10  H   UNL     1       1.220   9.966  21.465  0.00  0.00    +0.000 HD
BRANCH   7  13
ATOM     11  C   UNL     1      -1.549  13.121  22.500  0.00  0.00    +0.000 A 
ATOM     12  C   UNL     1      -1.337  12.684  21.163  0.00  0.00    +0.000 A 
ATOM     13  C   UNL     1      -0.862  11.393  21.264  0.00  0.00    +0.000 A 
ATOM     14  N   UNL     1      -0.850  11.134  22.611  0.00  0.00    +0.000 N 
ATOM     15  N   UNL     1      -1.248  12.161  23.371  0.00  0.00    +0.000 NA
ATOM     16  H   UNL     1      -0.559  10.268  23.056  0.00  0.00    +0.000 HD
BRANCH  11  18
ATOM     17  C   UNL     1      -3.142  14.316  24.009  0.00  0.00    +0.000 C 
ATOM     18  C   UNL     1      -2.001  14.465  23.000  0.00  0.00    +0.000 C 
ATOM     19  C   UNL     1      -0.846  15.267  23.601  0.00  0.00    +0.000 C 
ENDBRANCH  11  18
ENDBRANCH   7  13
ENDBRANCH   1   9
BRANCH   5  20
ATOM     20  C   UNL     1       2.407   5.082  19.622  0.00  0.00    +0.000 C 
ATOM     21  C   UNL     1       1.199   4.680  20.507  0.00  0.00    +0.000 C 
BRANCH  20  22
ATOM     22  N   UNL     1       2.821   4.118  18.496  0.00  0.00    +0.000 N 
ATOM     23  H   UNL     1       2.311   3.252  18.648  0.00  0.00    +0.000 HD
BRANCH  22  24
ATOM     24  C   UNL     1       4.187   3.775  18.364  0.00  0.00    +0.000 A 
ATOM     25  N   UNL     1       4.736   3.298  19.476  0.00  0.00    +0.000 NA
ATOM     26  C   UNL     1       5.946   3.730  19.755  0.00  0.00    +0.000 A 
ATOM     27  N   UNL     1       6.600   4.647  19.050  0.00  0.00    +0.000 NA
ATOM     28  C   UNL     1       6.150   4.911  17.817  0.00  0.00    +0.000 A 
ATOM     29  C   UNL     1       6.895   5.760  16.993  0.00  0.00    +0.000 A 
ATOM     30  C   UNL     1       6.982   5.553  15.616  0.00  0.00    +0.000 A 
ATOM     31  C   UNL     1       6.150   4.595  15.057  0.00  0.00    +0.000 A 
ATOM     32  C   UNL     1       5.114   4.036  15.852  0.00  0.00    +0.000 A 
ATOM     33  C   UNL     1       5.050   4.243  17.297  0.00  0.00    +0.000 A 
BRANCH  29  34
ATOM     34  C   UNL     1       7.435   6.980  17.637  0.00  0.00    +0.000 C 
ATOM     35  N   UNL     1       8.210   6.858  18.754  0.00  0.00    +0.000 N 
ATOM     36  O   UNL     1       7.245   8.087  17.147  0.00  0.00    +0.000 OA
ATOM     37  H   UNL     1       8.247   6.018  19.309  0.00  0.00    +0.000 HD
ATOM     38  H   UNL     1       8.464   7.736  19.192  0.00  0.00    +0.000 HD
ENDBRANCH  29  34
ENDBRANCH  22  24
ENDBRANCH  20  22
ENDBRANCH   5  20
TORSDOF 7
ENDMDL
