MODEL 1
REMARK VINA RESULT:      -7.4      0.000      0.000
REMARK  Name = 
REMARK  6 active torsions:
REMARK  status: ('A' for Active; 'I' for Inactive)
REMARK    1  A    between atoms: C_2  and  C_17
REMARK    2  A    between atoms: N_3  and  C_4
REMARK    3  A    between atoms: C_4  and  C_5
REMARK    4  A    between atoms: C_4  and  C_12
REMARK    5  A    between atoms: C_5  and  C_6
REMARK    6  A    between atoms: C_14  and  O_15
REMARK                            x       y       z     vdW  Elec       q    Type
REMARK                         _______ _______ _______ _____ _____    ______ ____
ROOT
ATOM      1  C   UNL     1       3.122   4.767  18.702  0.00  0.00    +0.000 C 
ENDROOT
BRANCH   1   4
ATOM      2  O   UNL     1       3.938   7.356  17.895  0.00  0.00    +0.000 OA
ATOM      3  C   UNL     1       2.836   7.244  18.449  0.00  0.00    +0.000 C 
ATOM      4  N   UNL     1       2.375   6.020  18.893  0.00  0.00    +0.000 N 
ATOM      5  H   UNL     1       1.511   6.022  19.428  0.00  0.00    +0.000 HD
BRANCH   3   6
ATOM      6  C   UNL     1       2.010   8.398  18.670  0.00  0.00    +0.000 A 
ATOM      7  C   UNL     1       1.725   9.443  17.813  0.00  0.00    +0.000 A 
ATOM      8  N   UNL     1       0.935  10.370  18.435  0.00  0.00    +0.000 NA
ATOM      9  C   UNL     1       0.767   9.862  19.635  0.00  0.00    +0.000 A 
ATOM     10  O   UNL     1       1.374   8.656  19.858  0.00  0.00    +0.000 OA
ENDBRANCH   3   6
ENDBRANCH   1   4
BRANCH   1  11
ATOM     11  C   UNL     1       2.268   3.617  19.290  0.00  0.00    +0.000 C 
ATOM     12  C   UNL     1       2.930   2.650  20.316  0.00  0.00    +0.000 C 
ATOM     13  C   UNL     1       2.139   3.314  21.456  0.00  0.00    +0.000 C 
ATOM     14  C   UNL     1       1.228   3.954  20.399  0.00  0.00    +0.000 C 
BRANCH  13  15
ATOM     15  O   UNL     1       1.499   2.427  22.392  0.00  0.00    +0.000 OA
ATOM     16  H   UNL     1       0.724   2.910  22.727  0.00  0.00    +0.000 HD
ENDBRANCH  13  15
ENDBRANCH   1  11
BRANCH   1  17
ATOM     17  C   UNL     1       3.467   4.499  17.215  0.00  0.00    +0.000 C 
BRANCH  17  18
ATOM     18  C   UNL     1       4.943   4.385  16.893  0.00  0.00    +0.000 A 
ATOM     19  C   UNL     1       5.396   4.334  15.571  0.00  0.00    +0.000 A 
ATOM     20  C   UNL     1       6.760   4.436  15.325  0.00  0.00    +0.000 A 
ATOM     21  N   UNL     1       7.689   4.590  16.292  0.00  0.00    +0.000 NA
ATOM     22  C   UNL     1       7.237   4.606  17.563  0.00  0.00    +0.000 A 
ATOM     23  C   UNL     1       5.899   4.476  17.910  0.00  0.00    +0.000 A 
ENDBRANCH  17  18
ENDBRANCH   1  17
TORSDOF 6
ENDMDL
MODEL 2
REMARK VINA RESULT:      -7.2      1.740      2.097
REMARK  Name = 
REMARK  6 active torsions:
REMARK  status: ('A' for Active; 'I' for Inactive)
REMARK    1  A    between atoms: C_2  and  C_17
REMARK    2  A    between atoms: N_3  and  C_4
REMARK    3  A    between atoms: C_4  and  C_5
REMARK    4  A    between atoms: C_4  and  C_12
REMARK    5  A    between atoms: C_5  and  C_6
REMARK    6  A    between atoms: C_14  and  O_15
REMARK                            x       y       z     vdW  Elec       q    Type
REMARK                         _______ _______ _______ _____ _____    ______ ____
ROOT
ATOM      1  C   UNL     1       3.678   4.677  19.235  0.00  0.00    +0.000 C 
ENDROOT
BRANCH   1   4
ATOM      2  O   UNL     1       1.887   6.405  20.588  0.00  0.00    +0.000 OA
ATOM      3  C   UNL     1       2.371   6.798  19.518  0.00  0.00    +0.000 C 
ATOM      4  N   UNL     1       3.235   6.006  18.786  0.00  0.00    +0.000 N 
ATOM      5  H   UNL     1       3.510   6.353  17.871  0.00  0.00    +0.000 HD
BRANCH   3   6
ATOM      6  C   UNL     1       2.026   8.088  18.991  0.00  0.00    +0.000 A 
ATOM      7  C   UNL     1       2.380   8.661  17.786  0.00  0.00    +0.000 A 
ATOM      8  N   UNL     1       1.883   9.932  17.696  0.00  0.00    +0.000 NA
ATOM      9  C   UNL     1       1.249  10.086  18.836  0.00  0.00    +0.000 A 
ATOM     10  O   UNL     1       1.273   9.007  19.678  0.00  0.00    +0.000 OA
ENDBRANCH   3   6
ENDBRANCH   1   4
BRANCH   1  11
ATOM     11  C   UNL     1       3.019   3.625  18.310  0.00  0.00    +0.000 C 
ATOM     12  C   UNL     1       2.605   2.253  18.924  0.00  0.00    +0.000 C 
ATOM     13  C   UNL     1       1.127   2.674  18.869  0.00  0.00    +0.000 C 
ATOM     14  C   UNL     1       1.524   3.811  17.918  0.00  0.00    +0.000 C 
BRANCH  13  15
ATOM     15  O   UNL     1       0.204   1.701  18.345  0.00  0.00    +0.000 OA
ATOM     16  H   UNL     1      -0.259   1.333  19.117  0.00  0.00    +0.000 HD
ENDBRANCH  13  15
ENDBRANCH   1  11
BRANCH   1  17
ATOM     17  C   UNL     1       5.221   4.531  19.232  0.00  0.00    +0.000 C 
BRANCH  17  18
ATOM     18  C   UNL     1       5.933   5.101  18.023  0.00  0.00    +0.000 A 
ATOM     19  C   UNL     1       6.613   6.322  18.088  0.00  0.00    +0.000 A 
ATOM     20  C   UNL     1       7.417   6.700  17.019  0.00  0.00    +0.000 A 
ATOM     21  N   UNL     1       7.592   5.954  15.909  0.00  0.00    +0.000 NA
ATOM     22  C   UNL     1       6.904   4.795  15.849  0.00  0.00    +0.000 A 
ATOM     23  C   UNL     1       6.050   4.349  16.849  0.00  0.00    +0.000 A 
ENDBRANCH  17  18
ENDBRANCH   1  17
TORSDOF 6
ENDMDL
MODEL 3
REMARK VINA RESULT:      -7.2      1.430      5.708
REMARK  Name = 
REMARK  6 active torsions:
REMARK  status: ('A' for Active; 'I' for Inactive)
REMARK    1  A    between atoms: C_2  and  C_17
REMARK    2  A    between atoms: N_3  and  C_4
REMARK    3  A    between atoms: C_4  and  C_5
REMARK    4  A    between atoms: C_4  and  C_12
REMARK    5  A    between atoms: C_5  and  C_6
REMARK    6  A    between atoms: C_14  and  O_15
REMARK                            x       y       z     vdW  Elec       q    Type
REMARK                         _______ _______ _______ _____ _____    ______ ____
ROOT
ATOM      1  C   UNL     1       2.501   5.560  18.611  0.00  0.00    +0.000 C 
ENDROOT
BRANCH   1   4
ATOM      2  O   UNL     1       4.077   7.079  16.813  0.00  0.00    +0.000 OA
ATOM      3  C   UNL     1       4.459   5.934  17.090  0.00  0.00    +0.000 C 
ATOM      4  N   UNL     1       3.735   5.121  17.941  0.00  0.00    +0.000 N 
ATOM      5  H   UNL     1       4.055   4.161  18.040  0.00  0.00    +0.000 HD
BRANCH   3   6
ATOM      6  C   UNL     1       5.662   5.406  16.511  0.00  0.00    +0.000 A 
ATOM      7  C   UNL     1       6.698   4.725  17.120  0.00  0.00    +0.000 A 
ATOM      8  N   UNL     1       7.683   4.443  16.215  0.00  0.00    +0.000 NA
ATOM      9  C   UNL     1       7.218   4.954  15.098  0.00  0.00    +0.000 A 
ATOM     10  O   UNL     1       5.986   5.546  15.185  0.00  0.00    +0.000 OA
ENDBRANCH   3   6
ENDBRANCH   1   4
BRANCH   1  11
ATOM     11  C   UNL     1       1.761   4.295  19.108  0.00  0.00    +0.000 C 
ATOM     12  C   UNL     1       2.609   3.101  19.642  0.00  0.00    +0.000 C 
ATOM     13  C   UNL     1       2.194   3.449  21.082  0.00  0.00    +0.000 C 
ATOM     14  C   UNL     1       1.078   4.333  20.507  0.00  0.00    +0.000 C 
BRANCH  13  15
ATOM     15  O   UNL     1       1.770   2.350  21.909  0.00  0.00    +0.000 OA
ATOM     16  H   UNL     1       1.144   1.838  21.369  0.00  0.00    +0.000 HD
ENDBRANCH  13  15
ENDBRANCH   1  11
BRANCH   1  17
ATOM     17  C   UNL     1       2.775   6.539  19.780  0.00  0.00    +0.000 C 
BRANCH  17  18
ATOM     18  C   UNL     1       1.991   7.836  19.749  0.00  0.00    +0.000 A 
ATOM     19  C   UNL     1       1.825   8.556  18.562  0.00  0.00    +0.000 A 
ATOM     20  C   UNL     1       0.933   9.622  18.543  0.00  0.00    +0.000 A 
ATOM     21  N   UNL     1       0.201  10.008  19.608  0.00  0.00    +0.000 NA
ATOM     22  C   UNL     1       0.396   9.323  20.753  0.00  0.00    +0.000 A 
ATOM     23  C   UNL     1       1.290   8.267  20.880  0.00  0.00    +0.000 A 
ENDBRANCH  17  18
ENDBRANCH   1  17
TORSDOF 6
ENDMDL
MODEL 4
REMARK VINA RESULT:      -7.1      1.903      2.288
REMARK  Name = 
REMARK  6 active torsions:
REMARK  status: ('A' for Active; 'I' for Inactive)
REMARK    1  A    between atoms: C_2  and  C_17
REMARK    2  A    between atoms: N_3  and  C_4
REMARK    3  A    between atoms: C_4  and  C_5
REMARK    4  A    between atoms: C_4  and  C_12
REMARK    5  A    between atoms: C_5  and  C_6
REMARK    6  A    between atoms: C_14  and  O_15
REMARK                            x       y       z     vdW  Elec       q    Type
REMARK                         _______ _______ _______ _____ _____    ______ ____
ROOT
ATOM      1  C   UNL     1       3.936   4.599  17.734  0.00  0.00    +0.000 C 
ENDROOT
BRANCH   1   4
ATOM      2  O   UNL     1       2.976   5.957  20.027  0.00  0.00    +0.000 OA
ATOM      3  C   UNL     1       2.850   6.517  18.929  0.00  0.00    +0.000 C 
ATOM      4  N   UNL     1       3.271   5.912  17.761  0.00  0.00    +0.000 N 
ATOM      5  H   UNL     1       3.042   6.385  16.891  0.00  0.00    +0.000 HD
BRANCH   3   6
ATOM      6  C   UNL     1       2.234   7.810  18.837  0.00  0.00    +0.000 A 
ATOM      7  C   UNL     1       2.203   8.687  17.769  0.00  0.00    +0.000 A 
ATOM      8  N   UNL     1       1.554   9.840  18.116  0.00  0.00    +0.000 NA
ATOM      9  C   UNL     1       1.215   9.627  19.367  0.00  0.00    +0.000 A 
ATOM     10  O   UNL     1       1.576   8.411  19.880  0.00  0.00    +0.000 OA
ENDBRANCH   3   6
ENDBRANCH   1   4
BRANCH   1  11
ATOM     11  C   UNL     1       2.913   3.567  17.200  0.00  0.00    +0.000 C 
ATOM     12  C   UNL     1       2.763   2.213  17.957  0.00  0.00    +0.000 C 
ATOM     13  C   UNL     1       1.417   2.683  18.534  0.00  0.00    +0.000 C 
ATOM     14  C   UNL     1       1.400   3.802  17.483  0.00  0.00    +0.000 C 
BRANCH  13  15
ATOM     15  O   UNL     1       0.331   1.740  18.474  0.00  0.00    +0.000 OA
ATOM     16  H   UNL     1      -0.129   1.811  19.328  0.00  0.00    +0.000 HD
ENDBRANCH  13  15
ENDBRANCH   1  11
BRANCH   1  17
ATOM     17  C   UNL     1       5.224   4.601  16.873  0.00  0.00    +0.000 C 
BRANCH  17  18
ATOM     18  C   UNL     1       6.366   5.446  17.401  0.00  0.00    +0.000 A 
ATOM     19  C   UNL     1       6.652   6.703  16.857  0.00  0.00    +0.000 A 
ATOM     20  C   UNL     1       7.570   7.521  17.505  0.00  0.00    +0.000 A 
ATOM     21  N   UNL     1       8.208   7.180  18.644  0.00  0.00    +0.000 NA
ATOM     22  C   UNL     1       7.945   5.953  19.136  0.00  0.00    +0.000 A 
ATOM     23  C   UNL     1       7.071   5.052  18.543  0.00  0.00    +0.000 A 
ENDBRANCH  17  18
ENDBRANCH   1  17
TORSDOF 6
ENDMDL
MODEL 5
REMARK VINA RESULT:      -7.1      0.550      1.157
REMARK  Name = 
REMARK  6 active torsions:
REMARK  status: ('A' for Active; 'I' for Inactive)
REMARK    1  A    between atoms: C_2  and  C_17
REMARK    2  A    between atoms: N_3  and  C_4
REMARK    3  A    between atoms: C_4  and  C_5
REMARK    4  A    between atoms: C_4  and  C_12
REMARK    5  A    between atoms: C_5  and  C_6
REMARK    6  A    between atoms: C_14  and  O_15
REMARK                            x       y       z     vdW  Elec       q    Type
REMARK                         _______ _______ _______ _____ _____    ______ ____
ROOT
ATOM      1  C   UNL     1       3.188   4.262  18.548  0.00  0.00    +0.000 C 
ENDROOT
BRANCH   1   4
ATOM      2  O   UNL     1       4.241   6.869  18.891  0.00  0.00    +0.000 OA
ATOM      3  C   UNL     1       3.015   6.754  18.755  0.00  0.00    +0.000 C 
ATOM      4  N   UNL     1       2.421   5.516  18.606  0.00  0.00    +0.000 N 
ATOM      5  H   UNL     1       1.405   5.493  18.603  0.00  0.00    +0.000 HD
BRANCH   3   6
ATOM      6  C   UNL     1       2.168   7.913  18.774  0.00  0.00    +0.000 A 
ATOM      7  C   UNL     1       1.812   8.751  17.735  0.00  0.00    +0.000 A 
ATOM      8  N   UNL     1       1.026   9.772  18.191  0.00  0.00    +0.000 NA
ATOM      9  C   UNL     1       0.930   9.524  19.478  0.00  0.00    +0.000 A 
ATOM     10  O   UNL     1       1.582   8.402  19.915  0.00  0.00    +0.000 OA
ENDBRANCH   3   6
ENDBRANCH   1   4
BRANCH   1  11
ATOM     11  C   UNL     1       2.344   3.164  19.241  0.00  0.00    +0.000 C 
ATOM     12  C   UNL     1       2.929   2.465  20.505  0.00  0.00    +0.000 C 
ATOM     13  C   UNL     1       1.949   3.248  21.394  0.00  0.00    +0.000 C 
ATOM     14  C   UNL     1       1.145   3.598  20.133  0.00  0.00    +0.000 C 
BRANCH  13  15
ATOM     15  O   UNL     1       1.252   2.491  22.400  0.00  0.00    +0.000 OA
ATOM     16  H   UNL     1       0.306   2.581  22.192  0.00  0.00    +0.000 HD
ENDBRANCH  13  15
ENDBRANCH   1  11
BRANCH   1  17
ATOM     17  C   UNL     1       3.552   3.852  17.099  0.00  0.00    +0.000 C 
BRANCH  17  18
ATOM     18  C   UNL     1       4.921   4.287  16.617  0.00  0.00    +0.000 A 
ATOM     19  C   UNL     1       5.997   4.410  17.502  0.00  0.00    +0.000 A 
ATOM     20  C   UNL     1       7.271   4.611  16.985  0.00  0.00    +0.000 A 
ATOM     21  N   UNL     1       7.544   4.689  15.665  0.00  0.00    +0.000 NA
ATOM     22  C   UNL     1       6.490   4.600  14.828  0.00  0.00    +0.000 A 
ATOM     23  C   UNL     1       5.178   4.434  15.250  0.00  0.00    +0.000 A 
ENDBRANCH  17  18
ENDBRANCH   1  17
TORSDOF 6
ENDMDL
MODEL 6
REMARK VINA RESULT:      -7.1      1.752      2.285
REMARK  Name = 
REMARK  6 active torsions:
REMARK  status: ('A' for Active; 'I' for Inactive)
REMARK    1  A    between atoms: C_2  and  C_17
REMARK    2  A    between atoms: N_3  and  C_4
REMARK    3  A    between atoms: C_4  and  C_5
REMARK    4  A    between atoms: C_4  and  C_12
REMARK    5  A    between atoms: C_5  and  C_6
REMARK    6  A    between atoms: C_14  and  O_15
REMARK                            x       y       z     vdW  Elec       q    Type
REMARK                         _______ _______ _______ _____ _____    ______ ____
ROOT
ATOM      1  C   UNL     1       3.345   5.782  18.796  0.00  0.00    +0.000 C 
ENDROOT
BRANCH   1   4
ATOM      2  O   UNL     1       1.937   8.160  18.173  0.00  0.00    +0.000 OA
ATOM      3  C   UNL     1       2.011   7.827  19.364  0.00  0.00    +0.000 C 
ATOM      4  N   UNL     1       2.699   6.694  19.753  0.00  0.00    +0.000 N 
ATOM      5  H   UNL     1       2.803   6.542  20.752  0.00  0.00    +0.000 HD
BRANCH   3   6
ATOM      6  C   UNL     1       1.399   8.631  20.384  0.00  0.00    +0.000 A 
ATOM      7  C   UNL     1       0.723   9.829  20.262  0.00  0.00    +0.000 A 
ATOM      8  N   UNL     1       0.343  10.290  21.492  0.00  0.00    +0.000 NA
ATOM      9  C   UNL     1       0.793   9.367  22.311  0.00  0.00    +0.000 A 
ATOM     10  O   UNL     1       1.436   8.313  21.719  0.00  0.00    +0.000 OA
ENDBRANCH   3   6
ENDBRANCH   1   4
BRANCH   1  11
ATOM     11  C   UNL     1       2.248   4.862  18.209  0.00  0.00    +0.000 C 
ATOM     12  C   UNL     1       2.679   3.512  17.562  0.00  0.00    +0.000 C 
ATOM     13  C   UNL     1       2.134   2.751  18.782  0.00  0.00    +0.000 C 
ATOM     14  C   UNL     1       1.377   4.023  19.189  0.00  0.00    +0.000 C 
BRANCH  13  15
ATOM     15  O   UNL     1       1.325   1.593  18.505  0.00  0.00    +0.000 OA
ATOM     16  H   UNL     1       1.623   0.907  19.126  0.00  0.00    +0.000 HD
ENDBRANCH  13  15
ENDBRANCH   1  11
BRANCH   1  17
ATOM     17  C   UNL     1       4.099   6.536  17.671  0.00  0.00    +0.000 C 
BRANCH  17  18
ATOM     18  C   UNL     1       5.439   5.952  17.272  0.00  0.00    +0.000 A 
ATOM     19  C   UNL     1       6.374   5.554  18.233  0.00  0.00    +0.000 A 
ATOM     20  C   UNL     1       7.494   4.840  17.824  0.00  0.00    +0.000 A 
ATOM     21  N   UNL     1       7.739   4.495  16.543  0.00  0.00    +0.000 NA
ATOM     22  C   UNL     1       6.844   4.914  15.626  0.00  0.00    +0.000 A 
ATOM     23  C   UNL     1       5.715   5.661  15.931  0.00  0.00    +0.000 A 
ENDBRANCH  17  18
ENDBRANCH   1  17
TORSDOF 6
ENDMDL
MODEL 7
REMARK VINA RESULT:      -7.1      2.450      4.659
REMARK  Name = 
REMARK  6 active torsions:
REMARK  status: ('A' for Active; 'I' for Inactive)
REMARK    1  A    between atoms: C_2  and  C_17
REMARK    2  A    between atoms: N_3  and  C_4
REMARK    3  A    between atoms: C_4  and  C_5
REMARK    4  A    between atoms: C_4  and  C_12
REMARK    5  A    between atoms: C_5  and  C_6
REMARK    6  A    between atoms: C_14  and  O_15
REMARK                            x       y       z     vdW  Elec       q    Type
REMARK                         _______ _______ _______ _____ _____    ______ ____
ROOT
ATOM      1  C   UNL     1       4.657   4.334  17.510  0.00  0.00    +0.000 C 
ENDROOT
BRANCH   1   4
ATOM      2  O   UNL     1       4.460   6.929  16.391  0.00  0.00    +0.000 OA
ATOM      3  C   UNL     1       3.770   6.676  17.388  0.00  0.00    +0.000 C 
ATOM      4  N   UNL     1       3.825   5.442  18.006  0.00  0.00    +0.000 N 
ATOM      5  H   UNL     1       3.309   5.342  18.877  0.00  0.00    +0.000 HD
BRANCH   3   6
ATOM      6  C   UNL     1       2.904   7.675  17.948  0.00  0.00    +0.000 A 
ATOM      7  C   UNL     1       2.280   7.697  19.180  0.00  0.00    +0.000 A 
ATOM      8  N   UNL     1       1.496   8.811  19.299  0.00  0.00    +0.000 NA
ATOM      9  C   UNL     1       1.668   9.422  18.150  0.00  0.00    +0.000 A 
ATOM     10  O   UNL     1       2.521   8.807  17.274  0.00  0.00    +0.000 OA
ENDBRANCH   3   6
ENDBRANCH   1   4
BRANCH   1  11
ATOM     11  C   UNL     1       5.969   4.328  18.332  0.00  0.00    +0.000 C 
ATOM     12  C   UNL     1       7.272   4.847  17.653  0.00  0.00    +0.000 C 
ATOM     13  C   UNL     1       7.197   6.135  18.490  0.00  0.00    +0.000 C 
ATOM     14  C   UNL     1       6.181   5.437  19.404  0.00  0.00    +0.000 C 
BRANCH  13  15
ATOM     15  O   UNL     1       8.422   6.565  19.113  0.00  0.00    +0.000 OA
ATOM     16  H   UNL     1       8.310   7.515  19.290  0.00  0.00    +0.000 HD
ENDBRANCH  13  15
ENDBRANCH   1  11
BRANCH   1  17
ATOM     17  C   UNL     1       3.939   2.964  17.600  0.00  0.00    +0.000 C 
BRANCH  17  18
ATOM     18  C   UNL     1       2.995   2.791  18.772  0.00  0.00    +0.000 A 
ATOM     19  C   UNL     1       3.476   2.650  20.078  0.00  0.00    +0.000 A 
ATOM     20  C   UNL     1       2.575   2.701  21.134  0.00  0.00    +0.000 A 
ATOM     21  N   UNL     1       1.247   2.885  20.981  0.00  0.00    +0.000 NA
ATOM     22  C   UNL     1       0.796   2.986  19.714  0.00  0.00    +0.000 A 
ATOM     23  C   UNL     1       1.613   2.914  18.594  0.00  0.00    +0.000 A 
ENDBRANCH  17  18
ENDBRANCH   1  17
TORSDOF 6
ENDMDL
MODEL 8
REMARK VINA RESULT:      -7.1      1.803      2.117
REMARK  Name = 
REMARK  6 active torsions:
REMARK  status: ('A' for Active; 'I' for Inactive)
REMARK    1  A    between atoms: C_2  and  C_17
REMARK    2  A    between atoms: N_3  and  C_4
REMARK    3  A    between atoms: C_4  and  C_5
REMARK    4  A    between atoms: C_4  and  C_12
REMARK    5  A    between atoms: C_5  and  C_6
REMARK    6  A    between atoms: C_14  and  O_15
REMARK                            x       y       z     vdW  Elec       q    Type
REMARK                         _______ _______ _______ _____ _____    ______ ____
ROOT
ATOM      1  C   UNL     1       3.216   5.754  18.976  0.00  0.00    +0.000 C 
ENDROOT
BRANCH   1   4
ATOM      2  O   UNL     1       1.844   8.114  18.221  0.00  0.00    +0.000 OA
ATOM      3  C   UNL     1       1.985   7.890  19.431  0.00  0.00    +0.000 C 
ATOM      4  N   UNL     1       2.661   6.773  19.881  0.00  0.00    +0.000 N 
ATOM      5  H   UNL     1       2.826   6.709  20.882  0.00  0.00    +0.000 HD
BRANCH   3   6
ATOM      6  C   UNL     1       1.466   8.806  20.408  0.00  0.00    +0.000 A 
ATOM      7  C   UNL     1       1.369   8.657  21.778  0.00  0.00    +0.000 A 
ATOM      8  N   UNL     1       0.763   9.748  22.335  0.00  0.00    +0.000 NA
ATOM      9  C   UNL     1       0.518  10.517  21.298  0.00  0.00    +0.000 A 
ATOM     10  O   UNL     1       0.927  10.026  20.088  0.00  0.00    +0.000 OA
ENDBRANCH   3   6
ENDBRANCH   1   4
BRANCH   1  11
ATOM     11  C   UNL     1       2.036   4.897  18.455  0.00  0.00    +0.000 C 
ATOM     12  C   UNL     1       2.358   3.618  17.625  0.00  0.00    +0.000 C 
ATOM     13  C   UNL     1       1.972   2.739  18.827  0.00  0.00    +0.000 C 
ATOM     14  C   UNL     1       1.294   3.964  19.457  0.00  0.00    +0.000 C 
BRANCH  13  15
ATOM     15  O   UNL     1       1.118   1.614  18.549  0.00  0.00    +0.000 OA
ATOM     16  H   UNL     1       1.174   1.471  17.588  0.00  0.00    +0.000 HD
ENDBRANCH  13  15
ENDBRANCH   1  11
BRANCH   1  17
ATOM     17  C   UNL     1       4.015   6.372  17.801  0.00  0.00    +0.000 C 
BRANCH  17  18
ATOM     18  C   UNL     1       5.251   5.608  17.373  0.00  0.00    +0.000 A 
ATOM     19  C   UNL     1       5.541   5.394  16.022  0.00  0.00    +0.000 A 
ATOM     20  C   UNL     1       6.782   4.871  15.676  0.00  0.00    +0.000 A 
ATOM     21  N   UNL     1       7.741   4.556  16.572  0.00  0.00    +0.000 NA
ATOM     22  C   UNL     1       7.432   4.738  17.872  0.00  0.00    +0.000 A 
ATOM     23  C   UNL     1       6.209   5.222  18.317  0.00  0.00    +0.000 A 
ENDBRANCH  17  18
ENDBRANCH   1  17
TORSDOF 6
ENDMDL
MODEL 9
REMARK VINA RESULT:      -7.1      1.407      5.704
REMARK  Name = 
REMARK  6 active torsions:
REMARK  status: ('A' for Active; 'I' for Inactive)
REMARK    1  A    between atoms: C_2  and  C_17
REMARK    2  A    between atoms: N_3  and  C_4
REMARK    3  A    between atoms: C_4  and  C_5
REMARK    4  A    between atoms: C_4  and  C_12
REMARK    5  A    between atoms: C_5  and  C_6
REMARK    6  A    between atoms: C_14  and  O_15
REMARK                            x       y       z     vdW  Elec       q    Type
REMARK                         _______ _______ _______ _____ _____    ______ ____
ROOT
ATOM      1  C   UNL     1       2.484   5.614  18.827  0.00  0.00    +0.000 C 
ENDROOT
BRANCH   1   4
ATOM      2  O   UNL     1       4.274   6.781  16.968  0.00  0.00    +0.000 OA
ATOM      3  C   UNL     1       4.666   5.795  17.606  0.00  0.00    +0.000 C 
ATOM      4  N   UNL     1       3.847   5.154  18.515  0.00  0.00    +0.000 N 
ATOM      5  H   UNL     1       4.200   4.293  18.924  0.00  0.00    +0.000 HD
BRANCH   3   6
ATOM      6  C   UNL     1       5.987   5.270  17.400  0.00  0.00    +0.000 A 
ATOM      7  C   UNL     1       6.642   5.000  16.214  0.00  0.00    +0.000 A 
ATOM      8  N   UNL     1       7.872   4.457  16.461  0.00  0.00    +0.000 NA
ATOM      9  C   UNL     1       7.924   4.416  17.773  0.00  0.00    +0.000 A 
ATOM     10  O   UNL     1       6.824   4.906  18.424  0.00  0.00    +0.000 OA
ENDBRANCH   3   6
ENDBRANCH   1   4
BRANCH   1  11
ATOM     11  C   UNL     1       1.661   4.379  19.268  0.00  0.00    +0.000 C 
ATOM     12  C   UNL     1       2.426   3.124  19.786  0.00  0.00    +0.000 C 
ATOM     13  C   UNL     1       1.995   3.453  21.225  0.00  0.00    +0.000 C 
ATOM     14  C   UNL     1       0.946   4.416  20.650  0.00  0.00    +0.000 C 
BRANCH  13  15
ATOM     15  O   UNL     1       1.488   2.357  22.008  0.00  0.00    +0.000 OA
ATOM     16  H   UNL     1       1.258   2.735  22.874  0.00  0.00    +0.000 HD
ENDBRANCH  13  15
ENDBRANCH   1  11
BRANCH   1  17
ATOM     17  C   UNL     1       2.462   6.715  19.918  0.00  0.00    +0.000 C 
BRANCH  17  18
ATOM     18  C   UNL     1       1.788   8.014  19.526  0.00  0.00    +0.000 A 
ATOM     19  C   UNL     1       1.090   8.782  20.464  0.00  0.00    +0.000 A 
ATOM     20  C   UNL     1       0.669  10.057  20.106  0.00  0.00    +0.000 A 
ATOM     21  N   UNL     1       0.897  10.614  18.898  0.00  0.00    +0.000 NA
ATOM     22  C   UNL     1       1.543   9.847  17.996  0.00  0.00    +0.000 A 
ATOM     23  C   UNL     1       1.973   8.551  18.247  0.00  0.00    +0.000 A 
ENDBRANCH  17  18
ENDBRANCH   1  17
TORSDOF 6
ENDMDL
