MODEL 1
REMARK VINA RESULT:      -7.5      0.000      0.000
REMARK  Name = 
REMARK  12 active torsions:
REMARK  status: ('A' for Active; 'I' for Inactive)
REMARK    1  A    between atoms: C_1  and  O_2
REMARK    2  A    between atoms: O_2  and  C_3
REMARK    3  A    between atoms: C_3  and  C_5
REMARK    4  A    between atoms: C_5  and  C_6
REMARK    5  A    between atoms: C_6  and  C_7
REMARK    6  A    between atoms: C_7  and  C_8
REMARK    7  A    between atoms: C_13  and  N_14
REMARK    8  A    between atoms: C_18  and  N_19
REMARK    9  A    between atoms: C_20  and  C_22
REMARK   10  A    between atoms: C_22  and  C_23
REMARK   11  A    between atoms: C_23  and  O_24
REMARK   12  A    between atoms: O_24  and  C_25
REMARK                            x       y       z     vdW  Elec       q    Type
REMARK                         _______ _______ _______ _____ _____    ______ ____
ROOT
ATOM      1  N   UNL     1       3.219   3.469  19.529  0.00  0.00    +0.000 N 
ATOM      2  N   UNL     1       2.828   2.575  20.459  0.00  0.00    +0.000 NA
ATOM      3  C   UNL     1       3.933   1.913  20.776  0.00  0.00    +0.000 A 
ATOM      4  C   UNL     1       5.039   2.371  20.048  0.00  0.00    +0.000 A 
ATOM      5  C   UNL     1       4.571   3.385  19.235  0.00  0.00    +0.000 A 
ENDROOT
BRANCH   1  11
ATOM      6  C   UNL     1       1.362   8.219  20.224  0.00  0.00    +0.000 C 
ATOM      7  O   UNL     1       1.692   9.115  19.444  0.00  0.00    +0.000 OA
ATOM      8  N   UNL     1       1.951   6.957  20.209  0.00  0.00    +0.000 N 
ATOM      9  C   UNL     1       3.116   6.700  19.360  0.00  0.00    +0.000 C 
ATOM     10  C   UNL     1       2.801   5.621  18.328  0.00  0.00    +0.000 C 
ATOM     11  C   UNL     1       2.201   4.346  18.952  0.00  0.00    +0.000 C 
ATOM     12  C   UNL     1       1.084   4.680  19.963  0.00  0.00    +0.000 C 
ATOM     13  C   UNL     1       1.470   5.791  20.946  0.00  0.00    +0.000 C 
BRANCH   6  14
ATOM     14  C   UNL     1       0.283   8.459  21.273  0.00  0.00    +0.000 C 
BRANCH  14  15
ATOM     15  C   UNL     1       0.711   9.495  22.314  0.00  0.00    +0.000 C 
BRANCH  15  16
ATOM     16  C   UNL     1      -0.440   9.871  23.240  0.00  0.00    +0.000 C 
BRANCH  16  17
ATOM     17  C   UNL     1      -0.948  11.254  22.918  0.00  0.00    +0.000 C 
ATOM     18  O   UNL     1      -0.280  12.126  22.380  0.00  0.00    +0.000 OA
BRANCH  17  20
ATOM     19  C   UNL     1      -2.879  12.564  22.846  0.00  0.00    +0.000 C 
ATOM     20  O   UNL     1      -2.235  11.390  23.339  0.00  0.00    +0.000 OA
ENDBRANCH  17  20
ENDBRANCH  16  17
ENDBRANCH  15  16
ENDBRANCH  14  15
ENDBRANCH   6  14
ENDBRANCH   1  11
BRANCH   5  21
ATOM     21  N   UNL     1       5.310   4.151  18.324  0.00  0.00    +0.000 N 
ATOM     22  C   UNL     1       6.333   5.082  18.743  0.00  0.00    +0.000 C 
ATOM     23  O   UNL     1       6.621   5.205  19.925  0.00  0.00    +0.000 OA
ATOM     24  H   UNL     1       5.124   4.054  17.335  0.00  0.00    +0.000 HD
BRANCH  22  25
ATOM     25  C   UNL     1       7.007   5.870  17.652  0.00  0.00    +0.000 C 
BRANCH  25  26
ATOM     26  C   UNL     1       7.098   4.974  16.419  0.00  0.00    +0.000 C 
BRANCH  26  27
ATOM     27  O   UNL     1       6.801   5.719  15.240  0.00  0.00    +0.000 OA
BRANCH  27  28
ATOM     28  C   UNL     1       6.645   4.944  14.115  0.00  0.00    +0.000 A 
ATOM     29  C   UNL     1       5.478   4.180  14.060  0.00  0.00    +0.000 A 
ATOM     30  C   UNL     1       5.229   3.344  12.969  0.00  0.00    +0.000 A 
ATOM     31  C   UNL     1       6.139   3.280  11.916  0.00  0.00    +0.000 A 
ATOM     32  C   UNL     1       7.292   4.060  11.949  0.00  0.00    +0.000 A 
ATOM     33  C   UNL     1       7.544   4.892  13.043  0.00  0.00    +0.000 A 
ENDBRANCH  27  28
ENDBRANCH  26  27
ENDBRANCH  25  26
ENDBRANCH  22  25
ENDBRANCH   5  21
TORSDOF 11
ENDMDL
MODEL 2
REMARK VINA RESULT:      -7.3      2.235      9.374
REMARK  Name = 
REMARK  12 active torsions:
REMARK  status: ('A' for Active; 'I' for Inactive)
REMARK    1  A    between atoms: C_1  and  O_2
REMARK    2  A    between atoms: O_2  and  C_3
REMARK    3  A    between atoms: C_3  and  C_5
REMARK    4  A    between atoms: C_5  and  C_6
REMARK    5  A    between atoms: C_6  and  C_7
REMARK    6  A    between atoms: C_7  and  C_8
REMARK    7  A    between atoms: C_13  and  N_14
REMARK    8  A    between atoms: C_18  and  N_19
REMARK    9  A    between atoms: C_20  and  C_22
REMARK   10  A    between atoms: C_22  and  C_23
REMARK   11  A    between atoms: C_23  and  O_24
REMARK   12  A    between atoms: O_24  and  C_25
REMARK                            x       y       z     vdW  Elec       q    Type
REMARK                         _______ _______ _______ _____ _____    ______ ____
ROOT
ATOM      1  N   UNL     1       3.167   3.715  19.759  0.00  0.00    +0.000 N 
ATOM      2  N   UNL     1       2.822   2.942  20.808  0.00  0.00    +0.000 NA
ATOM      3  C   UNL     1       1.729   3.511  21.299  0.00  0.00    +0.000 A 
ATOM      4  C   UNL     1       1.368   4.655  20.575  0.00  0.00    +0.000 A 
ATOM      5  C   UNL     1       2.308   4.786  19.571  0.00  0.00    +0.000 A 
ENDROOT
BRANCH   1  11
ATOM      6  C   UNL     1       6.327   5.808  16.275  0.00  0.00    +0.000 C 
ATOM      7  O   UNL     1       7.425   6.234  16.638  0.00  0.00    +0.000 OA
ATOM      8  N   UNL     1       5.350   5.388  17.176  0.00  0.00    +0.000 N 
ATOM      9  C   UNL     1       5.538   5.598  18.613  0.00  0.00    +0.000 C 
ATOM     10  C   UNL     1       5.572   4.262  19.350  0.00  0.00    +0.000 C 
ATOM     11  C   UNL     1       4.372   3.356  19.012  0.00  0.00    +0.000 C 
ATOM     12  C   UNL     1       4.115   3.298  17.491  0.00  0.00    +0.000 C 
ATOM     13  C   UNL     1       4.124   4.677  16.824  0.00  0.00    +0.000 C 
BRANCH   6  14
ATOM     14  C   UNL     1       5.971   5.732  14.795  0.00  0.00    +0.000 C 
BRANCH  14  15
ATOM     15  C   UNL     1       6.737   4.623  14.073  0.00  0.00    +0.000 C 
BRANCH  15  16
ATOM     16  C   UNL     1       5.833   3.444  13.733  0.00  0.00    +0.000 C 
BRANCH  16  17
ATOM     17  C   UNL     1       5.748   3.255  12.239  0.00  0.00    +0.000 C 
ATOM     18  O   UNL     1       4.707   3.300  11.597  0.00  0.00    +0.000 OA
BRANCH  17  20
ATOM     19  C   UNL     1       7.100   1.720  11.115  0.00  0.00    +0.000 C 
ATOM     20  O   UNL     1       6.984   3.004  11.727  0.00  0.00    +0.000 OA
ENDBRANCH  17  20
ENDBRANCH  16  17
ENDBRANCH  15  16
ENDBRANCH  14  15
ENDBRANCH   6  14
ENDBRANCH   1  11
BRANCH   5  21
ATOM     21  N   UNL     1       2.364   5.783  18.589  0.00  0.00    +0.000 N 
ATOM     22  C   UNL     1       2.307   7.193  18.908  0.00  0.00    +0.000 C 
ATOM     23  O   UNL     1       2.247   7.568  20.070  0.00  0.00    +0.000 OA
ATOM     24  H   UNL     1       2.446   5.514  17.619  0.00  0.00    +0.000 HD
BRANCH  22  25
ATOM     25  C   UNL     1       2.328   8.143  17.743  0.00  0.00    +0.000 C 
BRANCH  25  26
ATOM     26  C   UNL     1       1.746   9.473  18.216  0.00  0.00    +0.000 C 
BRANCH  26  27
ATOM     27  O   UNL     1       0.387   9.595  17.803  0.00  0.00    +0.000 OA
BRANCH  27  28
ATOM     28  C   UNL     1      -0.369  10.414  18.610  0.00  0.00    +0.000 A 
ATOM     29  C   UNL     1       0.143  10.649  19.887  0.00  0.00    +0.000 A 
ATOM     30  C   UNL     1      -0.555  11.454  20.792  0.00  0.00    +0.000 A 
ATOM     31  C   UNL     1      -1.761  12.043  20.418  0.00  0.00    +0.000 A 
ATOM     32  C   UNL     1      -2.264  11.836  19.136  0.00  0.00    +0.000 A 
ATOM     33  C   UNL     1      -1.570  11.027  18.233  0.00  0.00    +0.000 A 
ENDBRANCH  27  28
ENDBRANCH  26  27
ENDBRANCH  25  26
ENDBRANCH  22  25
ENDBRANCH   5  21
TORSDOF 11
ENDMDL
MODEL 3
REMARK VINA RESULT:      -7.3      1.555      1.827
REMARK  Name = 
REMARK  12 active torsions:
REMARK  status: ('A' for Active; 'I' for Inactive)
REMARK    1  A    between atoms: C_1  and  O_2
REMARK    2  A    between atoms: O_2  and  C_3
REMARK    3  A    between atoms: C_3  and  C_5
REMARK    4  A    between atoms: C_5  and  C_6
REMARK    5  A    between atoms: C_6  and  C_7
REMARK    6  A    between atoms: C_7  and  C_8
REMARK    7  A    between atoms: C_13  and  N_14
REMARK    8  A    between atoms: C_18  and  N_19
REMARK    9  A    between atoms: C_20  and  C_22
REMARK   10  A    between atoms: C_22  and  C_23
REMARK   11  A    between atoms: C_23  and  O_24
REMARK   12  A    between atoms: O_24  and  C_25
REMARK                            x       y       z     vdW  Elec       q    Type
REMARK                         _______ _______ _______ _____ _____    ______ ____
ROOT
ATOM      1  N   UNL     1       3.241   3.526  19.385  0.00  0.00    +0.000 N 
ATOM      2  N   UNL     1       2.718   2.739  20.346  0.00  0.00    +0.000 NA
ATOM      3  C   UNL     1       3.752   2.059  20.824  0.00  0.00    +0.000 A 
ATOM      4  C   UNL     1       4.944   2.400  20.172  0.00  0.00    +0.000 A 
ATOM      5  C   UNL     1       4.608   3.356  19.233  0.00  0.00    +0.000 A 
ENDROOT
BRANCH   1  11
ATOM      6  C   UNL     1       1.908   8.495  19.200  0.00  0.00    +0.000 C 
ATOM      7  O   UNL     1       2.341   9.200  18.287  0.00  0.00    +0.000 OA
ATOM      8  N   UNL     1       2.356   7.194  19.419  0.00  0.00    +0.000 N 
ATOM      9  C   UNL     1       3.493   6.671  18.659  0.00  0.00    +0.000 C 
ATOM     10  C   UNL     1       3.070   5.468  17.821  0.00  0.00    +0.000 C 
ATOM     11  C   UNL     1       2.329   4.392  18.639  0.00  0.00    +0.000 C 
ATOM     12  C   UNL     1       1.248   5.014  19.547  0.00  0.00    +0.000 C 
ATOM     13  C   UNL     1       1.745   6.232  20.333  0.00  0.00    +0.000 C 
BRANCH   6  14
ATOM     14  C   UNL     1       0.854   9.027  20.163  0.00  0.00    +0.000 C 
BRANCH  14  15
ATOM     15  C   UNL     1      -0.130   9.976  19.476  0.00  0.00    +0.000 C 
BRANCH  15  16
ATOM     16  C   UNL     1      -0.403  11.213  20.323  0.00  0.00    +0.000 C 
BRANCH  16  17
ATOM     17  C   UNL     1       0.744  12.187  20.223  0.00  0.00    +0.000 C 
ATOM     18  O   UNL     1       1.637  12.289  21.054  0.00  0.00    +0.000 OA
BRANCH  17  20
ATOM     19  C   UNL     1       1.229  14.230  19.202  0.00  0.00    +0.000 C 
ATOM     20  O   UNL     1       0.621  12.943  19.098  0.00  0.00    +0.000 OA
ENDBRANCH  17  20
ENDBRANCH  16  17
ENDBRANCH  15  16
ENDBRANCH  14  15
ENDBRANCH   6  14
ENDBRANCH   1  11
BRANCH   5  21
ATOM     21  N   UNL     1       5.469   4.002  18.337  0.00  0.00    +0.000 N 
ATOM     22  C   UNL     1       6.463   4.960  18.768  0.00  0.00    +0.000 C 
ATOM     23  O   UNL     1       6.616   5.211  19.954  0.00  0.00    +0.000 OA
ATOM     24  H   UNL     1       5.395   3.798  17.350  0.00  0.00    +0.000 HD
BRANCH  22  25
ATOM     25  C   UNL     1       7.280   5.609  17.684  0.00  0.00    +0.000 C 
BRANCH  25  26
ATOM     26  C   UNL     1       7.161   4.744  16.431  0.00  0.00    +0.000 C 
BRANCH  26  27
ATOM     27  O   UNL     1       7.390   5.529  15.262  0.00  0.00    +0.000 OA
BRANCH  27  28
ATOM     28  C   UNL     1       7.053   4.894  14.089  0.00  0.00    +0.000 A 
ATOM     29  C   UNL     1       5.919   4.082  14.143  0.00  0.00    +0.000 A 
ATOM     30  C   UNL     1       5.498   3.378  13.011  0.00  0.00    +0.000 A 
ATOM     31  C   UNL     1       6.199   3.496  11.814  0.00  0.00    +0.000 A 
ATOM     32  C   UNL     1       7.315   4.326  11.745  0.00  0.00    +0.000 A 
ATOM     33  C   UNL     1       7.740   5.026  12.877  0.00  0.00    +0.000 A 
ENDBRANCH  27  28
ENDBRANCH  26  27
ENDBRANCH  25  26
ENDBRANCH  22  25
ENDBRANCH   5  21
TORSDOF 11
ENDMDL
MODEL 4
REMARK VINA RESULT:      -7.2      2.390      9.012
REMARK  Name = 
REMARK  12 active torsions:
REMARK  status: ('A' for Active; 'I' for Inactive)
REMARK    1  A    between atoms: C_1  and  O_2
REMARK    2  A    between atoms: O_2  and  C_3
REMARK    3  A    between atoms: C_3  and  C_5
REMARK    4  A    between atoms: C_5  and  C_6
REMARK    5  A    between atoms: C_6  and  C_7
REMARK    6  A    between atoms: C_7  and  C_8
REMARK    7  A    between atoms: C_13  and  N_14
REMARK    8  A    between atoms: C_18  and  N_19
REMARK    9  A    between atoms: C_20  and  C_22
REMARK   10  A    between atoms: C_22  and  C_23
REMARK   11  A    between atoms: C_23  and  O_24
REMARK   12  A    between atoms: O_24  and  C_25
REMARK                            x       y       z     vdW  Elec       q    Type
REMARK                         _______ _______ _______ _____ _____    ______ ____
ROOT
ATOM      1  N   UNL     1       2.440   3.361  19.267  0.00  0.00    +0.000 N 
ATOM      2  N   UNL     1       1.883   2.534  20.174  0.00  0.00    +0.000 NA
ATOM      3  C   UNL     1       0.940   3.262  20.759  0.00  0.00    +0.000 A 
ATOM      4  C   UNL     1       0.888   4.561  20.237  0.00  0.00    +0.000 A 
ATOM      5  C   UNL     1       1.868   4.624  19.265  0.00  0.00    +0.000 A 
ENDROOT
BRANCH   1  11
ATOM      6  C   UNL     1       6.728   5.118  17.027  0.00  0.00    +0.000 C 
ATOM      7  O   UNL     1       7.818   4.898  17.557  0.00  0.00    +0.000 OA
ATOM      8  N   UNL     1       5.517   4.830  17.652  0.00  0.00    +0.000 N 
ATOM      9  C   UNL     1       5.498   4.401  19.052  0.00  0.00    +0.000 C 
ATOM     10  C   UNL     1       4.911   2.997  19.174  0.00  0.00    +0.000 C 
ATOM     11  C   UNL     1       3.550   2.849  18.466  0.00  0.00    +0.000 C 
ATOM     12  C   UNL     1       3.576   3.464  17.051  0.00  0.00    +0.000 C 
ATOM     13  C   UNL     1       4.205   4.861  17.011  0.00  0.00    +0.000 C 
BRANCH   6  14
ATOM     14  C   UNL     1       6.649   5.745  15.639  0.00  0.00    +0.000 C 
BRANCH  14  15
ATOM     15  C   UNL     1       7.147   4.795  14.548  0.00  0.00    +0.000 C 
BRANCH  15  16
ATOM     16  C   UNL     1       6.135   3.694  14.255  0.00  0.00    +0.000 C 
BRANCH  16  17
ATOM     17  C   UNL     1       5.933   3.542  12.769  0.00  0.00    +0.000 C 
ATOM     18  O   UNL     1       6.838   3.357  11.966  0.00  0.00    +0.000 OA
BRANCH  17  20
ATOM     19  C   UNL     1       4.259   3.082  11.208  0.00  0.00    +0.000 C 
ATOM     20  O   UNL     1       4.614   3.670  12.459  0.00  0.00    +0.000 OA
ENDBRANCH  17  20
ENDBRANCH  16  17
ENDBRANCH  15  16
ENDBRANCH  14  15
ENDBRANCH   6  14
ENDBRANCH   1  11
BRANCH   5  21
ATOM     21  N   UNL     1       2.196   5.724  18.462  0.00  0.00    +0.000 N 
ATOM     22  C   UNL     1       2.452   7.037  19.011  0.00  0.00    +0.000 C 
ATOM     23  O   UNL     1       2.429   7.225  20.219  0.00  0.00    +0.000 OA
ATOM     24  H   UNL     1       2.256   5.602  17.461  0.00  0.00    +0.000 HD
BRANCH  22  25
ATOM     25  C   UNL     1       2.743   8.131  18.019  0.00  0.00    +0.000 C 
BRANCH  25  26
ATOM     26  C   UNL     1       1.429   8.847  17.717  0.00  0.00    +0.000 C 
BRANCH  26  27
ATOM     27  O   UNL     1       0.916   9.463  18.897  0.00  0.00    +0.000 OA
BRANCH  27  28
ATOM     28  C   UNL     1      -0.243  10.177  18.695  0.00  0.00    +0.000 A 
ATOM     29  C   UNL     1      -0.480  11.217  19.595  0.00  0.00    +0.000 A 
ATOM     30  C   UNL     1      -1.637  11.994  19.490  0.00  0.00    +0.000 A 
ATOM     31  C   UNL     1      -2.556  11.745  18.473  0.00  0.00    +0.000 A 
ATOM     32  C   UNL     1      -2.313  10.727  17.555  0.00  0.00    +0.000 A 
ATOM     33  C   UNL     1      -1.159   9.946  17.662  0.00  0.00    +0.000 A 
ENDBRANCH  27  28
ENDBRANCH  26  27
ENDBRANCH  25  26
ENDBRANCH  22  25
ENDBRANCH   5  21
TORSDOF 11
ENDMDL
MODEL 5
REMARK VINA RESULT:      -7.1      3.798      6.086
REMARK  Name = 
REMARK  12 active torsions:
REMARK  status: ('A' for Active; 'I' for Inactive)
REMARK    1  A    between atoms: C_1  and  O_2
REMARK    2  A    between atoms: O_2  and  C_3
REMARK    3  A    between atoms: C_3  and  C_5
REMARK    4  A    between atoms: C_5  and  C_6
REMARK    5  A    between atoms: C_6  and  C_7
REMARK    6  A    between atoms: C_7  and  C_8
REMARK    7  A    between atoms: C_13  and  N_14
REMARK    8  A    between atoms: C_18  and  N_19
REMARK    9  A    between atoms: C_20  and  C_22
REMARK   10  A    between atoms: C_22  and  C_23
REMARK   11  A    between atoms: C_23  and  O_24
REMARK   12  A    between atoms: O_24  and  C_25
REMARK                            x       y       z     vdW  Elec       q    Type
REMARK                         _______ _______ _______ _____ _____    ______ ____
ROOT
ATOM      1  N   UNL     1       5.914   4.221  17.402  0.00  0.00    +0.000 N 
ATOM      2  N   UNL     1       5.313   3.431  16.490  0.00  0.00    +0.000 NA
ATOM      3  C   UNL     1       5.921   3.714  15.346  0.00  0.00    +0.000 A 
ATOM      4  C   UNL     1       6.912   4.691  15.512  0.00  0.00    +0.000 A 
ATOM      5  C   UNL     1       6.905   5.021  16.854  0.00  0.00    +0.000 A 
ENDROOT
BRANCH   1  11
ATOM      6  C   UNL     1       1.447   4.321  19.958  0.00  0.00    +0.000 C 
ATOM      7  O   UNL     1       0.983   3.268  20.400  0.00  0.00    +0.000 OA
ATOM      8  N   UNL     1       2.554   4.356  19.112  0.00  0.00    +0.000 N 
ATOM      9  C   UNL     1       3.110   3.111  18.580  0.00  0.00    +0.000 C 
ATOM     10  C   UNL     1       4.551   2.924  19.048  0.00  0.00    +0.000 C 
ATOM     11  C   UNL     1       5.437   4.157  18.783  0.00  0.00    +0.000 C 
ATOM     12  C   UNL     1       4.736   5.462  19.214  0.00  0.00    +0.000 C 
ATOM     13  C   UNL     1       3.286   5.560  18.727  0.00  0.00    +0.000 C 
BRANCH   6  14
ATOM     14  C   UNL     1       0.812   5.660  20.310  0.00  0.00    +0.000 C 
BRANCH  14  15
ATOM     15  C   UNL     1       1.825   6.643  20.901  0.00  0.00    +0.000 C 
BRANCH  15  16
ATOM     16  C   UNL     1       1.201   8.010  21.153  0.00  0.00    +0.000 C 
BRANCH  16  17
ATOM     17  C   UNL     1       1.188   8.827  19.885  0.00  0.00    +0.000 C 
ATOM     18  O   UNL     1       1.897   8.603  18.913  0.00  0.00    +0.000 OA
BRANCH  17  20
ATOM     19  C   UNL     1       0.320  10.752  18.889  0.00  0.00    +0.000 C 
ATOM     20  O   UNL     1       0.300   9.852  19.997  0.00  0.00    +0.000 OA
ENDBRANCH  17  20
ENDBRANCH  16  17
ENDBRANCH  15  16
ENDBRANCH  14  15
ENDBRANCH   6  14
ENDBRANCH   1  11
BRANCH   5  21
ATOM     21  N   UNL     1       7.724   5.954  17.502  0.00  0.00    +0.000 N 
ATOM     22  C   UNL     1       7.393   7.360  17.574  0.00  0.00    +0.000 C 
ATOM     23  O   UNL     1       6.348   7.781  17.099  0.00  0.00    +0.000 OA
ATOM     24  H   UNL     1       8.582   5.640  17.934  0.00  0.00    +0.000 HD
BRANCH  22  25
ATOM     25  C   UNL     1       8.396   8.248  18.259  0.00  0.00    +0.000 C 
BRANCH  25  26
ATOM     26  C   UNL     1       8.433   9.575  17.506  0.00  0.00    +0.000 C 
BRANCH  26  27
ATOM     27  O   UNL     1       8.333  10.667  18.417  0.00  0.00    +0.000 OA
BRANCH  27  28
ATOM     28  C   UNL     1       9.548  11.154  18.841  0.00  0.00    +0.000 A 
ATOM     29  C   UNL     1      10.456  11.480  17.832  0.00  0.00    +0.000 A 
ATOM     30  C   UNL     1      11.726  11.967  18.152  0.00  0.00    +0.000 A 
ATOM     31  C   UNL     1      12.090  12.147  19.485  0.00  0.00    +0.000 A 
ATOM     32  C   UNL     1      11.180  11.850  20.497  0.00  0.00    +0.000 A 
ATOM     33  C   UNL     1       9.911  11.358  20.177  0.00  0.00    +0.000 A 
ENDBRANCH  27  28
ENDBRANCH  26  27
ENDBRANCH  25  26
ENDBRANCH  22  25
ENDBRANCH   5  21
TORSDOF 11
ENDMDL
MODEL 6
REMARK VINA RESULT:      -7.1      1.168      1.725
REMARK  Name = 
REMARK  12 active torsions:
REMARK  status: ('A' for Active; 'I' for Inactive)
REMARK    1  A    between atoms: C_1  and  O_2
REMARK    2  A    between atoms: O_2  and  C_3
REMARK    3  A    between atoms: C_3  and  C_5
REMARK    4  A    between atoms: C_5  and  C_6
REMARK    5  A    between atoms: C_6  and  C_7
REMARK    6  A    between atoms: C_7  and  C_8
REMARK    7  A    between atoms: C_13  and  N_14
REMARK    8  A    between atoms: C_18  and  N_19
REMARK    9  A    between atoms: C_20  and  C_22
REMARK   10  A    between atoms: C_22  and  C_23
REMARK   11  A    between atoms: C_23  and  O_24
REMARK   12  A    between atoms: O_24  and  C_25
REMARK                            x       y       z     vdW  Elec       q    Type
REMARK                         _______ _______ _______ _____ _____    ______ ____
ROOT
ATOM      1  N   UNL     1       3.430   3.723  19.085  0.00  0.00    +0.000 N 
ATOM      2  N   UNL     1       2.874   2.924  20.018  0.00  0.00    +0.000 NA
ATOM      3  C   UNL     1       3.902   2.313  20.592  0.00  0.00    +0.000 A 
ATOM      4  C   UNL     1       5.123   2.708  20.029  0.00  0.00    +0.000 A 
ATOM      5  C   UNL     1       4.812   3.628  19.045  0.00  0.00    +0.000 A 
ENDROOT
BRANCH   1  11
ATOM      6  C   UNL     1       1.999   8.640  18.556  0.00  0.00    +0.000 C 
ATOM      7  O   UNL     1       2.458   9.303  17.625  0.00  0.00    +0.000 OA
ATOM      8  N   UNL     1       2.465   7.365  18.869  0.00  0.00    +0.000 N 
ATOM      9  C   UNL     1       3.647   6.828  18.193  0.00  0.00    +0.000 C 
ATOM     10  C   UNL     1       3.289   5.570  17.406  0.00  0.00    +0.000 C 
ATOM     11  C   UNL     1       2.535   4.524  18.250  0.00  0.00    +0.000 C 
ATOM     12  C   UNL     1       1.399   5.169  19.071  0.00  0.00    +0.000 C 
ATOM     13  C   UNL     1       1.833   6.441  19.808  0.00  0.00    +0.000 C 
BRANCH   6  14
ATOM     14  C   UNL     1       0.890   9.200  19.439  0.00  0.00    +0.000 C 
BRANCH  14  15
ATOM     15  C   UNL     1       1.191  10.624  19.911  0.00  0.00    +0.000 C 
BRANCH  15  16
ATOM     16  C   UNL     1      -0.085  11.436  20.096  0.00  0.00    +0.000 C 
BRANCH  16  17
ATOM     17  C   UNL     1      -0.577  11.332  21.517  0.00  0.00    +0.000 C 
ATOM     18  O   UNL     1      -1.638  11.795  21.914  0.00  0.00    +0.000 OA
BRANCH  17  20
ATOM     19  C   UNL     1      -0.231   9.691  23.141  0.00  0.00    +0.000 C 
ATOM     20  O   UNL     1       0.338  10.681  22.284  0.00  0.00    +0.000 OA
ENDBRANCH  17  20
ENDBRANCH  16  17
ENDBRANCH  15  16
ENDBRANCH  14  15
ENDBRANCH   6  14
ENDBRANCH   1  11
BRANCH   5  21
ATOM     21  N   UNL     1       5.705   4.306  18.206  0.00  0.00    +0.000 N 
ATOM     22  C   UNL     1       6.737   5.181  18.716  0.00  0.00    +0.000 C 
ATOM     23  O   UNL     1       6.893   5.330  19.919  0.00  0.00    +0.000 OA
ATOM     24  H   UNL     1       5.629   4.185  17.206  0.00  0.00    +0.000 HD
BRANCH  22  25
ATOM     25  C   UNL     1       7.588   5.879  17.690  0.00  0.00    +0.000 C 
BRANCH  25  26
ATOM     26  C   UNL     1       6.816   5.886  16.372  0.00  0.00    +0.000 C 
BRANCH  26  27
ATOM     27  O   UNL     1       7.690   5.597  15.283  0.00  0.00    +0.000 OA
BRANCH  27  28
ATOM     28  C   UNL     1       7.091   4.904  14.256  0.00  0.00    +0.000 A 
ATOM     29  C   UNL     1       7.753   4.947  13.028  0.00  0.00    +0.000 A 
ATOM     30  C   UNL     1       7.221   4.291  11.914  0.00  0.00    +0.000 A 
ATOM     31  C   UNL     1       6.032   3.573  12.027  0.00  0.00    +0.000 A 
ATOM     32  C   UNL     1       5.381   3.503  13.256  0.00  0.00    +0.000 A 
ATOM     33  C   UNL     1       5.909   4.163  14.369  0.00  0.00    +0.000 A 
ENDBRANCH  27  28
ENDBRANCH  26  27
ENDBRANCH  25  26
ENDBRANCH  22  25
ENDBRANCH   5  21
TORSDOF 11
ENDMDL
MODEL 7
REMARK VINA RESULT:      -7.1      1.802      2.114
REMARK  Name = 
REMARK  12 active torsions:
REMARK  status: ('A' for Active; 'I' for Inactive)
REMARK    1  A    between atoms: C_1  and  O_2
REMARK    2  A    between atoms: O_2  and  C_3
REMARK    3  A    between atoms: C_3  and  C_5
REMARK    4  A    between atoms: C_5  and  C_6
REMARK    5  A    between atoms: C_6  and  C_7
REMARK    6  A    between atoms: C_7  and  C_8
REMARK    7  A    between atoms: C_13  and  N_14
REMARK    8  A    between atoms: C_18  and  N_19
REMARK    9  A    between atoms: C_20  and  C_22
REMARK   10  A    between atoms: C_22  and  C_23
REMARK   11  A    between atoms: C_23  and  O_24
REMARK   12  A    between atoms: O_24  and  C_25
REMARK                            x       y       z     vdW  Elec       q    Type
REMARK                         _______ _______ _______ _____ _____    ______ ____
ROOT
ATOM      1  N   UNL     1       2.830   3.539  19.734  0.00  0.00    +0.000 N 
ATOM      2  N   UNL     1       2.476   2.691  20.720  0.00  0.00    +0.000 NA
ATOM      3  C   UNL     1       3.587   2.024  21.004  0.00  0.00    +0.000 A 
ATOM      4  C   UNL     1       4.659   2.433  20.201  0.00  0.00    +0.000 A 
ATOM      5  C   UNL     1       4.163   3.421  19.372  0.00  0.00    +0.000 A 
ENDROOT
BRANCH   1  11
ATOM      6  C   UNL     1       1.666   8.551  19.566  0.00  0.00    +0.000 C 
ATOM      7  O   UNL     1       1.888   9.186  18.534  0.00  0.00    +0.000 OA
ATOM      8  N   UNL     1       2.108   7.242  19.752  0.00  0.00    +0.000 N 
ATOM      9  C   UNL     1       3.008   6.627  18.775  0.00  0.00    +0.000 C 
ATOM     10  C   UNL     1       2.352   5.404  18.138  0.00  0.00    +0.000 C 
ATOM     11  C   UNL     1       1.795   4.409  19.176  0.00  0.00    +0.000 C 
ATOM     12  C   UNL     1       0.988   5.129  20.277  0.00  0.00    +0.000 C 
ATOM     13  C   UNL     1       1.704   6.360  20.843  0.00  0.00    +0.000 C 
BRANCH   6  14
ATOM     14  C   UNL     1       0.896   9.183  20.720  0.00  0.00    +0.000 C 
BRANCH  14  15
ATOM     15  C   UNL     1       0.418  10.598  20.388  0.00  0.00    +0.000 C 
BRANCH  15  16
ATOM     16  C   UNL     1      -1.079  10.635  20.108  0.00  0.00    +0.000 C 
BRANCH  16  17
ATOM     17  C   UNL     1      -1.340  11.017  18.673  0.00  0.00    +0.000 C 
ATOM     18  O   UNL     1      -0.780  11.937  18.092  0.00  0.00    +0.000 OA
BRANCH  17  20
ATOM     19  C   UNL     1      -2.173  10.023  16.732  0.00  0.00    +0.000 C 
ATOM     20  O   UNL     1      -2.301  10.213  18.141  0.00  0.00    +0.000 OA
ENDBRANCH  17  20
ENDBRANCH  16  17
ENDBRANCH  15  16
ENDBRANCH  14  15
ENDBRANCH   6  14
ENDBRANCH   1  11
BRANCH   5  21
ATOM     21  N   UNL     1       4.863   4.137  18.392  0.00  0.00    +0.000 N 
ATOM     22  C   UNL     1       5.994   4.981  18.706  0.00  0.00    +0.000 C 
ATOM     23  O   UNL     1       6.410   5.067  19.853  0.00  0.00    +0.000 OA
ATOM     24  H   UNL     1       4.569   4.066  17.428  0.00  0.00    +0.000 HD
BRANCH  22  25
ATOM     25  C   UNL     1       6.613   5.725  17.555  0.00  0.00    +0.000 C 
BRANCH  25  26
ATOM     26  C   UNL     1       7.282   4.700  16.643  0.00  0.00    +0.000 C 
BRANCH  26  27
ATOM     27  O   UNL     1       6.325   4.121  15.759  0.00  0.00    +0.000 OA
BRANCH  27  28
ATOM     28  C   UNL     1       6.638   4.262  14.427  0.00  0.00    +0.000 A 
ATOM     29  C   UNL     1       5.935   3.438  13.547  0.00  0.00    +0.000 A 
ATOM     30  C   UNL     1       6.189   3.489  12.173  0.00  0.00    +0.000 A 
ATOM     31  C   UNL     1       7.136   4.378  11.670  0.00  0.00    +0.000 A 
ATOM     32  C   UNL     1       7.821   5.224  12.539  0.00  0.00    +0.000 A 
ATOM     33  C   UNL     1       7.572   5.169  13.913  0.00  0.00    +0.000 A 
ENDBRANCH  27  28
ENDBRANCH  26  27
ENDBRANCH  25  26
ENDBRANCH  22  25
ENDBRANCH   5  21
TORSDOF 11
ENDMDL
MODEL 8
REMARK VINA RESULT:      -7.0      2.477      9.496
REMARK  Name = 
REMARK  12 active torsions:
REMARK  status: ('A' for Active; 'I' for Inactive)
REMARK    1  A    between atoms: C_1  and  O_2
REMARK    2  A    between atoms: O_2  and  C_3
REMARK    3  A    between atoms: C_3  and  C_5
REMARK    4  A    between atoms: C_5  and  C_6
REMARK    5  A    between atoms: C_6  and  C_7
REMARK    6  A    between atoms: C_7  and  C_8
REMARK    7  A    between atoms: C_13  and  N_14
REMARK    8  A    between atoms: C_18  and  N_19
REMARK    9  A    between atoms: C_20  and  C_22
REMARK   10  A    between atoms: C_22  and  C_23
REMARK   11  A    between atoms: C_23  and  O_24
REMARK   12  A    between atoms: O_24  and  C_25
REMARK                            x       y       z     vdW  Elec       q    Type
REMARK                         _______ _______ _______ _____ _____    ______ ____
ROOT
ATOM      1  N   UNL     1       3.046   3.934  19.860  0.00  0.00    +0.000 N 
ATOM      2  N   UNL     1       2.490   3.008  20.667  0.00  0.00    +0.000 NA
ATOM      3  C   UNL     1       1.237   3.413  20.829  0.00  0.00    +0.000 A 
ATOM      4  C   UNL     1       0.981   4.602  20.134  0.00  0.00    +0.000 A 
ATOM      5  C   UNL     1       2.163   4.941  19.504  0.00  0.00    +0.000 A 
ENDROOT
BRANCH   1  11
ATOM      6  C   UNL     1       6.191   4.938  15.910  0.00  0.00    +0.000 C 
ATOM      7  O   UNL     1       6.950   5.907  15.976  0.00  0.00    +0.000 OA
ATOM      8  N   UNL     1       5.194   4.701  16.854  0.00  0.00    +0.000 N 
ATOM      9  C   UNL     1       4.905   5.701  17.883  0.00  0.00    +0.000 C 
ATOM     10  C   UNL     1       5.163   5.128  19.275  0.00  0.00    +0.000 C 
ATOM     11  C   UNL     1       4.458   3.778  19.512  0.00  0.00    +0.000 C 
ATOM     12  C   UNL     1       4.659   2.816  18.322  0.00  0.00    +0.000 C 
ATOM     13  C   UNL     1       4.407   3.475  16.962  0.00  0.00    +0.000 C 
BRANCH   6  14
ATOM     14  C   UNL     1       6.296   3.943  14.760  0.00  0.00    +0.000 C 
BRANCH  14  15
ATOM     15  C   UNL     1       5.343   4.284  13.613  0.00  0.00    +0.000 C 
BRANCH  15  16
ATOM     16  C   UNL     1       5.478   3.298  12.458  0.00  0.00    +0.000 C 
BRANCH  16  17
ATOM     17  C   UNL     1       6.816   3.457  11.780  0.00  0.00    +0.000 C 
ATOM     18  O   UNL     1       7.409   4.522  11.666  0.00  0.00    +0.000 OA
BRANCH  17  20
ATOM     19  C   UNL     1       6.240   1.243  11.318  0.00  0.00    +0.000 C 
ATOM     20  O   UNL     1       7.243   2.258  11.298  0.00  0.00    +0.000 OA
ENDBRANCH  17  20
ENDBRANCH  16  17
ENDBRANCH  15  16
ENDBRANCH  14  15
ENDBRANCH   6  14
ENDBRANCH   1  11
BRANCH   5  21
ATOM     21  N   UNL     1       2.399   6.054  18.687  0.00  0.00    +0.000 N 
ATOM     22  C   UNL     1       2.264   7.412  19.167  0.00  0.00    +0.000 C 
ATOM     23  O   UNL     1       1.973   7.636  20.333  0.00  0.00    +0.000 OA
ATOM     24  H   UNL     1       2.672   5.910  17.725  0.00  0.00    +0.000 HD
BRANCH  22  25
ATOM     25  C   UNL     1       2.502   8.503  18.159  0.00  0.00    +0.000 C 
BRANCH  25  26
ATOM     26  C   UNL     1       1.143   9.084  17.773  0.00  0.00    +0.000 C 
BRANCH  26  27
ATOM     27  O   UNL     1       0.863  10.248  18.547  0.00  0.00    +0.000 OA
BRANCH  27  28
ATOM     28  C   UNL     1      -0.454  10.643  18.503  0.00  0.00    +0.000 A 
ATOM     29  C   UNL     1      -1.260   9.968  17.585  0.00  0.00    +0.000 A 
ATOM     30  C   UNL     1      -2.610  10.303  17.447  0.00  0.00    +0.000 A 
ATOM     31  C   UNL     1      -3.166  11.304  18.241  0.00  0.00    +0.000 A 
ATOM     32  C   UNL     1      -2.376  11.963  19.178  0.00  0.00    +0.000 A 
ATOM     33  C   UNL     1      -1.024  11.632  19.313  0.00  0.00    +0.000 A 
ENDBRANCH  27  28
ENDBRANCH  26  27
ENDBRANCH  25  26
ENDBRANCH  22  25
ENDBRANCH   5  21
TORSDOF 11
ENDMDL
MODEL 9
REMARK VINA RESULT:      -6.9      2.960     11.724
REMARK  Name = 
REMARK  12 active torsions:
REMARK  status: ('A' for Active; 'I' for Inactive)
REMARK    1  A    between atoms: C_1  and  O_2
REMARK    2  A    between atoms: O_2  and  C_3
REMARK    3  A    between atoms: C_3  and  C_5
REMARK    4  A    between atoms: C_5  and  C_6
REMARK    5  A    between atoms: C_6  and  C_7
REMARK    6  A    between atoms: C_7  and  C_8
REMARK    7  A    between atoms: C_13  and  N_14
REMARK    8  A    between atoms: C_18  and  N_19
REMARK    9  A    between atoms: C_20  and  C_22
REMARK   10  A    between atoms: C_22  and  C_23
REMARK   11  A    between atoms: C_23  and  O_24
REMARK   12  A    between atoms: O_24  and  C_25
REMARK                            x       y       z     vdW  Elec       q    Type
REMARK                         _______ _______ _______ _____ _____    ______ ____
ROOT
ATOM      1  N   UNL     1       1.007  11.318  19.475  0.00  0.00    +0.000 N 
ATOM      2  N   UNL     1       1.895  11.835  18.601  0.00  0.00    +0.000 NA
ATOM      3  C   UNL     1       2.241  13.003  19.125  0.00  0.00    +0.000 A 
ATOM      4  C   UNL     1       1.576  13.249  20.334  0.00  0.00    +0.000 A 
ATOM      5  C   UNL     1       0.771  12.148  20.559  0.00  0.00    +0.000 A 
ENDROOT
BRANCH   1  11
ATOM      6  C   UNL     1       2.398   6.366  19.276  0.00  0.00    +0.000 C 
ATOM      7  O   UNL     1       2.056   5.608  20.186  0.00  0.00    +0.000 OA
ATOM      8  N   UNL     1       2.213   7.745  19.340  0.00  0.00    +0.000 N 
ATOM      9  C   UNL     1       1.747   8.366  20.581  0.00  0.00    +0.000 C 
ATOM     10  C   UNL     1       0.404   9.060  20.363  0.00  0.00    +0.000 C 
ATOM     11  C   UNL     1       0.411  10.021  19.157  0.00  0.00    +0.000 C 
ATOM     12  C   UNL     1       1.062   9.372  17.918  0.00  0.00    +0.000 C 
ATOM     13  C   UNL     1       2.390   8.675  18.228  0.00  0.00    +0.000 C 
BRANCH   6  14
ATOM     14  C   UNL     1       3.069   5.823  18.020  0.00  0.00    +0.000 C 
BRANCH  14  15
ATOM     15  C   UNL     1       4.594   5.910  18.096  0.00  0.00    +0.000 C 
BRANCH  15  16
ATOM     16  C   UNL     1       5.261   5.052  17.028  0.00  0.00    +0.000 C 
BRANCH  16  17
ATOM     17  C   UNL     1       6.653   4.661  17.457  0.00  0.00    +0.000 C 
ATOM     18  O   UNL     1       6.986   4.459  18.617  0.00  0.00    +0.000 OA
BRANCH  17  20
ATOM     19  C   UNL     1       6.824   4.893  15.140  0.00  0.00    +0.000 C 
ATOM     20  O   UNL     1       7.476   4.597  16.375  0.00  0.00    +0.000 OA
ENDBRANCH  17  20
ENDBRANCH  16  17
ENDBRANCH  15  16
ENDBRANCH  14  15
ENDBRANCH   6  14
ENDBRANCH   1  11
BRANCH   5  21
ATOM     21  N   UNL     1      -0.085  11.933  21.647  0.00  0.00    +0.000 N 
ATOM     22  C   UNL     1      -1.521  12.068  21.544  0.00  0.00    +0.000 C 
ATOM     23  O   UNL     1      -2.048  12.339  20.475  0.00  0.00    +0.000 OA
ATOM     24  H   UNL     1       0.310  11.676  22.541  0.00  0.00    +0.000 HD
BRANCH  22  25
ATOM     25  C   UNL     1      -2.305  11.854  22.810  0.00  0.00    +0.000 C 
BRANCH  25  26
ATOM     26  C   UNL     1      -2.797  13.218  23.288  0.00  0.00    +0.000 C 
BRANCH  26  27
ATOM     27  O   UNL     1      -3.751  13.751  22.372  0.00  0.00    +0.000 OA
BRANCH  27  28
ATOM     28  C   UNL     1      -5.019  13.241  22.528  0.00  0.00    +0.000 A 
ATOM     29  C   UNL     1      -5.530  13.271  23.827  0.00  0.00    +0.000 A 
ATOM     30  C   UNL     1      -6.803  12.762  24.099  0.00  0.00    +0.000 A 
ATOM     31  C   UNL     1      -7.580  12.236  23.069  0.00  0.00    +0.000 A 
ATOM     32  C   UNL     1      -7.089  12.229  21.766  0.00  0.00    +0.000 A 
ATOM     33  C   UNL     1      -5.814  12.732  21.494  0.00  0.00    +0.000 A 
ENDBRANCH  27  28
ENDBRANCH  26  27
ENDBRANCH  25  26
ENDBRANCH  22  25
ENDBRANCH   5  21
TORSDOF 11
ENDMDL
