MODEL 1
REMARK VINA RESULT:      -7.5      0.000      0.000
REMARK  Name = 
REMARK  8 active torsions:
REMARK  status: ('A' for Active; 'I' for Inactive)
REMARK    1  A    between atoms: C_1  and  O_2
REMARK    2  A    between atoms: O_2  and  C_3
REMARK    3  A    between atoms: C_5  and  C_6
REMARK    4  A    between atoms: N_7  and  N_8
REMARK    5  A    between atoms: N_13  and  N_14
REMARK    6  A    between atoms: C_17  and  O_18
REMARK    7  A    between atoms: O_18  and  C_19
REMARK    8  A    between atoms: C_19  and  C_20
REMARK                            x       y       z     vdW  Elec       q    Type
REMARK                         _______ _______ _______ _____ _____    ______ ____
ROOT
ATOM      1  C   UNL     1       2.123   4.901  19.991  0.00  0.00    +0.000 A 
ATOM      2  C   UNL     1       2.806   4.221  18.940  0.00  0.00    +0.000 A 
ATOM      3  C   UNL     1       3.431   4.928  17.894  0.00  0.00    +0.000 A 
ATOM      4  C   UNL     1       3.295   6.318  17.851  0.00  0.00    +0.000 A 
ATOM      5  C   UNL     1       2.638   6.993  18.857  0.00  0.00    +0.000 A 
ATOM      6  C   UNL     1       2.072   6.328  19.939  0.00  0.00    +0.000 A 
ENDROOT
BRANCH   1   8
ATOM      7  C   UNL     1       1.873   2.987  21.553  0.00  0.00    +0.000 C 
ATOM      8  O   UNL     1       1.526   4.221  21.014  0.00  0.00    +0.000 OA
ENDBRANCH   1   8
BRANCH   3   9
ATOM      9  C   UNL     1       4.201   4.190  16.851  0.00  0.00    +0.000 C 
ATOM     10  N   UNL     1       5.492   4.026  16.839  0.00  0.00    +0.000 NA
BRANCH  10  11
ATOM     11  N   UNL     1       6.344   4.409  17.860  0.00  0.00    +0.000 N 
ATOM     12  C   UNL     1       6.962   5.681  17.837  0.00  0.00    +0.000 A 
ATOM     13  N   UNL     1       6.780   6.591  16.863  0.00  0.00    +0.000 NA
ATOM     14  N   UNL     1       7.533   7.643  17.169  0.00  0.00    +0.000 NA
ATOM     15  C   UNL     1       8.165   7.366  18.329  0.00  0.00    +0.000 A 
ATOM     16  N   UNL     1       7.820   6.146  18.767  0.00  0.00    +0.000 N 
ATOM     17  H   UNL     1       6.661   3.742  18.571  0.00  0.00    +0.000 HD
BRANCH  16  18
ATOM     18  N   UNL     1       8.266   5.529  19.930  0.00  0.00    +0.000 N 
ATOM     19  H   UNL     1       7.606   5.341  20.701  0.00  0.00    +0.000 HD
ATOM     20  H   UNL     1       9.244   5.229  20.036  0.00  0.00    +0.000 HD
ENDBRANCH  16  18
ENDBRANCH  10  11
ENDBRANCH   3   9
BRANCH   6  21
ATOM     21  O   UNL     1       1.532   7.184  20.844  0.00  0.00    +0.000 OA
BRANCH  21  22
ATOM     22  C   UNL     1       1.192   8.488  20.909  0.00  0.00    +0.000 C 
ATOM     23  C   UNL     1       1.290   9.126  22.263  0.00  0.00    +0.000 C 
ATOM     24  O   UNL     1       0.844   9.129  19.931  0.00  0.00    +0.000 OA
ENDBRANCH  21  22
ENDBRANCH   6  21
TORSDOF 6
ENDMDL
MODEL 2
REMARK VINA RESULT:      -7.3      1.891      2.982
REMARK  Name = 
REMARK  8 active torsions:
REMARK  status: ('A' for Active; 'I' for Inactive)
REMARK    1  A    between atoms: C_1  and  O_2
REMARK    2  A    between atoms: O_2  and  C_3
REMARK    3  A    between atoms: C_5  and  C_6
REMARK    4  A    between atoms: N_7  and  N_8
REMARK    5  A    between atoms: N_13  and  N_14
REMARK    6  A    between atoms: C_17  and  O_18
REMARK    7  A    between atoms: O_18  and  C_19
REMARK    8  A    between atoms: C_19  and  C_20
REMARK                            x       y       z     vdW  Elec       q    Type
REMARK                         _______ _______ _______ _____ _____    ______ ____
ROOT
ATOM      1  C   UNL     1       2.368   7.071  18.820  0.00  0.00    +0.000 A 
ATOM      2  C   UNL     1       2.523   5.872  18.064  0.00  0.00    +0.000 A 
ATOM      3  C   UNL     1       2.212   4.613  18.614  0.00  0.00    +0.000 A 
ATOM      4  C   UNL     1       1.832   4.544  19.957  0.00  0.00    +0.000 A 
ATOM      5  C   UNL     1       1.678   5.691  20.705  0.00  0.00    +0.000 A 
ATOM      6  C   UNL     1       1.908   6.953  20.169  0.00  0.00    +0.000 A 
ENDROOT
BRANCH   1   8
ATOM      7  C   UNL     1       1.774   9.268  17.828  0.00  0.00    +0.000 C 
ATOM      8  O   UNL     1       2.656   8.295  18.289  0.00  0.00    +0.000 OA
ENDBRANCH   1   8
BRANCH   3   9
ATOM      9  C   UNL     1       2.313   3.386  17.771  0.00  0.00    +0.000 C 
ATOM     10  N   UNL     1       3.419   2.863  17.328  0.00  0.00    +0.000 NA
BRANCH  10  11
ATOM     11  N   UNL     1       4.687   3.295  17.671  0.00  0.00    +0.000 N 
ATOM     12  C   UNL     1       5.479   4.005  16.738  0.00  0.00    +0.000 A 
ATOM     13  N   UNL     1       5.080   4.311  15.489  0.00  0.00    +0.000 NA
ATOM     14  N   UNL     1       6.088   4.954  14.908  0.00  0.00    +0.000 NA
ATOM     15  C   UNL     1       7.090   5.038  15.808  0.00  0.00    +0.000 A 
ATOM     16  N   UNL     1       6.730   4.454  16.961  0.00  0.00    +0.000 N 
ATOM     17  H   UNL     1       5.139   2.992  18.540  0.00  0.00    +0.000 HD
BRANCH  16  18
ATOM     18  N   UNL     1       7.500   4.355  18.113  0.00  0.00    +0.000 N 
ATOM     19  H   UNL     1       7.330   4.992  18.906  0.00  0.00    +0.000 HD
ATOM     20  H   UNL     1       8.232   3.638  18.208  0.00  0.00    +0.000 HD
ENDBRANCH  16  18
ENDBRANCH  10  11
ENDBRANCH   3   9
BRANCH   6  21
ATOM     21  O   UNL     1       1.637   7.947  21.054  0.00  0.00    +0.000 OA
BRANCH  21  22
ATOM     22  C   UNL     1       0.596   8.739  21.380  0.00  0.00    +0.000 C 
ATOM     23  C   UNL     1       0.864  10.216  21.370  0.00  0.00    +0.000 C 
ATOM     24  O   UNL     1      -0.510   8.299  21.649  0.00  0.00    +0.000 OA
ENDBRANCH  21  22
ENDBRANCH   6  21
TORSDOF 6
ENDMDL
MODEL 3
REMARK VINA RESULT:      -7.3      2.285      3.701
REMARK  Name = 
REMARK  8 active torsions:
REMARK  status: ('A' for Active; 'I' for Inactive)
REMARK    1  A    between atoms: C_1  and  O_2
REMARK    2  A    between atoms: O_2  and  C_3
REMARK    3  A    between atoms: C_5  and  C_6
REMARK    4  A    between atoms: N_7  and  N_8
REMARK    5  A    between atoms: N_13  and  N_14
REMARK    6  A    between atoms: C_17  and  O_18
REMARK    7  A    between atoms: O_18  and  C_19
REMARK    8  A    between atoms: C_19  and  C_20
REMARK                            x       y       z     vdW  Elec       q    Type
REMARK                         _______ _______ _______ _____ _____    ______ ____
ROOT
ATOM      1  C   UNL     1       1.761   4.266  18.537  0.00  0.00    +0.000 A 
ATOM      2  C   UNL     1       2.328   5.350  17.806  0.00  0.00    +0.000 A 
ATOM      3  C   UNL     1       2.658   6.567  18.435  0.00  0.00    +0.000 A 
ATOM      4  C   UNL     1       2.333   6.732  19.784  0.00  0.00    +0.000 A 
ATOM      5  C   UNL     1       1.783   5.696  20.508  0.00  0.00    +0.000 A 
ATOM      6  C   UNL     1       1.513   4.460  19.931  0.00  0.00    +0.000 A 
ENDROOT
BRANCH   1   8
ATOM      7  C   UNL     1       2.239   1.941  17.810  0.00  0.00    +0.000 C 
ATOM      8  O   UNL     1       1.451   3.081  17.935  0.00  0.00    +0.000 OA
ENDBRANCH   1   8
BRANCH   3   9
ATOM      9  C   UNL     1       3.320   7.654  17.657  0.00  0.00    +0.000 C 
ATOM     10  N   UNL     1       4.584   7.702  17.351  0.00  0.00    +0.000 NA
BRANCH  10  11
ATOM     11  N   UNL     1       5.493   6.689  17.598  0.00  0.00    +0.000 N 
ATOM     12  C   UNL     1       6.023   5.927  16.531  0.00  0.00    +0.000 A 
ATOM     13  N   UNL     1       5.704   6.117  15.237  0.00  0.00    +0.000 NA
ATOM     14  N   UNL     1       6.374   5.208  14.536  0.00  0.00    +0.000 NA
ATOM     15  C   UNL     1       7.099   4.475  15.407  0.00  0.00    +0.000 A 
ATOM     16  N   UNL     1       6.897   4.909  16.660  0.00  0.00    +0.000 N 
ATOM     17  H   UNL     1       5.692   6.370  18.552  0.00  0.00    +0.000 HD
BRANCH  16  18
ATOM     18  N   UNL     1       7.480   4.401  17.815  0.00  0.00    +0.000 N 
ATOM     19  H   UNL     1       8.454   4.645  18.053  0.00  0.00    +0.000 HD
ATOM     20  H   UNL     1       6.953   3.798  18.461  0.00  0.00    +0.000 HD
ENDBRANCH  16  18
ENDBRANCH  10  11
ENDBRANCH   3   9
BRANCH   6  21
ATOM     21  O   UNL     1       1.034   3.565  20.833  0.00  0.00    +0.000 OA
BRANCH  21  22
ATOM     22  C   UNL     1       1.528   2.692  21.735  0.00  0.00    +0.000 C 
ATOM     23  C   UNL     1       2.942   2.243  21.511  0.00  0.00    +0.000 C 
ATOM     24  O   UNL     1       0.884   2.298  22.694  0.00  0.00    +0.000 OA
ENDBRANCH  21  22
ENDBRANCH   6  21
TORSDOF 6
ENDMDL
MODEL 4
REMARK VINA RESULT:      -7.2      1.972      3.471
REMARK  Name = 
REMARK  8 active torsions:
REMARK  status: ('A' for Active; 'I' for Inactive)
REMARK    1  A    between atoms: C_1  and  O_2
REMARK    2  A    between atoms: O_2  and  C_3
REMARK    3  A    between atoms: C_5  and  C_6
REMARK    4  A    between atoms: N_7  and  N_8
REMARK    5  A    between atoms: N_13  and  N_14
REMARK    6  A    between atoms: C_17  and  O_18
REMARK    7  A    between atoms: O_18  and  C_19
REMARK    8  A    between atoms: C_19  and  C_20
REMARK                            x       y       z     vdW  Elec       q    Type
REMARK                         _______ _______ _______ _____ _____    ______ ____
ROOT
ATOM      1  C   UNL     1       3.215   5.421  17.870  0.00  0.00    +0.000 A 
ATOM      2  C   UNL     1       4.369   5.382  17.033  0.00  0.00    +0.000 A 
ATOM      3  C   UNL     1       4.759   4.197  16.377  0.00  0.00    +0.000 A 
ATOM      4  C   UNL     1       4.044   3.025  16.632  0.00  0.00    +0.000 A 
ATOM      5  C   UNL     1       2.926   3.042  17.439  0.00  0.00    +0.000 A 
ATOM      6  C   UNL     1       2.475   4.210  18.042  0.00  0.00    +0.000 A 
ENDROOT
BRANCH   1   8
ATOM      7  C   UNL     1       2.182   7.677  17.956  0.00  0.00    +0.000 C 
ATOM      8  O   UNL     1       2.825   6.569  18.498  0.00  0.00    +0.000 OA
ENDBRANCH   1   8
BRANCH   3   9
ATOM      9  C   UNL     1       5.928   4.209  15.450  0.00  0.00    +0.000 C 
ATOM     10  N   UNL     1       7.146   4.528  15.774  0.00  0.00    +0.000 NA
BRANCH  10  11
ATOM     11  N   UNL     1       7.575   4.792  17.063  0.00  0.00    +0.000 N 
ATOM     12  C   UNL     1       7.758   6.125  17.499  0.00  0.00    +0.000 A 
ATOM     13  N   UNL     1       7.536   7.207  16.729  0.00  0.00    +0.000 NA
ATOM     14  N   UNL     1       7.834   8.273  17.465  0.00  0.00    +0.000 NA
ATOM     15  C   UNL     1       8.232   7.832  18.678  0.00  0.00    +0.000 A 
ATOM     16  N   UNL     1       8.188   6.492  18.722  0.00  0.00    +0.000 N 
ATOM     17  H   UNL     1       7.908   4.043  17.679  0.00  0.00    +0.000 HD
BRANCH  16  18
ATOM     18  N   UNL     1       8.518   5.690  19.808  0.00  0.00    +0.000 N 
ATOM     19  H   UNL     1       9.366   5.102  19.779  0.00  0.00    +0.000 HD
ATOM     20  H   UNL     1       7.945   5.682  20.662  0.00  0.00    +0.000 HD
ENDBRANCH  16  18
ENDBRANCH  10  11
ENDBRANCH   3   9
BRANCH   6  21
ATOM     21  O   UNL     1       1.326   4.020  18.740  0.00  0.00    +0.000 OA
BRANCH  21  22
ATOM     22  C   UNL     1       0.775   3.065  19.518  0.00  0.00    +0.000 C 
ATOM     23  C   UNL     1       1.148   3.103  20.970  0.00  0.00    +0.000 C 
ATOM     24  O   UNL     1       0.000   2.228  19.086  0.00  0.00    +0.000 OA
ENDBRANCH  21  22
ENDBRANCH   6  21
TORSDOF 6
ENDMDL
MODEL 5
REMARK VINA RESULT:      -7.1      1.041      2.259
REMARK  Name = 
REMARK  8 active torsions:
REMARK  status: ('A' for Active; 'I' for Inactive)
REMARK    1  A    between atoms: C_1  and  O_2
REMARK    2  A    between atoms: O_2  and  C_3
REMARK    3  A    between atoms: C_5  and  C_6
REMARK    4  A    between atoms: N_7  and  N_8
REMARK    5  A    between atoms: N_13  and  N_14
REMARK    6  A    between atoms: C_17  and  O_18
REMARK    7  A    between atoms: O_18  and  C_19
REMARK    8  A    between atoms: C_19  and  C_20
REMARK                            x       y       z     vdW  Elec       q    Type
REMARK                         _______ _______ _______ _____ _____    ______ ____
ROOT
ATOM      1  C   UNL     1       2.413   7.215  19.020  0.00  0.00    +0.000 A 
ATOM      2  C   UNL     1       3.099   6.333  18.134  0.00  0.00    +0.000 A 
ATOM      3  C   UNL     1       3.195   4.953  18.403  0.00  0.00    +0.000 A 
ATOM      4  C   UNL     1       2.682   4.469  19.609  0.00  0.00    +0.000 A 
ATOM      5  C   UNL     1       2.017   5.306  20.478  0.00  0.00    +0.000 A 
ATOM      6  C   UNL     1       1.844   6.658  20.207  0.00  0.00    +0.000 A 
ENDROOT
BRANCH   1   8
ATOM      7  C   UNL     1       1.606   9.180  17.735  0.00  0.00    +0.000 C 
ATOM      8  O   UNL     1       2.307   8.551  18.759  0.00  0.00    +0.000 OA
ENDBRANCH   1   8
BRANCH   3   9
ATOM      9  C   UNL     1       3.854   4.046  17.418  0.00  0.00    +0.000 C 
ATOM     10  N   UNL     1       5.129   3.798  17.355  0.00  0.00    +0.000 NA
BRANCH  10  11
ATOM     11  N   UNL     1       6.065   4.245  18.271  0.00  0.00    +0.000 N 
ATOM     12  C   UNL     1       6.739   5.472  18.066  0.00  0.00    +0.000 A 
ATOM     13  N   UNL     1       6.533   6.277  17.007  0.00  0.00    +0.000 NA
ATOM     14  N   UNL     1       7.353   7.315  17.145  0.00  0.00    +0.000 NA
ATOM     15  C   UNL     1       8.049   7.134  18.288  0.00  0.00    +0.000 A 
ATOM     16  N   UNL     1       7.678   5.990  18.882  0.00  0.00    +0.000 N 
ATOM     17  H   UNL     1       6.398   3.644  19.031  0.00  0.00    +0.000 HD
BRANCH  16  18
ATOM     18  N   UNL     1       8.172   5.481  20.077  0.00  0.00    +0.000 N 
ATOM     19  H   UNL     1       7.560   5.422  20.906  0.00  0.00    +0.000 HD
ATOM     20  H   UNL     1       9.138   5.136  20.155  0.00  0.00    +0.000 HD
ENDBRANCH  16  18
ENDBRANCH  10  11
ENDBRANCH   3   9
BRANCH   6  21
ATOM     21  O   UNL     1       1.108   7.285  21.160  0.00  0.00    +0.000 OA
BRANCH  21  22
ATOM     22  C   UNL     1       0.659   8.531  21.419  0.00  0.00    +0.000 C 
ATOM     23  C   UNL     1       1.426   9.306  22.450  0.00  0.00    +0.000 C 
ATOM     24  O   UNL     1      -0.299   9.019  20.844  0.00  0.00    +0.000 OA
ENDBRANCH  21  22
ENDBRANCH   6  21
TORSDOF 6
ENDMDL
MODEL 6
REMARK VINA RESULT:      -7.1      2.814      4.333
REMARK  Name = 
REMARK  8 active torsions:
REMARK  status: ('A' for Active; 'I' for Inactive)
REMARK    1  A    between atoms: C_1  and  O_2
REMARK    2  A    between atoms: O_2  and  C_3
REMARK    3  A    between atoms: C_5  and  C_6
REMARK    4  A    between atoms: N_7  and  N_8
REMARK    5  A    between atoms: N_13  and  N_14
REMARK    6  A    between atoms: C_17  and  O_18
REMARK    7  A    between atoms: O_18  and  C_19
REMARK    8  A    between atoms: C_19  and  C_20
REMARK                            x       y       z     vdW  Elec       q    Type
REMARK                         _______ _______ _______ _____ _____    ______ ____
ROOT
ATOM      1  C   UNL     1       4.073   3.741  18.877  0.00  0.00    +0.000 A 
ATOM      2  C   UNL     1       5.283   4.285  18.353  0.00  0.00    +0.000 A 
ATOM      3  C   UNL     1       5.352   5.618  17.900  0.00  0.00    +0.000 A 
ATOM      4  C   UNL     1       4.182   6.381  17.888  0.00  0.00    +0.000 A 
ATOM      5  C   UNL     1       3.003   5.873  18.389  0.00  0.00    +0.000 A 
ATOM      6  C   UNL     1       2.921   4.586  18.908  0.00  0.00    +0.000 A 
ENDROOT
BRANCH   1   8
ATOM      7  C   UNL     1       3.672   1.305  18.618  0.00  0.00    +0.000 C 
ATOM      8  O   UNL     1       4.004   2.454  19.328  0.00  0.00    +0.000 OA
ENDBRANCH   1   8
BRANCH   3   9
ATOM      9  C   UNL     1       6.652   6.178  17.428  0.00  0.00    +0.000 C 
ATOM     10  N   UNL     1       7.307   5.782  16.377  0.00  0.00    +0.000 NA
BRANCH  10  11
ATOM     11  N   UNL     1       6.841   4.856  15.460  0.00  0.00    +0.000 N 
ATOM     12  C   UNL     1       7.230   4.935  14.102  0.00  0.00    +0.000 A 
ATOM     13  N   UNL     1       8.054   5.877  13.607  0.00  0.00    +0.000 NA
ATOM     14  N   UNL     1       8.168   5.645  12.303  0.00  0.00    +0.000 NA
ATOM     15  C   UNL     1       7.414   4.563  12.015  0.00  0.00    +0.000 A 
ATOM     16  N   UNL     1       6.821   4.100  13.126  0.00  0.00    +0.000 N 
ATOM     17  H   UNL     1       6.101   4.190  15.702  0.00  0.00    +0.000 HD
BRANCH  16  18
ATOM     18  N   UNL     1       5.980   2.998  13.216  0.00  0.00    +0.000 N 
ATOM     19  H   UNL     1       6.328   2.060  12.964  0.00  0.00    +0.000 HD
ATOM     20  H   UNL     1       5.013   3.089  13.553  0.00  0.00    +0.000 HD
ENDBRANCH  16  18
ENDBRANCH  10  11
ENDBRANCH   3   9
BRANCH   6  21
ATOM     21  O   UNL     1       1.688   4.309  19.406  0.00  0.00    +0.000 OA
BRANCH  21  22
ATOM     22  C   UNL     1       1.009   3.232  19.854  0.00  0.00    +0.000 C 
ATOM     23  C   UNL     1       1.207   2.886  21.300  0.00  0.00    +0.000 C 
ATOM     24  O   UNL     1       0.259   2.583  19.144  0.00  0.00    +0.000 OA
ENDBRANCH  21  22
ENDBRANCH   6  21
TORSDOF 6
ENDMDL
MODEL 7
REMARK VINA RESULT:      -7.1      2.626      4.555
REMARK  Name = 
REMARK  8 active torsions:
REMARK  status: ('A' for Active; 'I' for Inactive)
REMARK    1  A    between atoms: C_1  and  O_2
REMARK    2  A    between atoms: O_2  and  C_3
REMARK    3  A    between atoms: C_5  and  C_6
REMARK    4  A    between atoms: N_7  and  N_8
REMARK    5  A    between atoms: N_13  and  N_14
REMARK    6  A    between atoms: C_17  and  O_18
REMARK    7  A    between atoms: O_18  and  C_19
REMARK    8  A    between atoms: C_19  and  C_20
REMARK                            x       y       z     vdW  Elec       q    Type
REMARK                         _______ _______ _______ _____ _____    ______ ____
ROOT
ATOM      1  C   UNL     1       3.430   5.986  18.749  0.00  0.00    +0.000 A 
ATOM      2  C   UNL     1       4.804   6.177  18.422  0.00  0.00    +0.000 A 
ATOM      3  C   UNL     1       5.688   5.086  18.303  0.00  0.00    +0.000 A 
ATOM      4  C   UNL     1       5.214   3.806  18.602  0.00  0.00    +0.000 A 
ATOM      5  C   UNL     1       3.889   3.601  18.921  0.00  0.00    +0.000 A 
ATOM      6  C   UNL     1       2.978   4.650  18.977  0.00  0.00    +0.000 A 
ENDROOT
BRANCH   1   8
ATOM      7  C   UNL     1       2.393   8.107  17.980  0.00  0.00    +0.000 C 
ATOM      8  O   UNL     1       2.566   7.039  18.854  0.00  0.00    +0.000 OA
ENDBRANCH   1   8
BRANCH   3   9
ATOM      9  C   UNL     1       7.102   5.314  17.885  0.00  0.00    +0.000 C 
ATOM     10  N   UNL     1       7.628   4.931  16.759  0.00  0.00    +0.000 NA
BRANCH  10  11
ATOM     11  N   UNL     1       6.924   4.355  15.716  0.00  0.00    +0.000 N 
ATOM     12  C   UNL     1       7.221   4.698  14.376  0.00  0.00    +0.000 A 
ATOM     13  N   UNL     1       8.177   5.574  14.016  0.00  0.00    +0.000 NA
ATOM     14  N   UNL     1       8.148   5.655  12.690  0.00  0.00    +0.000 NA
ATOM     15  C   UNL     1       7.178   4.825  12.253  0.00  0.00    +0.000 A 
ATOM     16  N   UNL     1       6.587   4.213  13.290  0.00  0.00    +0.000 N 
ATOM     17  H   UNL     1       6.086   3.789  15.885  0.00  0.00    +0.000 HD
BRANCH  16  18
ATOM     18  N   UNL     1       5.554   3.286  13.224  0.00  0.00    +0.000 N 
ATOM     19  H   UNL     1       4.898   3.186  14.014  0.00  0.00    +0.000 HD
ATOM     20  H   UNL     1       5.409   2.703  12.389  0.00  0.00    +0.000 HD
ENDBRANCH  16  18
ENDBRANCH  10  11
ENDBRANCH   3   9
BRANCH   6  21
ATOM     21  O   UNL     1       1.717   4.222  19.245  0.00  0.00    +0.000 OA
BRANCH  21  22
ATOM     22  C   UNL     1       1.112   3.093  19.667  0.00  0.00    +0.000 C 
ATOM     23  C   UNL     1       1.136   2.846  21.146  0.00  0.00    +0.000 C 
ATOM     24  O   UNL     1       0.556   2.318  18.905  0.00  0.00    +0.000 OA
ENDBRANCH  21  22
ENDBRANCH   6  21
TORSDOF 6
ENDMDL
MODEL 8
REMARK VINA RESULT:      -7.1      4.762      6.775
REMARK  Name = 
REMARK  8 active torsions:
REMARK  status: ('A' for Active; 'I' for Inactive)
REMARK    1  A    between atoms: C_1  and  O_2
REMARK    2  A    between atoms: O_2  and  C_3
REMARK    3  A    between atoms: C_5  and  C_6
REMARK    4  A    between atoms: N_7  and  N_8
REMARK    5  A    between atoms: N_13  and  N_14
REMARK    6  A    between atoms: C_17  and  O_18
REMARK    7  A    between atoms: O_18  and  C_19
REMARK    8  A    between atoms: C_19  and  C_20
REMARK                            x       y       z     vdW  Elec       q    Type
REMARK                         _______ _______ _______ _____ _____    ______ ____
ROOT
ATOM      1  C   UNL     1       5.943   5.029  18.066  0.00  0.00    +0.000 A 
ATOM      2  C   UNL     1       5.013   5.333  19.103  0.00  0.00    +0.000 A 
ATOM      3  C   UNL     1       3.664   4.932  19.021  0.00  0.00    +0.000 A 
ATOM      4  C   UNL     1       3.224   4.303  17.854  0.00  0.00    +0.000 A 
ATOM      5  C   UNL     1       4.107   4.001  16.840  0.00  0.00    +0.000 A 
ATOM      6  C   UNL     1       5.457   4.321  16.923  0.00  0.00    +0.000 A 
ENDROOT
BRANCH   1   8
ATOM      7  C   UNL     1       7.780   6.688  18.252  0.00  0.00    +0.000 C 
ATOM      8  O   UNL     1       7.253   5.405  18.146  0.00  0.00    +0.000 OA
ENDBRANCH   1   8
BRANCH   3   9
ATOM      9  C   UNL     1       2.736   5.201  20.158  0.00  0.00    +0.000 C 
ATOM     10  N   UNL     1       2.077   6.306  20.350  0.00  0.00    +0.000 NA
BRANCH  10  11
ATOM     11  N   UNL     1       2.042   7.366  19.462  0.00  0.00    +0.000 N 
ATOM     12  C   UNL     1       1.445   8.594  19.835  0.00  0.00    +0.000 A 
ATOM     13  N   UNL     1       0.888   8.826  21.038  0.00  0.00    +0.000 NA
ATOM     14  N   UNL     1       0.416  10.069  21.012  0.00  0.00    +0.000 NA
ATOM     15  C   UNL     1       0.694  10.584  19.796  0.00  0.00    +0.000 A 
ATOM     16  N   UNL     1       1.340   9.680  19.044  0.00  0.00    +0.000 N 
ATOM     17  H   UNL     1       2.307   7.250  18.478  0.00  0.00    +0.000 HD
BRANCH  16  18
ATOM     18  N   UNL     1       1.791   9.859  17.742  0.00  0.00    +0.000 N 
ATOM     19  H   UNL     1       1.332  10.547  17.126  0.00  0.00    +0.000 HD
ATOM     20  H   UNL     1       2.596   9.333  17.377  0.00  0.00    +0.000 HD
ENDBRANCH  16  18
ENDBRANCH  10  11
ENDBRANCH   3   9
BRANCH   6  21
ATOM     21  O   UNL     1       6.159   3.879  15.848  0.00  0.00    +0.000 OA
BRANCH  21  22
ATOM     22  C   UNL     1       6.726   4.400  14.740  0.00  0.00    +0.000 C 
ATOM     23  C   UNL     1       6.245   3.846  13.432  0.00  0.00    +0.000 C 
ATOM     24  O   UNL     1       7.566   5.284  14.783  0.00  0.00    +0.000 OA
ENDBRANCH  21  22
ENDBRANCH   6  21
TORSDOF 6
ENDMDL
MODEL 9
REMARK VINA RESULT:      -7.0      1.496      2.669
REMARK  Name = 
REMARK  8 active torsions:
REMARK  status: ('A' for Active; 'I' for Inactive)
REMARK    1  A    between atoms: C_1  and  O_2
REMARK    2  A    between atoms: O_2  and  C_3
REMARK    3  A    between atoms: C_5  and  C_6
REMARK    4  A    between atoms: N_7  and  N_8
REMARK    5  A    between atoms: N_13  and  N_14
REMARK    6  A    between atoms: C_17  and  O_18
REMARK    7  A    between atoms: O_18  and  C_19
REMARK    8  A    between atoms: C_19  and  C_20
REMARK                            x       y       z     vdW  Elec       q    Type
REMARK                         _______ _______ _______ _____ _____    ______ ____
ROOT
ATOM      1  C   UNL     1       2.435   7.566  18.563  0.00  0.00    +0.000 A 
ATOM      2  C   UNL     1       2.924   6.320  18.072  0.00  0.00    +0.000 A 
ATOM      3  C   UNL     1       2.853   5.146  18.849  0.00  0.00    +0.000 A 
ATOM      4  C   UNL     1       2.374   5.239  20.158  0.00  0.00    +0.000 A 
ATOM      5  C   UNL     1       1.897   6.434  20.652  0.00  0.00    +0.000 A 
ATOM      6  C   UNL     1       1.889   7.593  19.884  0.00  0.00    +0.000 A 
ENDROOT
BRANCH   1   8
ATOM      7  C   UNL     1       1.752   9.874  17.955  0.00  0.00    +0.000 C 
ATOM      8  O   UNL     1       2.490   8.704  17.811  0.00  0.00    +0.000 OA
ENDBRANCH   1   8
BRANCH   3   9
ATOM      9  C   UNL     1       3.304   3.845  18.276  0.00  0.00    +0.000 C 
ATOM     10  N   UNL     1       4.527   3.403  18.278  0.00  0.00    +0.000 NA
BRANCH  10  11
ATOM     11  N   UNL     1       5.587   4.019  18.920  0.00  0.00    +0.000 N 
ATOM     12  C   UNL     1       6.320   5.041  18.273  0.00  0.00    +0.000 A 
ATOM     13  N   UNL     1       6.058   5.486  17.030  0.00  0.00    +0.000 NA
ATOM     14  N   UNL     1       6.960   6.423  16.756  0.00  0.00    +0.000 NA
ATOM     15  C   UNL     1       7.761   6.544  17.836  0.00  0.00    +0.000 A 
ATOM     16  N   UNL     1       7.377   5.692  18.798  0.00  0.00    +0.000 N 
ATOM     17  H   UNL     1       5.958   3.659  19.805  0.00  0.00    +0.000 HD
BRANCH  16  18
ATOM     18  N   UNL     1       7.961   5.541  20.050  0.00  0.00    +0.000 N 
ATOM     19  H   UNL     1       8.980   5.401  20.132  0.00  0.00    +0.000 HD
ATOM     20  H   UNL     1       7.401   5.588  20.911  0.00  0.00    +0.000 HD
ENDBRANCH  16  18
ENDBRANCH  10  11
ENDBRANCH   3   9
BRANCH   6  21
ATOM     21  O   UNL     1       1.321   8.640  20.537  0.00  0.00    +0.000 OA
BRANCH  21  22
ATOM     22  C   UNL     1       1.006   8.976  21.805  0.00  0.00    +0.000 C 
ATOM     23  C   UNL     1      -0.436   8.823  22.188  0.00  0.00    +0.000 C 
ATOM     24  O   UNL     1       1.837   9.363  22.611  0.00  0.00    +0.000 OA
ENDBRANCH  21  22
ENDBRANCH   6  21
TORSDOF 6
ENDMDL
