MODEL 1
REMARK VINA RESULT:      -7.9      0.000      0.000
REMARK  Name = 
REMARK  4 active torsions:
REMARK  status: ('A' for Active; 'I' for Inactive)
REMARK    1  A    between atoms: C_1  and  C_2
REMARK    2  A    between atoms: C_4  and  N_5
REMARK    3  A    between atoms: C_10  and  C_12
REMARK    4  A    between atoms: C_12  and  C_13
REMARK                            x       y       z     vdW  Elec       q    Type
REMARK                         _______ _______ _______ _____ _____    ______ ____
ROOT
ATOM      1  N   UNL     1       1.966   6.820  19.805  0.00  0.00    +0.000 N 
ATOM      2  C   UNL     1       2.545   5.846  20.741  0.00  0.00    +0.000 C 
ATOM      3  C   UNL     1       1.995   4.441  20.498  0.00  0.00    +0.000 C 
ATOM      4  C   UNL     1       1.882   3.947  19.054  0.00  0.00    +0.000 C 
ATOM      5  N   UNL     1       2.820   4.530  18.096  0.00  0.00    +0.000 N 
ATOM      6  C   UNL     1       4.003   3.863  17.810  0.00  0.00    +0.000 C 
ATOM      7  O   UNL     1       4.287   2.785  18.339  0.00  0.00    +0.000 OA
ATOM      8  C   UNL     1       2.441   5.848  17.574  0.00  0.00    +0.000 C 
ATOM      9  C   UNL     1       2.736   6.992  18.552  0.00  0.00    +0.000 C 
ENDROOT
BRANCH   1  13
ATOM     10  C   UNL     1      -0.106   9.696  23.324  0.00  0.00    +0.000 C 
ATOM     11  C   UNL     1       0.420   9.454  21.941  0.00  0.00    +0.000 A 
ATOM     12  C   UNL     1       0.905   8.201  21.561  0.00  0.00    +0.000 A 
ATOM     13  C   UNL     1       1.417   8.018  20.275  0.00  0.00    +0.000 A 
ATOM     14  C   UNL     1       1.397   9.124  19.419  0.00  0.00    +0.000 A 
ATOM     15  C   UNL     1       0.897  10.332  19.869  0.00  0.00    +0.000 A 
ATOM     16  N   UNL     1       0.414  10.522  21.110  0.00  0.00    +0.000 NA
ENDBRANCH   1  13
BRANCH   6  17
ATOM     17  C   UNL     1       4.970   4.479  16.800  0.00  0.00    +0.000 C 
BRANCH  17  18
ATOM     18  C   UNL     1       6.036   5.352  17.428  0.00  0.00    +0.000 A 
ATOM     19  C   UNL     1       6.887   4.850  18.423  0.00  0.00    +0.000 A 
ATOM     20  C   UNL     1       7.864   5.664  18.995  0.00  0.00    +0.000 A 
ATOM     21  F   UNL     1       8.652   5.165  19.956  0.00  0.00    +0.000 F 
ATOM     22  C   UNL     1       8.037   6.974  18.582  0.00  0.00    +0.000 A 
ATOM     23  C   UNL     1       7.210   7.469  17.584  0.00  0.00    +0.000 A 
ATOM     24  F   UNL     1       7.371   8.731  17.164  0.00  0.00    +0.000 F 
ATOM     25  C   UNL     1       6.218   6.676  17.007  0.00  0.00    +0.000 A 
ENDBRANCH  17  18
ENDBRANCH   6  17
TORSDOF 3
ENDMDL
MODEL 2
REMARK VINA RESULT:      -7.8      0.142      1.646
REMARK  Name = 
REMARK  4 active torsions:
REMARK  status: ('A' for Active; 'I' for Inactive)
REMARK    1  A    between atoms: C_1  and  C_2
REMARK    2  A    between atoms: C_4  and  N_5
REMARK    3  A    between atoms: C_10  and  C_12
REMARK    4  A    between atoms: C_12  and  C_13
REMARK                            x       y       z     vdW  Elec       q    Type
REMARK                         _______ _______ _______ _____ _____    ______ ____
ROOT
ATOM      1  N   UNL     1       1.897   6.952  19.839  0.00  0.00    +0.000 N 
ATOM      2  C   UNL     1       2.500   6.009  20.792  0.00  0.00    +0.000 C 
ATOM      3  C   UNL     1       1.959   4.593  20.596  0.00  0.00    +0.000 C 
ATOM      4  C   UNL     1       1.827   4.059  19.169  0.00  0.00    +0.000 C 
ATOM      5  N   UNL     1       2.744   4.623  18.180  0.00  0.00    +0.000 N 
ATOM      6  C   UNL     1       3.929   3.959  17.893  0.00  0.00    +0.000 C 
ATOM      7  O   UNL     1       4.231   2.898  18.447  0.00  0.00    +0.000 OA
ATOM      8  C   UNL     1       2.346   5.924  17.629  0.00  0.00    +0.000 C 
ATOM      9  C   UNL     1       2.645   7.096  18.570  0.00  0.00    +0.000 C 
ENDROOT
BRANCH   1  13
ATOM     10  C   UNL     1      -0.284   9.858  23.266  0.00  0.00    +0.000 C 
ATOM     11  C   UNL     1       0.297   9.608  21.907  0.00  0.00    +0.000 A 
ATOM     12  C   UNL     1       0.781   8.349  21.548  0.00  0.00    +0.000 A 
ATOM     13  C   UNL     1       1.344   8.158  20.285  0.00  0.00    +0.000 A 
ATOM     14  C   UNL     1       1.376   9.263  19.429  0.00  0.00    +0.000 A 
ATOM     15  C   UNL     1       0.873  10.478  19.857  0.00  0.00    +0.000 A 
ATOM     16  N   UNL     1       0.340  10.676  21.076  0.00  0.00    +0.000 NA
ENDBRANCH   1  13
BRANCH   6  17
ATOM     17  C   UNL     1       4.875   4.555  16.852  0.00  0.00    +0.000 C 
BRANCH  17  18
ATOM     18  C   UNL     1       5.981   5.401  17.444  0.00  0.00    +0.000 A 
ATOM     19  C   UNL     1       6.167   6.732  17.042  0.00  0.00    +0.000 A 
ATOM     20  C   UNL     1       7.191   7.502  17.595  0.00  0.00    +0.000 A 
ATOM     21  F   UNL     1       7.358   8.764  17.179  0.00  0.00    +0.000 F 
ATOM     22  C   UNL     1       8.031   6.985  18.567  0.00  0.00    +0.000 A 
ATOM     23  C   UNL     1       7.838   5.676  18.983  0.00  0.00    +0.000 A 
ATOM     24  F   UNL     1       8.633   5.164  19.930  0.00  0.00    +0.000 F 
ATOM     25  C   UNL     1       6.828   4.884  18.435  0.00  0.00    +0.000 A 
ENDBRANCH  17  18
ENDBRANCH   6  17
TORSDOF 3
ENDMDL
MODEL 3
REMARK VINA RESULT:      -7.8      3.014      7.040
REMARK  Name = 
REMARK  4 active torsions:
REMARK  status: ('A' for Active; 'I' for Inactive)
REMARK    1  A    between atoms: C_1  and  C_2
REMARK    2  A    between atoms: C_4  and  N_5
REMARK    3  A    between atoms: C_10  and  C_12
REMARK    4  A    between atoms: C_12  and  C_13
REMARK                            x       y       z     vdW  Elec       q    Type
REMARK                         _______ _______ _______ _____ _____    ______ ____
ROOT
ATOM      1  N   UNL     1       4.404   4.174  17.184  0.00  0.00    +0.000 N 
ATOM      2  C   UNL     1       2.999   4.005  16.786  0.00  0.00    +0.000 C 
ATOM      3  C   UNL     1       2.351   2.825  17.512  0.00  0.00    +0.000 C 
ATOM      4  C   UNL     1       2.613   2.664  19.010  0.00  0.00    +0.000 C 
ATOM      5  N   UNL     1       2.912   3.888  19.750  0.00  0.00    +0.000 N 
ATOM      6  C   UNL     1       1.886   4.554  20.407  0.00  0.00    +0.000 C 
ATOM      7  O   UNL     1       0.724   4.139  20.390  0.00  0.00    +0.000 OA
ATOM      8  C   UNL     1       4.301   4.353  19.654  0.00  0.00    +0.000 C 
ATOM      9  C   UNL     1       4.605   5.079  18.338  0.00  0.00    +0.000 C 
ENDROOT
BRANCH   1  13
ATOM     10  C   UNL     1       6.250   3.590  12.580  0.00  0.00    +0.000 C 
ATOM     11  C   UNL     1       6.345   4.045  14.004  0.00  0.00    +0.000 A 
ATOM     12  C   UNL     1       5.298   3.832  14.903  0.00  0.00    +0.000 A 
ATOM     13  C   UNL     1       5.406   4.297  16.215  0.00  0.00    +0.000 A 
ATOM     14  C   UNL     1       6.593   4.951  16.563  0.00  0.00    +0.000 A 
ATOM     15  C   UNL     1       7.586   5.121  15.616  0.00  0.00    +0.000 A 
ATOM     16  N   UNL     1       7.486   4.689  14.346  0.00  0.00    +0.000 NA
ENDBRANCH   1  13
BRANCH   6  17
ATOM     17  C   UNL     1       2.214   5.828  21.184  0.00  0.00    +0.000 C 
BRANCH  17  18
ATOM     18  C   UNL     1       1.849   7.102  20.452  0.00  0.00    +0.000 A 
ATOM     19  C   UNL     1       2.265   7.320  19.131  0.00  0.00    +0.000 A 
ATOM     20  C   UNL     1       1.922   8.498  18.466  0.00  0.00    +0.000 A 
ATOM     21  F   UNL     1       2.348   8.688  17.211  0.00  0.00    +0.000 F 
ATOM     22  C   UNL     1       1.147   9.467  19.080  0.00  0.00    +0.000 A 
ATOM     23  C   UNL     1       0.717   9.247  20.380  0.00  0.00    +0.000 A 
ATOM     24  F   UNL     1      -0.043  10.169  20.985  0.00  0.00    +0.000 F 
ATOM     25  C   UNL     1       1.057   8.082  21.067  0.00  0.00    +0.000 A 
ENDBRANCH  17  18
ENDBRANCH   6  17
TORSDOF 3
ENDMDL
MODEL 4
REMARK VINA RESULT:      -7.8      2.997      7.000
REMARK  Name = 
REMARK  4 active torsions:
REMARK  status: ('A' for Active; 'I' for Inactive)
REMARK    1  A    between atoms: C_1  and  C_2
REMARK    2  A    between atoms: C_4  and  N_5
REMARK    3  A    between atoms: C_10  and  C_12
REMARK    4  A    between atoms: C_12  and  C_13
REMARK                            x       y       z     vdW  Elec       q    Type
REMARK                         _______ _______ _______ _____ _____    ______ ____
ROOT
ATOM      1  N   UNL     1       4.431   4.246  17.171  0.00  0.00    +0.000 N 
ATOM      2  C   UNL     1       3.031   4.042  16.775  0.00  0.00    +0.000 C 
ATOM      3  C   UNL     1       2.415   2.841  17.492  0.00  0.00    +0.000 C 
ATOM      4  C   UNL     1       2.684   2.675  18.989  0.00  0.00    +0.000 C 
ATOM      5  N   UNL     1       2.951   3.902  19.737  0.00  0.00    +0.000 N 
ATOM      6  C   UNL     1       1.908   4.535  20.401  0.00  0.00    +0.000 C 
ATOM      7  O   UNL     1       0.758   4.089  20.381  0.00  0.00    +0.000 OA
ATOM      8  C   UNL     1       4.327   4.405  19.643  0.00  0.00    +0.000 C 
ATOM      9  C   UNL     1       4.610   5.148  18.332  0.00  0.00    +0.000 C 
ENDROOT
BRANCH   1  13
ATOM     10  C   UNL     1       6.330   3.648  12.591  0.00  0.00    +0.000 C 
ATOM     11  C   UNL     1       6.390   4.148  14.002  0.00  0.00    +0.000 A 
ATOM     12  C   UNL     1       5.355   3.896  14.904  0.00  0.00    +0.000 A 
ATOM     13  C   UNL     1       5.429   4.403  16.203  0.00  0.00    +0.000 A 
ATOM     14  C   UNL     1       6.572   5.137  16.535  0.00  0.00    +0.000 A 
ATOM     15  C   UNL     1       7.557   5.341  15.587  0.00  0.00    +0.000 A 
ATOM     16  N   UNL     1       7.489   4.869  14.329  0.00  0.00    +0.000 NA
ENDBRANCH   1  13
BRANCH   6  17
ATOM     17  C   UNL     1       2.203   5.812  21.186  0.00  0.00    +0.000 C 
BRANCH  17  18
ATOM     18  C   UNL     1       1.825   7.082  20.453  0.00  0.00    +0.000 A 
ATOM     19  C   UNL     1       1.057   8.075  21.078  0.00  0.00    +0.000 A 
ATOM     20  C   UNL     1       0.715   9.240  20.391  0.00  0.00    +0.000 A 
ATOM     21  F   UNL     1      -0.035  10.165  21.005  0.00  0.00    +0.000 F 
ATOM     22  C   UNL     1       1.141   9.459  19.093  0.00  0.00    +0.000 A 
ATOM     23  C   UNL     1       1.918   8.488  18.478  0.00  0.00    +0.000 A 
ATOM     24  F   UNL     1       2.349   8.688  17.226  0.00  0.00    +0.000 F 
ATOM     25  C   UNL     1       2.262   7.310  19.141  0.00  0.00    +0.000 A 
ENDBRANCH  17  18
ENDBRANCH   6  17
TORSDOF 3
ENDMDL
MODEL 5
REMARK VINA RESULT:      -7.7      1.439      2.070
REMARK  Name = 
REMARK  4 active torsions:
REMARK  status: ('A' for Active; 'I' for Inactive)
REMARK    1  A    between atoms: C_1  and  C_2
REMARK    2  A    between atoms: C_4  and  N_5
REMARK    3  A    between atoms: C_10  and  C_12
REMARK    4  A    between atoms: C_12  and  C_13
REMARK                            x       y       z     vdW  Elec       q    Type
REMARK                         _______ _______ _______ _____ _____    ______ ____
ROOT
ATOM      1  N   UNL     1       1.764   6.068  19.906  0.00  0.00    +0.000 N 
ATOM      2  C   UNL     1       2.499   5.224  20.859  0.00  0.00    +0.000 C 
ATOM      3  C   UNL     1       1.814   3.872  21.054  0.00  0.00    +0.000 C 
ATOM      4  C   UNL     1       1.302   3.135  19.815  0.00  0.00    +0.000 C 
ATOM      5  N   UNL     1       1.998   3.416  18.561  0.00  0.00    +0.000 N 
ATOM      6  C   UNL     1       3.021   2.575  18.146  0.00  0.00    +0.000 C 
ATOM      7  O   UNL     1       3.361   1.589  18.805  0.00  0.00    +0.000 OA
ATOM      8  C   UNL     1       1.585   4.650  17.881  0.00  0.00    +0.000 C 
ATOM      9  C   UNL     1       2.195   5.914  18.498  0.00  0.00    +0.000 C 
ENDROOT
BRANCH   1  13
ATOM     10  C   UNL     1       0.118   9.612  23.016  0.00  0.00    +0.000 C 
ATOM     11  C   UNL     1       0.653   9.142  21.698  0.00  0.00    +0.000 A 
ATOM     12  C   UNL     1       0.906   7.789  21.461  0.00  0.00    +0.000 A 
ATOM     13  C   UNL     1       1.434   7.388  20.233  0.00  0.00    +0.000 A 
ATOM     14  C   UNL     1       1.668   8.388  19.283  0.00  0.00    +0.000 A 
ATOM     15  C   UNL     1       1.389   9.707  19.592  0.00  0.00    +0.000 A 
ATOM     16  N   UNL     1       0.892  10.105  20.777  0.00  0.00    +0.000 NA
ENDBRANCH   1  13
BRANCH   6  17
ATOM     17  C   UNL     1       3.734   2.877  16.829  0.00  0.00    +0.000 C 
BRANCH  17  18
ATOM     18  C   UNL     1       4.971   3.735  16.986  0.00  0.00    +0.000 A 
ATOM     19  C   UNL     1       5.748   4.092  15.875  0.00  0.00    +0.000 A 
ATOM     20  C   UNL     1       6.887   4.884  16.032  0.00  0.00    +0.000 A 
ATOM     21  F   UNL     1       7.621   5.195  14.956  0.00  0.00    +0.000 F 
ATOM     22  C   UNL     1       7.264   5.356  17.277  0.00  0.00    +0.000 A 
ATOM     23  C   UNL     1       6.488   5.021  18.377  0.00  0.00    +0.000 A 
ATOM     24  F   UNL     1       6.832   5.479  19.587  0.00  0.00    +0.000 F 
ATOM     25  C   UNL     1       5.353   4.221  18.244  0.00  0.00    +0.000 A 
ENDBRANCH  17  18
ENDBRANCH   6  17
TORSDOF 3
ENDMDL
MODEL 6
REMARK VINA RESULT:      -7.7      1.393      1.647
REMARK  Name = 
REMARK  4 active torsions:
REMARK  status: ('A' for Active; 'I' for Inactive)
REMARK    1  A    between atoms: C_1  and  C_2
REMARK    2  A    between atoms: C_4  and  N_5
REMARK    3  A    between atoms: C_10  and  C_12
REMARK    4  A    between atoms: C_12  and  C_13
REMARK                            x       y       z     vdW  Elec       q    Type
REMARK                         _______ _______ _______ _____ _____    ______ ____
ROOT
ATOM      1  N   UNL     1       1.792   6.104  19.907  0.00  0.00    +0.000 N 
ATOM      2  C   UNL     1       2.509   5.276  20.888  0.00  0.00    +0.000 C 
ATOM      3  C   UNL     1       1.824   3.924  21.086  0.00  0.00    +0.000 C 
ATOM      4  C   UNL     1       1.341   3.168  19.847  0.00  0.00    +0.000 C 
ATOM      5  N   UNL     1       2.063   3.435  18.604  0.00  0.00    +0.000 N 
ATOM      6  C   UNL     1       3.098   2.591  18.225  0.00  0.00    +0.000 C 
ATOM      7  O   UNL     1       3.426   1.615  18.905  0.00  0.00    +0.000 OA
ATOM      8  C   UNL     1       1.662   4.657  17.898  0.00  0.00    +0.000 C 
ATOM      9  C   UNL     1       2.255   5.932  18.511  0.00  0.00    +0.000 C 
ENDROOT
BRANCH   1  13
ATOM     10  C   UNL     1       0.124   9.697  22.949  0.00  0.00    +0.000 C 
ATOM     11  C   UNL     1       0.659   9.204  21.638  0.00  0.00    +0.000 A 
ATOM     12  C   UNL     1       0.923   7.849  21.429  0.00  0.00    +0.000 A 
ATOM     13  C   UNL     1       1.451   7.427  20.207  0.00  0.00    +0.000 A 
ATOM     14  C   UNL     1       1.674   8.410  19.237  0.00  0.00    +0.000 A 
ATOM     15  C   UNL     1       1.383   9.732  19.519  0.00  0.00    +0.000 A 
ATOM     16  N   UNL     1       0.887  10.150  20.698  0.00  0.00    +0.000 NA
ENDBRANCH   1  13
BRANCH   6  17
ATOM     17  C   UNL     1       3.840   2.876  16.919  0.00  0.00    +0.000 C 
BRANCH  17  18
ATOM     18  C   UNL     1       5.030   3.797  17.081  0.00  0.00    +0.000 A 
ATOM     19  C   UNL     1       5.417   4.263  18.346  0.00  0.00    +0.000 A 
ATOM     20  C   UNL     1       6.516   5.111  18.482  0.00  0.00    +0.000 A 
ATOM     21  F   UNL     1       6.852   5.556  19.700  0.00  0.00    +0.000 F 
ATOM     22  C   UNL     1       7.265   5.495  17.383  0.00  0.00    +0.000 A 
ATOM     23  C   UNL     1       6.898   5.022  16.132  0.00  0.00    +0.000 A 
ATOM     24  F   UNL     1       7.618   5.374  15.060  0.00  0.00    +0.000 F 
ATOM     25  C   UNL     1       5.796   4.182  15.971  0.00  0.00    +0.000 A 
ENDBRANCH  17  18
ENDBRANCH   6  17
TORSDOF 3
ENDMDL
MODEL 7
REMARK VINA RESULT:      -7.7      1.566      1.901
REMARK  Name = 
REMARK  4 active torsions:
REMARK  status: ('A' for Active; 'I' for Inactive)
REMARK    1  A    between atoms: C_1  and  C_2
REMARK    2  A    between atoms: C_4  and  N_5
REMARK    3  A    between atoms: C_10  and  C_12
REMARK    4  A    between atoms: C_12  and  C_13
REMARK                            x       y       z     vdW  Elec       q    Type
REMARK                         _______ _______ _______ _____ _____    ______ ____
ROOT
ATOM      1  N   UNL     1       1.950   6.797  19.313  0.00  0.00    +0.000 N 
ATOM      2  C   UNL     1       2.549   6.208  20.519  0.00  0.00    +0.000 C 
ATOM      3  C   UNL     1       1.758   4.991  21.000  0.00  0.00    +0.000 C 
ATOM      4  C   UNL     1       1.291   3.973  19.958  0.00  0.00    +0.000 C 
ATOM      5  N   UNL     1       2.100   3.873  18.744  0.00  0.00    +0.000 N 
ATOM      6  C   UNL     1       3.091   2.903  18.664  0.00  0.00    +0.000 C 
ATOM      7  O   UNL     1       3.308   2.117  19.590  0.00  0.00    +0.000 OA
ATOM      8  C   UNL     1       1.828   4.895  17.727  0.00  0.00    +0.000 C 
ATOM      9  C   UNL     1       2.477   6.248  18.042  0.00  0.00    +0.000 C 
ENDROOT
BRANCH   1  13
ATOM     10  C   UNL     1       0.339  11.125  21.213  0.00  0.00    +0.000 C 
ATOM     11  C   UNL     1       0.931  10.290  20.119  0.00  0.00    +0.000 A 
ATOM     12  C   UNL     1       1.107   8.914  20.273  0.00  0.00    +0.000 A 
ATOM     13  C   UNL     1       1.690   8.170  19.246  0.00  0.00    +0.000 A 
ATOM     14  C   UNL     1       2.058   8.863  18.088  0.00  0.00    +0.000 A 
ATOM     15  C   UNL     1       1.849  10.228  18.009  0.00  0.00    +0.000 A 
ATOM     16  N   UNL     1       1.300  10.955  18.999  0.00  0.00    +0.000 NA
ENDBRANCH   1  13
BRANCH   6  17
ATOM     17  C   UNL     1       3.923   2.804  17.387  0.00  0.00    +0.000 C 
BRANCH  17  18
ATOM     18  C   UNL     1       5.094   3.762  17.344  0.00  0.00    +0.000 A 
ATOM     19  C   UNL     1       5.590   4.350  18.517  0.00  0.00    +0.000 A 
ATOM     20  C   UNL     1       6.669   5.232  18.464  0.00  0.00    +0.000 A 
ATOM     21  F   UNL     1       7.112   5.792  19.598  0.00  0.00    +0.000 F 
ATOM     22  C   UNL     1       7.292   5.531  17.265  0.00  0.00    +0.000 A 
ATOM     23  C   UNL     1       6.818   4.938  16.105  0.00  0.00    +0.000 A 
ATOM     24  F   UNL     1       7.416   5.208  14.937  0.00  0.00    +0.000 F 
ATOM     25  C   UNL     1       5.732   4.062  16.132  0.00  0.00    +0.000 A 
ENDBRANCH  17  18
ENDBRANCH   6  17
TORSDOF 3
ENDMDL
MODEL 8
REMARK VINA RESULT:      -7.7      1.578      2.221
REMARK  Name = 
REMARK  4 active torsions:
REMARK  status: ('A' for Active; 'I' for Inactive)
REMARK    1  A    between atoms: C_1  and  C_2
REMARK    2  A    between atoms: C_4  and  N_5
REMARK    3  A    between atoms: C_10  and  C_12
REMARK    4  A    between atoms: C_12  and  C_13
REMARK                            x       y       z     vdW  Elec       q    Type
REMARK                         _______ _______ _______ _____ _____    ______ ____
ROOT
ATOM      1  N   UNL     1       1.952   6.816  19.304  0.00  0.00    +0.000 N 
ATOM      2  C   UNL     1       2.544   6.230  20.515  0.00  0.00    +0.000 C 
ATOM      3  C   UNL     1       1.747   5.019  20.999  0.00  0.00    +0.000 C 
ATOM      4  C   UNL     1       1.281   3.997  19.960  0.00  0.00    +0.000 C 
ATOM      5  N   UNL     1       2.094   3.888  18.750  0.00  0.00    +0.000 N 
ATOM      6  C   UNL     1       3.082   2.916  18.678  0.00  0.00    +0.000 C 
ATOM      7  O   UNL     1       3.293   2.133  19.608  0.00  0.00    +0.000 OA
ATOM      8  C   UNL     1       1.830   4.907  17.726  0.00  0.00    +0.000 C 
ATOM      9  C   UNL     1       2.482   6.260  18.038  0.00  0.00    +0.000 C 
ENDROOT
BRANCH   1  13
ATOM     10  C   UNL     1       0.337  11.156  21.173  0.00  0.00    +0.000 C 
ATOM     11  C   UNL     1       0.936  10.315  20.088  0.00  0.00    +0.000 A 
ATOM     12  C   UNL     1       1.106   8.939  20.249  0.00  0.00    +0.000 A 
ATOM     13  C   UNL     1       1.697   8.189  19.230  0.00  0.00    +0.000 A 
ATOM     14  C   UNL     1       2.078   8.877  18.073  0.00  0.00    +0.000 A 
ATOM     15  C   UNL     1       1.874  10.242  17.988  0.00  0.00    +0.000 A 
ATOM     16  N   UNL     1       1.318  10.975  18.969  0.00  0.00    +0.000 NA
ENDBRANCH   1  13
BRANCH   6  17
ATOM     17  C   UNL     1       3.919   2.808  17.404  0.00  0.00    +0.000 C 
BRANCH  17  18
ATOM     18  C   UNL     1       5.101   3.752  17.367  0.00  0.00    +0.000 A 
ATOM     19  C   UNL     1       5.723   4.085  16.155  0.00  0.00    +0.000 A 
ATOM     20  C   UNL     1       6.812   4.956  16.134  0.00  0.00    +0.000 A 
ATOM     21  F   UNL     1       7.399   5.243  14.964  0.00  0.00    +0.000 F 
ATOM     22  C   UNL     1       7.291   5.532  17.298  0.00  0.00    +0.000 A 
ATOM     23  C   UNL     1       6.667   5.222  18.497  0.00  0.00    +0.000 A 
ATOM     24  F   UNL     1       7.111   5.779  19.631  0.00  0.00    +0.000 F 
ATOM     25  C   UNL     1       5.584   4.344  18.543  0.00  0.00    +0.000 A 
ENDBRANCH  17  18
ENDBRANCH   6  17
TORSDOF 3
ENDMDL
MODEL 9
REMARK VINA RESULT:      -7.7      1.496      2.233
REMARK  Name = 
REMARK  4 active torsions:
REMARK  status: ('A' for Active; 'I' for Inactive)
REMARK    1  A    between atoms: C_1  and  C_2
REMARK    2  A    between atoms: C_4  and  N_5
REMARK    3  A    between atoms: C_10  and  C_12
REMARK    4  A    between atoms: C_12  and  C_13
REMARK                            x       y       z     vdW  Elec       q    Type
REMARK                         _______ _______ _______ _____ _____    ______ ____
ROOT
ATOM      1  N   UNL     1       1.827   6.296  19.821  0.00  0.00    +0.000 N 
ATOM      2  C   UNL     1       2.492   5.430  20.805  0.00  0.00    +0.000 C 
ATOM      3  C   UNL     1       1.716   4.131  21.023  0.00  0.00    +0.000 C 
ATOM      4  C   UNL     1       1.171   3.398  19.796  0.00  0.00    +0.000 C 
ATOM      5  N   UNL     1       1.900   3.601  18.545  0.00  0.00    +0.000 N 
ATOM      6  C   UNL     1       2.870   2.683  18.167  0.00  0.00    +0.000 C 
ATOM      7  O   UNL     1       3.135   1.694  18.855  0.00  0.00    +0.000 OA
ATOM      8  C   UNL     1       1.579   4.841  17.828  0.00  0.00    +0.000 C 
ATOM      9  C   UNL     1       2.265   6.077  18.423  0.00  0.00    +0.000 C 
ENDROOT
BRANCH   1  13
ATOM     10  C   UNL     1       1.279  11.097  18.558  0.00  0.00    +0.000 C 
ATOM     11  C   UNL     1       1.299   9.975  19.552  0.00  0.00    +0.000 A 
ATOM     12  C   UNL     1       1.602   8.669  19.163  0.00  0.00    +0.000 A 
ATOM     13  C   UNL     1       1.582   7.643  20.109  0.00  0.00    +0.000 A 
ATOM     14  C   UNL     1       1.267   7.996  21.425  0.00  0.00    +0.000 A 
ATOM     15  C   UNL     1       0.982   9.314  21.733  0.00  0.00    +0.000 A 
ATOM     16  N   UNL     1       0.985  10.308  20.826  0.00  0.00    +0.000 NA
ENDBRANCH   1  13
BRANCH   6  17
ATOM     17  C   UNL     1       3.619   2.902  16.853  0.00  0.00    +0.000 C 
BRANCH  17  18
ATOM     18  C   UNL     1       4.892   3.707  17.002  0.00  0.00    +0.000 A 
ATOM     19  C   UNL     1       5.298   4.191  18.253  0.00  0.00    +0.000 A 
ATOM     20  C   UNL     1       6.474   4.933  18.378  0.00  0.00    +0.000 A 
ATOM     21  F   UNL     1       6.829   5.399  19.582  0.00  0.00    +0.000 F 
ATOM     22  C   UNL     1       7.279   5.189  17.281  0.00  0.00    +0.000 A 
ATOM     23  C   UNL     1       6.891   4.695  16.044  0.00  0.00    +0.000 A 
ATOM     24  F   UNL     1       7.664   4.923  14.975  0.00  0.00    +0.000 F 
ATOM     25  C   UNL     1       5.714   3.962  15.895  0.00  0.00    +0.000 A 
ENDBRANCH  17  18
ENDBRANCH   6  17
TORSDOF 3
ENDMDL
