MODEL 1
REMARK VINA RESULT:      -7.0      0.000      0.000
REMARK  Name = 
REMARK  4 active torsions:
REMARK  status: ('A' for Active; 'I' for Inactive)
REMARK    1  A    between atoms: C_1  and  N_2
REMARK    2  A    between atoms: C_3  and  O_4
REMARK    3  A    between atoms: O_4  and  C_5
REMARK    4  A    between atoms: N_16  and  C_17
REMARK                            x       y       z     vdW  Elec       q    Type
REMARK                         _______ _______ _______ _____ _____    ______ ____
ROOT
ATOM      1  C   UNL     1       5.419   5.734  19.248  0.00  0.00    +0.000 C 
ATOM      2  N   UNL     1       4.235   5.011  18.807  0.00  0.00    +0.000 N 
ATOM      3  C   UNL     1       3.168   5.675  18.227  0.00  0.00    +0.000 A 
ATOM      4  C   UNL     1       2.034   5.013  17.958  0.00  0.00    +0.000 A 
ATOM      5  C   UNL     1       1.955   3.564  18.154  0.00  0.00    +0.000 A 
ATOM      6  O   UNL     1       0.905   2.995  17.871  0.00  0.00    +0.000 OA
ATOM      7  N   UNL     1       3.091   2.949  18.626  0.00  0.00    +0.000 N 
ATOM      8  C   UNL     1       3.083   1.511  18.803  0.00  0.00    +0.000 C 
ATOM      9  C   UNL     1       4.253   3.626  18.983  0.00  0.00    +0.000 A 
ATOM     10  O   UNL     1       5.238   3.035  19.427  0.00  0.00    +0.000 OA
ENDROOT
BRANCH   3  11
ATOM     11  O   UNL     1       3.310   7.043  18.009  0.00  0.00    +0.000 OA
BRANCH  11  12
ATOM     12  C   UNL     1       2.367   7.932  18.487  0.00  0.00    +0.000 A 
ATOM     13  C   UNL     1       1.730   8.890  17.691  0.00  0.00    +0.000 A 
ATOM     14  C   UNL     1       0.809   9.776  18.257  0.00  0.00    +0.000 A 
ATOM     15  C   UNL     1       0.551   9.740  19.630  0.00  0.00    +0.000 A 
ATOM     16 CL   UNL     1      -0.557  10.902  20.269  0.00  0.00    +0.000 Cl
ATOM     17  C   UNL     1       1.199   8.795  20.432  0.00  0.00    +0.000 A 
ATOM     18 CL   UNL     1       0.930   8.694  22.137  0.00  0.00    +0.000 Cl
ATOM     19  C   UNL     1       2.106   7.893  19.859  0.00  0.00    +0.000 A 
ENDBRANCH  11  12
ENDBRANCH   3  11
TORSDOF 2
ENDMDL
MODEL 2
REMARK VINA RESULT:      -6.8      3.760      6.411
REMARK  Name = 
REMARK  4 active torsions:
REMARK  status: ('A' for Active; 'I' for Inactive)
REMARK    1  A    between atoms: C_1  and  N_2
REMARK    2  A    between atoms: C_3  and  O_4
REMARK    3  A    between atoms: O_4  and  C_5
REMARK    4  A    between atoms: N_16  and  C_17
REMARK                            x       y       z     vdW  Elec       q    Type
REMARK                         _______ _______ _______ _____ _____    ______ ____
ROOT
ATOM      1  C   UNL     1       2.012   9.079  17.828  0.00  0.00    +0.000 C 
ATOM      2  N   UNL     1       1.400   9.143  19.147  0.00  0.00    +0.000 N 
ATOM      3  C   UNL     1       1.689   8.197  20.115  0.00  0.00    +0.000 A 
ATOM      4  C   UNL     1       1.010   8.191  21.270  0.00  0.00    +0.000 A 
ATOM      5  C   UNL     1       0.052   9.257  21.573  0.00  0.00    +0.000 A 
ATOM      6  O   UNL     1      -0.529   9.227  22.654  0.00  0.00    +0.000 OA
ATOM      7  N   UNL     1      -0.102  10.230  20.614  0.00  0.00    +0.000 N 
ATOM      8  C   UNL     1      -1.009  11.330  20.876  0.00  0.00    +0.000 C 
ATOM      9  C   UNL     1       0.534  10.214  19.378  0.00  0.00    +0.000 A 
ATOM     10  O   UNL     1       0.344  11.095  18.538  0.00  0.00    +0.000 OA
ENDROOT
BRANCH   3  11
ATOM     11  O   UNL     1       2.647   7.236  19.802  0.00  0.00    +0.000 OA
BRANCH  11  12
ATOM     12  C   UNL     1       2.271   5.945  19.486  0.00  0.00    +0.000 A 
ATOM     13  C   UNL     1       2.039   5.502  18.179  0.00  0.00    +0.000 A 
ATOM     14  C   UNL     1       1.628   4.186  17.945  0.00  0.00    +0.000 A 
ATOM     15  C   UNL     1       1.403   3.317  19.015  0.00  0.00    +0.000 A 
ATOM     16 CL   UNL     1       0.843   1.723  18.653  0.00  0.00    +0.000 Cl
ATOM     17  C   UNL     1       1.617   3.762  20.325  0.00  0.00    +0.000 A 
ATOM     18 CL   UNL     1       1.356   2.744  21.697  0.00  0.00    +0.000 Cl
ATOM     19  C   UNL     1       2.050   5.075  20.557  0.00  0.00    +0.000 A 
ENDBRANCH  11  12
ENDBRANCH   3  11
TORSDOF 2
ENDMDL
MODEL 3
REMARK VINA RESULT:      -6.7      4.797      6.549
REMARK  Name = 
REMARK  4 active torsions:
REMARK  status: ('A' for Active; 'I' for Inactive)
REMARK    1  A    between atoms: C_1  and  N_2
REMARK    2  A    between atoms: C_3  and  O_4
REMARK    3  A    between atoms: O_4  and  C_5
REMARK    4  A    between atoms: N_16  and  C_17
REMARK                            x       y       z     vdW  Elec       q    Type
REMARK                         _______ _______ _______ _____ _____    ______ ____
ROOT
ATOM      1  C   UNL     1       3.871   2.843  19.912  0.00  0.00    +0.000 C 
ATOM      2  N   UNL     1       3.498   4.147  19.384  0.00  0.00    +0.000 N 
ATOM      3  C   UNL     1       3.869   4.534  18.108  0.00  0.00    +0.000 A 
ATOM      4  C   UNL     1       3.639   5.788  17.695  0.00  0.00    +0.000 A 
ATOM      5  C   UNL     1       2.883   6.720  18.534  0.00  0.00    +0.000 A 
ATOM      6  O   UNL     1       2.673   7.851  18.105  0.00  0.00    +0.000 OA
ATOM      7  N   UNL     1       2.443   6.233  19.743  0.00  0.00    +0.000 N 
ATOM      8  C   UNL     1       1.657   7.099  20.599  0.00  0.00    +0.000 C 
ATOM      9  C   UNL     1       2.735   4.961  20.224  0.00  0.00    +0.000 A 
ATOM     10  O   UNL     1       2.343   4.578  21.327  0.00  0.00    +0.000 OA
ENDROOT
BRANCH   3  11
ATOM     11  O   UNL     1       4.538   3.596  17.326  0.00  0.00    +0.000 OA
BRANCH  11  12
ATOM     12  C   UNL     1       5.422   4.001  16.344  0.00  0.00    +0.000 A 
ATOM     13  C   UNL     1       6.531   4.817  16.588  0.00  0.00    +0.000 A 
ATOM     14  C   UNL     1       7.360   5.211  15.534  0.00  0.00    +0.000 A 
ATOM     15  C   UNL     1       7.062   4.829  14.223  0.00  0.00    +0.000 A 
ATOM     16 CL   UNL     1       8.100   5.399  12.965  0.00  0.00    +0.000 Cl
ATOM     17  C   UNL     1       5.943   4.028  13.974  0.00  0.00    +0.000 A 
ATOM     18 CL   UNL     1       5.513   3.519  12.378  0.00  0.00    +0.000 Cl
ATOM     19  C   UNL     1       5.125   3.615  15.034  0.00  0.00    +0.000 A 
ENDBRANCH  11  12
ENDBRANCH   3  11
TORSDOF 2
ENDMDL
MODEL 4
REMARK VINA RESULT:      -6.6      0.775      1.627
REMARK  Name = 
REMARK  4 active torsions:
REMARK  status: ('A' for Active; 'I' for Inactive)
REMARK    1  A    between atoms: C_1  and  N_2
REMARK    2  A    between atoms: C_3  and  O_4
REMARK    3  A    between atoms: O_4  and  C_5
REMARK    4  A    between atoms: N_16  and  C_17
REMARK                            x       y       z     vdW  Elec       q    Type
REMARK                         _______ _______ _______ _____ _____    ______ ____
ROOT
ATOM      1  C   UNL     1       5.298   5.994  18.760  0.00  0.00    +0.000 C 
ATOM      2  N   UNL     1       4.164   5.121  18.492  0.00  0.00    +0.000 N 
ATOM      3  C   UNL     1       2.938   5.640  18.115  0.00  0.00    +0.000 A 
ATOM      4  C   UNL     1       1.873   4.833  18.011  0.00  0.00    +0.000 A 
ATOM      5  C   UNL     1       2.020   3.384  18.167  0.00  0.00    +0.000 A 
ATOM      6  O   UNL     1       1.023   2.681  18.038  0.00  0.00    +0.000 OA
ATOM      7  N   UNL     1       3.290   2.925  18.426  0.00  0.00    +0.000 N 
ATOM      8  C   UNL     1       3.502   1.497  18.552  0.00  0.00    +0.000 C 
ATOM      9  C   UNL     1       4.394   3.749  18.614  0.00  0.00    +0.000 A 
ATOM     10  O   UNL     1       5.509   3.293  18.872  0.00  0.00    +0.000 OA
ENDROOT
BRANCH   3  11
ATOM     11  O   UNL     1       2.858   7.018  17.925  0.00  0.00    +0.000 OA
BRANCH  11  12
ATOM     12  C   UNL     1       2.195   7.816  18.837  0.00  0.00    +0.000 A 
ATOM     13  C   UNL     1       2.017   7.474  20.181  0.00  0.00    +0.000 A 
ATOM     14  C   UNL     1       1.305   8.322  21.034  0.00  0.00    +0.000 A 
ATOM     15  C   UNL     1       0.728   9.495  20.540  0.00  0.00    +0.000 A 
ATOM     16 CL   UNL     1      -0.185  10.466  21.640  0.00  0.00    +0.000 Cl
ATOM     17  C   UNL     1       0.888   9.831  19.192  0.00  0.00    +0.000 A 
ATOM     18 CL   UNL     1       0.200  11.264  18.511  0.00  0.00    +0.000 Cl
ATOM     19  C   UNL     1       1.621   8.990  18.342  0.00  0.00    +0.000 A 
ENDBRANCH  11  12
ENDBRANCH   3  11
TORSDOF 2
ENDMDL
MODEL 5
REMARK VINA RESULT:      -6.6      1.618      1.918
REMARK  Name = 
REMARK  4 active torsions:
REMARK  status: ('A' for Active; 'I' for Inactive)
REMARK    1  A    between atoms: C_1  and  N_2
REMARK    2  A    between atoms: C_3  and  O_4
REMARK    3  A    between atoms: O_4  and  C_5
REMARK    4  A    between atoms: N_16  and  C_17
REMARK                            x       y       z     vdW  Elec       q    Type
REMARK                         _______ _______ _______ _____ _____    ______ ____
ROOT
ATOM      1  C   UNL     1       3.664   5.943  17.475  0.00  0.00    +0.000 C 
ATOM      2  N   UNL     1       2.886   5.202  18.457  0.00  0.00    +0.000 N 
ATOM      3  C   UNL     1       2.519   5.780  19.660  0.00  0.00    +0.000 A 
ATOM      4  C   UNL     1       1.927   5.037  20.606  0.00  0.00    +0.000 A 
ATOM      5  C   UNL     1       1.547   3.650  20.332  0.00  0.00    +0.000 A 
ATOM      6  O   UNL     1       0.984   3.015  21.219  0.00  0.00    +0.000 OA
ATOM      7  N   UNL     1       1.838   3.175  19.075  0.00  0.00    +0.000 N 
ATOM      8  C   UNL     1       1.451   1.820  18.735  0.00  0.00    +0.000 C 
ATOM      9  C   UNL     1       2.519   3.902  18.105  0.00  0.00    +0.000 A 
ATOM     10  O   UNL     1       2.782   3.424  17.001  0.00  0.00    +0.000 OA
ENDROOT
BRANCH   3  11
ATOM     11  O   UNL     1       2.852   7.118  19.854  0.00  0.00    +0.000 OA
BRANCH  11  12
ATOM     12  C   UNL     1       1.881   8.099  19.805  0.00  0.00    +0.000 A 
ATOM     13  C   UNL     1       1.585   8.841  18.657  0.00  0.00    +0.000 A 
ATOM     14  C   UNL     1       0.608   9.840  18.697  0.00  0.00    +0.000 A 
ATOM     15  C   UNL     1      -0.049  10.135  19.895  0.00  0.00    +0.000 A 
ATOM     16 CL   UNL     1      -1.205  11.419  19.882  0.00  0.00    +0.000 Cl
ATOM     17  C   UNL     1       0.257   9.406  21.049  0.00  0.00    +0.000 A 
ATOM     18 CL   UNL     1      -0.514   9.717  22.565  0.00  0.00    +0.000 Cl
ATOM     19  C   UNL     1       1.221   8.390  21.002  0.00  0.00    +0.000 A 
ENDBRANCH  11  12
ENDBRANCH   3  11
TORSDOF 2
ENDMDL
MODEL 6
REMARK VINA RESULT:      -6.5      1.681      3.300
REMARK  Name = 
REMARK  4 active torsions:
REMARK  status: ('A' for Active; 'I' for Inactive)
REMARK    1  A    between atoms: C_1  and  N_2
REMARK    2  A    between atoms: C_3  and  O_4
REMARK    3  A    between atoms: O_4  and  C_5
REMARK    4  A    between atoms: N_16  and  C_17
REMARK                            x       y       z     vdW  Elec       q    Type
REMARK                         _______ _______ _______ _____ _____    ______ ____
ROOT
ATOM      1  C   UNL     1       3.015   4.290  19.264  0.00  0.00    +0.000 C 
ATOM      2  N   UNL     1       4.025   5.145  18.658  0.00  0.00    +0.000 N 
ATOM      3  C   UNL     1       3.677   6.331  18.035  0.00  0.00    +0.000 A 
ATOM      4  C   UNL     1       4.601   7.030  17.361  0.00  0.00    +0.000 A 
ATOM      5  C   UNL     1       6.006   6.620  17.385  0.00  0.00    +0.000 A 
ATOM      6  O   UNL     1       6.823   7.305  16.776  0.00  0.00    +0.000 OA
ATOM      7  N   UNL     1       6.301   5.496  18.120  0.00  0.00    +0.000 N 
ATOM      8  C   UNL     1       7.682   5.065  18.211  0.00  0.00    +0.000 C 
ATOM      9  C   UNL     1       5.349   4.712  18.763  0.00  0.00    +0.000 A 
ATOM     10  O   UNL     1       5.658   3.697  19.387  0.00  0.00    +0.000 OA
ENDROOT
BRANCH   3  11
ATOM     11  O   UNL     1       2.337   6.709  18.085  0.00  0.00    +0.000 OA
BRANCH  11  12
ATOM     12  C   UNL     1       1.912   7.671  18.981  0.00  0.00    +0.000 A 
ATOM     13  C   UNL     1       1.752   7.438  20.351  0.00  0.00    +0.000 A 
ATOM     14  C   UNL     1       1.285   8.457  21.188  0.00  0.00    +0.000 A 
ATOM     15  C   UNL     1       0.934   9.700  20.655  0.00  0.00    +0.000 A 
ATOM     16 CL   UNL     1       0.312  10.892  21.741  0.00  0.00    +0.000 Cl
ATOM     17  C   UNL     1       1.076   9.930  19.283  0.00  0.00    +0.000 A 
ATOM     18 CL   UNL     1       0.659  11.442  18.555  0.00  0.00    +0.000 Cl
ATOM     19  C   UNL     1       1.565   8.915  18.448  0.00  0.00    +0.000 A 
ENDBRANCH  11  12
ENDBRANCH   3  11
TORSDOF 2
ENDMDL
MODEL 7
REMARK VINA RESULT:      -6.4      4.204      6.930
REMARK  Name = 
REMARK  4 active torsions:
REMARK  status: ('A' for Active; 'I' for Inactive)
REMARK    1  A    between atoms: C_1  and  N_2
REMARK    2  A    between atoms: C_3  and  O_4
REMARK    3  A    between atoms: O_4  and  C_5
REMARK    4  A    between atoms: N_16  and  C_17
REMARK                            x       y       z     vdW  Elec       q    Type
REMARK                         _______ _______ _______ _____ _____    ______ ____
ROOT
ATOM      1  C   UNL     1       0.513   9.618  18.303  0.00  0.00    +0.000 C 
ATOM      2  N   UNL     1       0.543   9.637  19.758  0.00  0.00    +0.000 N 
ATOM      3  C   UNL     1       1.375   8.788  20.466  0.00  0.00    +0.000 A 
ATOM      4  C   UNL     1       1.285   8.721  21.802  0.00  0.00    +0.000 A 
ATOM      5  C   UNL     1       0.403   9.634  22.533  0.00  0.00    +0.000 A 
ATOM      6  O   UNL     1       0.371   9.556  23.757  0.00  0.00    +0.000 OA
ATOM      7  N   UNL     1      -0.310  10.532  21.774  0.00  0.00    +0.000 N 
ATOM      8  C   UNL     1      -1.170  11.485  22.447  0.00  0.00    +0.000 C 
ATOM      9  C   UNL     1      -0.289  10.568  20.384  0.00  0.00    +0.000 A 
ATOM     10  O   UNL     1      -0.967  11.373  19.745  0.00  0.00    +0.000 OA
ENDROOT
BRANCH   3  11
ATOM     11  O   UNL     1       2.236   7.978  19.730  0.00  0.00    +0.000 OA
BRANCH  11  12
ATOM     12  C   UNL     1       2.050   6.609  19.689  0.00  0.00    +0.000 A 
ATOM     13  C   UNL     1       1.457   5.876  20.721  0.00  0.00    +0.000 A 
ATOM     14  C   UNL     1       1.334   4.487  20.618  0.00  0.00    +0.000 A 
ATOM     15  C   UNL     1       1.842   3.817  19.502  0.00  0.00    +0.000 A 
ATOM     16 CL   UNL     1       1.704   2.095  19.468  0.00  0.00    +0.000 Cl
ATOM     17  C   UNL     1       2.453   4.545  18.476  0.00  0.00    +0.000 A 
ATOM     18 CL   UNL     1       3.106   3.783  17.068  0.00  0.00    +0.000 Cl
ATOM     19  C   UNL     1       2.556   5.940  18.571  0.00  0.00    +0.000 A 
ENDBRANCH  11  12
ENDBRANCH   3  11
TORSDOF 2
ENDMDL
MODEL 8
REMARK VINA RESULT:      -6.3      2.161      3.308
REMARK  Name = 
REMARK  4 active torsions:
REMARK  status: ('A' for Active; 'I' for Inactive)
REMARK    1  A    between atoms: C_1  and  N_2
REMARK    2  A    between atoms: C_3  and  O_4
REMARK    3  A    between atoms: O_4  and  C_5
REMARK    4  A    between atoms: N_16  and  C_17
REMARK                            x       y       z     vdW  Elec       q    Type
REMARK                         _______ _______ _______ _____ _____    ______ ____
ROOT
ATOM      1  C   UNL     1       2.853   4.069  17.447  0.00  0.00    +0.000 C 
ATOM      2  N   UNL     1       4.038   4.908  17.341  0.00  0.00    +0.000 N 
ATOM      3  C   UNL     1       4.201   6.019  18.150  0.00  0.00    +0.000 A 
ATOM      4  C   UNL     1       5.226   6.856  17.940  0.00  0.00    +0.000 A 
ATOM      5  C   UNL     1       6.252   6.539  16.944  0.00  0.00    +0.000 A 
ATOM      6  O   UNL     1       7.188   7.321  16.803  0.00  0.00    +0.000 OA
ATOM      7  N   UNL     1       6.089   5.359  16.255  0.00  0.00    +0.000 N 
ATOM      8  C   UNL     1       7.094   4.976  15.284  0.00  0.00    +0.000 C 
ATOM      9  C   UNL     1       4.995   4.515  16.403  0.00  0.00    +0.000 A 
ATOM     10  O   UNL     1       4.878   3.482  15.743  0.00  0.00    +0.000 OA
ENDROOT
BRANCH   3  11
ATOM     11  O   UNL     1       3.229   6.250  19.120  0.00  0.00    +0.000 OA
BRANCH  11  12
ATOM     12  C   UNL     1       2.429   7.375  19.060  0.00  0.00    +0.000 A 
ATOM     13  C   UNL     1       2.241   8.131  17.899  0.00  0.00    +0.000 A 
ATOM     14  C   UNL     1       1.441   9.278  17.927  0.00  0.00    +0.000 A 
ATOM     15  C   UNL     1       0.860   9.701  19.125  0.00  0.00    +0.000 A 
ATOM     16 CL   UNL     1      -0.070  11.157  19.097  0.00  0.00    +0.000 Cl
ATOM     17  C   UNL     1       1.061   8.957  20.293  0.00  0.00    +0.000 A 
ATOM     18 CL   UNL     1       0.376   9.422  21.811  0.00  0.00    +0.000 Cl
ATOM     19  C   UNL     1       1.846   7.796  20.258  0.00  0.00    +0.000 A 
ENDBRANCH  11  12
ENDBRANCH   3  11
TORSDOF 2
ENDMDL
MODEL 9
REMARK VINA RESULT:      -6.1      5.006      6.610
REMARK  Name = 
REMARK  4 active torsions:
REMARK  status: ('A' for Active; 'I' for Inactive)
REMARK    1  A    between atoms: C_1  and  N_2
REMARK    2  A    between atoms: C_3  and  O_4
REMARK    3  A    between atoms: O_4  and  C_5
REMARK    4  A    between atoms: N_16  and  C_17
REMARK                            x       y       z     vdW  Elec       q    Type
REMARK                         _______ _______ _______ _____ _____    ______ ____
ROOT
ATOM      1  C   UNL     1       4.375   7.030  17.517  0.00  0.00    +0.000 C 
ATOM      2  N   UNL     1       4.214   5.866  18.378  0.00  0.00    +0.000 N 
ATOM      3  C   UNL     1       5.141   4.839  18.371  0.00  0.00    +0.000 A 
ATOM      4  C   UNL     1       4.902   3.717  19.062  0.00  0.00    +0.000 A 
ATOM      5  C   UNL     1       3.727   3.615  19.931  0.00  0.00    +0.000 A 
ATOM      6  O   UNL     1       3.561   2.578  20.567  0.00  0.00    +0.000 OA
ATOM      7  N   UNL     1       2.908   4.719  19.980  0.00  0.00    +0.000 N 
ATOM      8  C   UNL     1       1.751   4.689  20.853  0.00  0.00    +0.000 C 
ATOM      9  C   UNL     1       3.095   5.864  19.214  0.00  0.00    +0.000 A 
ATOM     10  O   UNL     1       2.318   6.817  19.271  0.00  0.00    +0.000 OA
ENDROOT
BRANCH   3  11
ATOM     11  O   UNL     1       6.270   5.004  17.571  0.00  0.00    +0.000 OA
BRANCH  11  12
ATOM     12  C   UNL     1       6.240   4.659  16.234  0.00  0.00    +0.000 A 
ATOM     13  C   UNL     1       5.373   3.701  15.699  0.00  0.00    +0.000 A 
ATOM     14  C   UNL     1       5.426   3.384  14.339  0.00  0.00    +0.000 A 
ATOM     15  C   UNL     1       6.376   3.990  13.512  0.00  0.00    +0.000 A 
ATOM     16 CL   UNL     1       6.420   3.509  11.853  0.00  0.00    +0.000 Cl
ATOM     17  C   UNL     1       7.257   4.936  14.047  0.00  0.00    +0.000 A 
ATOM     18 CL   UNL     1       8.458   5.724  13.085  0.00  0.00    +0.000 Cl
ATOM     19  C   UNL     1       7.187   5.269  15.407  0.00  0.00    +0.000 A 
ENDBRANCH  11  12
ENDBRANCH   3  11
TORSDOF 2
ENDMDL
