MODEL 1
REMARK VINA RESULT:      -8.5      0.000      0.000
REMARK  Name = 
REMARK  10 active torsions:
REMARK  status: ('A' for Active; 'I' for Inactive)
REMARK    1  A    between atoms: C_1  and  O_2
REMARK    2  A    between atoms: O_2  and  C_3
REMARK    3  A    between atoms: C_3  and  C_5
REMARK    4  A    between atoms: C_6  and  C_7
REMARK    5  A    between atoms: C_9  and  C_10
REMARK    6  A    between atoms: C_11  and  C_12
REMARK    7  A    between atoms: C_12  and  C_14
REMARK    8  A    between atoms: C_19  and  C_20
REMARK    9  A    between atoms: C_20  and  C_21
REMARK   10  A    between atoms: C_24  and  N_25
REMARK                            x       y       z     vdW  Elec       q    Type
REMARK                         _______ _______ _______ _____ _____    ______ ____
ROOT
ATOM      1  C   UNL     1       3.533   4.209  19.728  0.00  0.00    +0.000 A 
ATOM      2  C   UNL     1       3.050   2.995  20.259  0.00  0.00    +0.000 A 
ATOM      3  C   UNL     1       1.744   2.877  20.734  0.00  0.00    +0.000 A 
ATOM      4  C   UNL     1       0.916   3.989  20.748  0.00  0.00    +0.000 A 
ATOM      5  C   UNL     1       1.392   5.215  20.287  0.00  0.00    +0.000 A 
ATOM      6  C   UNL     1       2.695   5.349  19.759  0.00  0.00    +0.000 A 
ENDROOT
BRANCH   1   7
ATOM      7  C   UNL     1       4.938   4.232  19.170  0.00  0.00    +0.000 C 
ATOM      8  O   UNL     1       5.895   4.248  19.934  0.00  0.00    +0.000 OA
BRANCH   7  15
ATOM      9  C   UNL     1       6.275   4.468  16.906  0.00  0.00    +0.000 A 
ATOM     10  C   UNL     1       5.861   4.429  15.579  0.00  0.00    +0.000 A 
ATOM     11  C   UNL     1       6.531   4.829  14.312  0.00  0.00    +0.000 C 
ATOM     12  N   UNL     1       4.599   3.891  15.551  0.00  0.00    +0.000 N 
ATOM     13  C   UNL     1       4.138   3.697  16.827  0.00  0.00    +0.000 A 
ATOM     14  C   UNL     1       2.767   3.169  17.071  0.00  0.00    +0.000 C 
ATOM     15  C   UNL     1       5.122   4.128  17.711  0.00  0.00    +0.000 A 
ATOM     16  H   UNL     1       4.070   3.702  14.710  0.00  0.00    +0.000 HD
BRANCH   9  17
ATOM     17  C   UNL     1       7.610   4.854  17.363  0.00  0.00    +0.000 C 
ATOM     18  O   UNL     1       8.436   4.063  17.801  0.00  0.00    +0.000 OA
BRANCH  17  20
ATOM     19  C   UNL     1       7.918   6.868  18.514  0.00  0.00    +0.000 C 
ATOM     20  O   UNL     1       7.820   6.198  17.258  0.00  0.00    +0.000 OA
ENDBRANCH  17  20
ENDBRANCH   9  17
ENDBRANCH   7  15
ENDBRANCH   1   7
BRANCH   6  21
ATOM     21  C   UNL     1       3.096   6.722  19.250  0.00  0.00    +0.000 C 
BRANCH  21  22
ATOM     22  C   UNL     1       2.058   7.827  19.296  0.00  0.00    +0.000 A 
ATOM     23  C   UNL     1       1.484   8.311  20.477  0.00  0.00    +0.000 A 
ATOM     24  C   UNL     1       0.647   9.433  20.458  0.00  0.00    +0.000 A 
ATOM     25  C   UNL     1       0.399  10.120  19.269  0.00  0.00    +0.000 A 
ATOM     26  C   UNL     1       0.843   9.556  18.075  0.00  0.00    +0.000 A 
ATOM     27  C   UNL     1       1.683   8.437  18.088  0.00  0.00    +0.000 A 
BRANCH  25  28
ATOM     28  N   UNL     1      -0.449  11.236  19.257  0.00  0.00    +0.000 N 
ATOM     29  H   UNL     1      -0.809  11.432  18.327  0.00  0.00    +0.000 HD
ATOM     30  H   UNL     1      -1.203  11.158  19.934  0.00  0.00    +0.000 HD
ENDBRANCH  25  28
ENDBRANCH  21  22
ENDBRANCH   6  21
TORSDOF 7
ENDMDL
MODEL 2
REMARK VINA RESULT:      -8.2      0.593      1.095
REMARK  Name = 
REMARK  10 active torsions:
REMARK  status: ('A' for Active; 'I' for Inactive)
REMARK    1  A    between atoms: C_1  and  O_2
REMARK    2  A    between atoms: O_2  and  C_3
REMARK    3  A    between atoms: C_3  and  C_5
REMARK    4  A    between atoms: C_6  and  C_7
REMARK    5  A    between atoms: C_9  and  C_10
REMARK    6  A    between atoms: C_11  and  C_12
REMARK    7  A    between atoms: C_12  and  C_14
REMARK    8  A    between atoms: C_19  and  C_20
REMARK    9  A    between atoms: C_20  and  C_21
REMARK   10  A    between atoms: C_24  and  N_25
REMARK                            x       y       z     vdW  Elec       q    Type
REMARK                         _______ _______ _______ _____ _____    ______ ____
ROOT
ATOM      1  C   UNL     1       3.553   4.215  19.687  0.00  0.00    +0.000 A 
ATOM      2  C   UNL     1       3.350   3.087  20.510  0.00  0.00    +0.000 A 
ATOM      3  C   UNL     1       2.108   2.819  21.084  0.00  0.00    +0.000 A 
ATOM      4  C   UNL     1       1.061   3.709  20.900  0.00  0.00    +0.000 A 
ATOM      5  C   UNL     1       1.255   4.864  20.142  0.00  0.00    +0.000 A 
ATOM      6  C   UNL     1       2.491   5.134  19.514  0.00  0.00    +0.000 A 
ENDROOT
BRANCH   1   7
ATOM      7  C   UNL     1       4.912   4.394  19.047  0.00  0.00    +0.000 C 
ATOM      8  O   UNL     1       5.879   4.675  19.744  0.00  0.00    +0.000 OA
BRANCH   7  15
ATOM      9  C   UNL     1       6.162   4.423  16.723  0.00  0.00    +0.000 A 
ATOM     10  C   UNL     1       5.711   4.195  15.428  0.00  0.00    +0.000 A 
ATOM     11  C   UNL     1       6.316   4.472  14.097  0.00  0.00    +0.000 C 
ATOM     12  N   UNL     1       4.484   3.587  15.514  0.00  0.00    +0.000 N 
ATOM     13  C   UNL     1       4.075   3.527  16.820  0.00  0.00    +0.000 A 
ATOM     14  C   UNL     1       2.747   2.956  17.178  0.00  0.00    +0.000 C 
ATOM     15  C   UNL     1       5.057   4.120  17.606  0.00  0.00    +0.000 A 
ATOM     16  H   UNL     1       3.943   3.264  14.722  0.00  0.00    +0.000 HD
BRANCH   9  17
ATOM     17  C   UNL     1       7.484   4.939  17.078  0.00  0.00    +0.000 C 
ATOM     18  O   UNL     1       8.371   4.257  17.576  0.00  0.00    +0.000 OA
BRANCH  17  20
ATOM     19  C   UNL     1       7.752   7.088  17.964  0.00  0.00    +0.000 C 
ATOM     20  O   UNL     1       7.606   6.270  16.803  0.00  0.00    +0.000 OA
ENDBRANCH  17  20
ENDBRANCH   9  17
ENDBRANCH   7  15
ENDBRANCH   1   7
BRANCH   6  21
ATOM     21  C   UNL     1       2.579   6.401  18.682  0.00  0.00    +0.000 C 
BRANCH  21  22
ATOM     22  C   UNL     1       2.023   7.680  19.277  0.00  0.00    +0.000 A 
ATOM     23  C   UNL     1       1.711   8.819  18.526  0.00  0.00    +0.000 A 
ATOM     24  C   UNL     1       1.061   9.910  19.117  0.00  0.00    +0.000 A 
ATOM     25  C   UNL     1       0.672   9.869  20.456  0.00  0.00    +0.000 A 
ATOM     26  C   UNL     1       1.111   8.806  21.241  0.00  0.00    +0.000 A 
ATOM     27  C   UNL     1       1.758   7.713  20.656  0.00  0.00    +0.000 A 
BRANCH  25  28
ATOM     28  N   UNL     1       0.030  10.970  21.043  0.00  0.00    +0.000 N 
ATOM     29  H   UNL     1      -0.503  11.507  20.365  0.00  0.00    +0.000 HD
ATOM     30  H   UNL     1      -0.547  10.705  21.837  0.00  0.00    +0.000 HD
ENDBRANCH  25  28
ENDBRANCH  21  22
ENDBRANCH   6  21
TORSDOF 7
ENDMDL
MODEL 3
REMARK VINA RESULT:      -8.2      1.550      2.867
REMARK  Name = 
REMARK  10 active torsions:
REMARK  status: ('A' for Active; 'I' for Inactive)
REMARK    1  A    between atoms: C_1  and  O_2
REMARK    2  A    between atoms: O_2  and  C_3
REMARK    3  A    between atoms: C_3  and  C_5
REMARK    4  A    between atoms: C_6  and  C_7
REMARK    5  A    between atoms: C_9  and  C_10
REMARK    6  A    between atoms: C_11  and  C_12
REMARK    7  A    between atoms: C_12  and  C_14
REMARK    8  A    between atoms: C_19  and  C_20
REMARK    9  A    between atoms: C_20  and  C_21
REMARK   10  A    between atoms: C_24  and  N_25
REMARK                            x       y       z     vdW  Elec       q    Type
REMARK                         _______ _______ _______ _____ _____    ______ ____
ROOT
ATOM      1  C   UNL     1       3.944   5.004  19.694  0.00  0.00    +0.000 A 
ATOM      2  C   UNL     1       3.746   3.886  20.532  0.00  0.00    +0.000 A 
ATOM      3  C   UNL     1       2.487   3.576  21.044  0.00  0.00    +0.000 A 
ATOM      4  C   UNL     1       1.414   4.414  20.783  0.00  0.00    +0.000 A 
ATOM      5  C   UNL     1       1.598   5.558  20.009  0.00  0.00    +0.000 A 
ATOM      6  C   UNL     1       2.854   5.870  19.441  0.00  0.00    +0.000 A 
ENDROOT
BRANCH   1   7
ATOM      7  C   UNL     1       5.327   5.229  19.124  0.00  0.00    +0.000 C 
ATOM      8  O   UNL     1       6.291   5.292  19.876  0.00  0.00    +0.000 OA
BRANCH   7  15
ATOM      9  C   UNL     1       4.870   4.434  16.649  0.00  0.00    +0.000 A 
ATOM     10  C   UNL     1       5.539   4.691  15.457  0.00  0.00    +0.000 A 
ATOM     11  C   UNL     1       5.474   4.046  14.117  0.00  0.00    +0.000 C 
ATOM     12  N   UNL     1       6.371   5.761  15.667  0.00  0.00    +0.000 N 
ATOM     13  C   UNL     1       6.351   6.125  16.988  0.00  0.00    +0.000 A 
ATOM     14  C   UNL     1       7.212   7.233  17.487  0.00  0.00    +0.000 C 
ATOM     15  C   UNL     1       5.491   5.263  17.659  0.00  0.00    +0.000 A 
ATOM     16  H   UNL     1       6.945   6.195  14.956  0.00  0.00    +0.000 HD
BRANCH   9  17
ATOM     17  C   UNL     1       3.798   3.454  16.821  0.00  0.00    +0.000 C 
ATOM     18  O   UNL     1       2.625   3.670  16.543  0.00  0.00    +0.000 OA
BRANCH  17  20
ATOM     19  C   UNL     1       3.273   1.549  18.075  0.00  0.00    +0.000 C 
ATOM     20  O   UNL     1       4.256   2.278  17.341  0.00  0.00    +0.000 OA
ENDBRANCH  17  20
ENDBRANCH   9  17
ENDBRANCH   7  15
ENDBRANCH   1   7
BRANCH   6  21
ATOM     21  C   UNL     1       2.932   7.121  18.585  0.00  0.00    +0.000 C 
BRANCH  21  22
ATOM     22  C   UNL     1       1.976   8.256  18.897  0.00  0.00    +0.000 A 
ATOM     23  C   UNL     1       1.380   9.065  17.923  0.00  0.00    +0.000 A 
ATOM     24  C   UNL     1       0.392   9.995  18.272  0.00  0.00    +0.000 A 
ATOM     25  C   UNL     1      -0.051  10.105  19.590  0.00  0.00    +0.000 A 
ATOM     26  C   UNL     1       0.640   9.412  20.581  0.00  0.00    +0.000 A 
ATOM     27  C   UNL     1       1.626   8.481  20.239  0.00  0.00    +0.000 A 
BRANCH  25  28
ATOM     28  N   UNL     1      -1.034  11.046  19.932  0.00  0.00    +0.000 N 
ATOM     29  H   UNL     1      -1.968  10.646  19.911  0.00  0.00    +0.000 HD
ATOM     30  H   UNL     1      -0.847  11.495  20.825  0.00  0.00    +0.000 HD
ENDBRANCH  25  28
ENDBRANCH  21  22
ENDBRANCH   6  21
TORSDOF 7
ENDMDL
MODEL 4
REMARK VINA RESULT:      -8.1      5.981     10.693
REMARK  Name = 
REMARK  10 active torsions:
REMARK  status: ('A' for Active; 'I' for Inactive)
REMARK    1  A    between atoms: C_1  and  O_2
REMARK    2  A    between atoms: O_2  and  C_3
REMARK    3  A    between atoms: C_3  and  C_5
REMARK    4  A    between atoms: C_6  and  C_7
REMARK    5  A    between atoms: C_9  and  C_10
REMARK    6  A    between atoms: C_11  and  C_12
REMARK    7  A    between atoms: C_12  and  C_14
REMARK    8  A    between atoms: C_19  and  C_20
REMARK    9  A    between atoms: C_20  and  C_21
REMARK   10  A    between atoms: C_24  and  N_25
REMARK                            x       y       z     vdW  Elec       q    Type
REMARK                         _______ _______ _______ _____ _____    ______ ____
ROOT
ATOM      1  C   UNL     1      -2.264  11.701  18.975  0.00  0.00    +0.000 A 
ATOM      2  C   UNL     1      -3.579  11.482  18.514  0.00  0.00    +0.000 A 
ATOM      3  C   UNL     1      -3.862  10.507  17.558  0.00  0.00    +0.000 A 
ATOM      4  C   UNL     1      -2.827   9.776  16.995  0.00  0.00    +0.000 A 
ATOM      5  C   UNL     1      -1.511  10.019  17.389  0.00  0.00    +0.000 A 
ATOM      6  C   UNL     1      -1.204  10.968  18.389  0.00  0.00    +0.000 A 
ENDROOT
BRANCH   1   7
ATOM      7  C   UNL     1      -2.054  12.729  20.064  0.00  0.00    +0.000 C 
ATOM      8  O   UNL     1      -1.638  13.844  19.775  0.00  0.00    +0.000 OA
BRANCH   7  15
ATOM      9  C   UNL     1      -3.730  12.599  22.098  0.00  0.00    +0.000 A 
ATOM     10  C   UNL     1      -3.525  12.349  23.450  0.00  0.00    +0.000 A 
ATOM     11  C   UNL     1      -4.394  12.541  24.644  0.00  0.00    +0.000 C 
ATOM     12  N   UNL     1      -2.270  11.815  23.591  0.00  0.00    +0.000 N 
ATOM     13  C   UNL     1      -1.612  11.828  22.389  0.00  0.00    +0.000 A 
ATOM     14  C   UNL     1      -0.206  11.347  22.284  0.00  0.00    +0.000 C 
ATOM     15  C   UNL     1      -2.458  12.393  21.441  0.00  0.00    +0.000 A 
ATOM     16  H   UNL     1      -1.873  11.494  24.465  0.00  0.00    +0.000 HD
BRANCH   9  17
ATOM     17  C   UNL     1      -4.988  13.052  21.504  0.00  0.00    +0.000 C 
ATOM     18  O   UNL     1      -5.124  14.129  20.938  0.00  0.00    +0.000 OA
BRANCH  17  20
ATOM     19  C   UNL     1      -6.664  11.798  20.459  0.00  0.00    +0.000 C 
ATOM     20  O   UNL     1      -5.992  12.143  21.670  0.00  0.00    +0.000 OA
ENDBRANCH  17  20
ENDBRANCH   9  17
ENDBRANCH   7  15
ENDBRANCH   1   7
BRANCH   6  21
ATOM     21  C   UNL     1       0.258  11.124  18.766  0.00  0.00    +0.000 C 
BRANCH  21  22
ATOM     22  C   UNL     1       1.086   9.864  18.932  0.00  0.00    +0.000 A 
ATOM     23  C   UNL     1       1.059   9.057  20.074  0.00  0.00    +0.000 A 
ATOM     24  C   UNL     1       1.734   7.830  20.099  0.00  0.00    +0.000 A 
ATOM     25  C   UNL     1       2.412   7.365  18.972  0.00  0.00    +0.000 A 
ATOM     26  C   UNL     1       2.568   8.228  17.890  0.00  0.00    +0.000 A 
ATOM     27  C   UNL     1       1.893   9.453  17.859  0.00  0.00    +0.000 A 
BRANCH  25  28
ATOM     28  N   UNL     1       3.094   6.140  19.009  0.00  0.00    +0.000 N 
ATOM     29  H   UNL     1       2.622   5.458  19.597  0.00  0.00    +0.000 HD
ATOM     30  H   UNL     1       3.269   5.765  18.080  0.00  0.00    +0.000 HD
ENDBRANCH  25  28
ENDBRANCH  21  22
ENDBRANCH   6  21
TORSDOF 7
ENDMDL
MODEL 5
REMARK VINA RESULT:      -8.1      2.776      6.935
REMARK  Name = 
REMARK  10 active torsions:
REMARK  status: ('A' for Active; 'I' for Inactive)
REMARK    1  A    between atoms: C_1  and  O_2
REMARK    2  A    between atoms: O_2  and  C_3
REMARK    3  A    between atoms: C_3  and  C_5
REMARK    4  A    between atoms: C_6  and  C_7
REMARK    5  A    between atoms: C_9  and  C_10
REMARK    6  A    between atoms: C_11  and  C_12
REMARK    7  A    between atoms: C_12  and  C_14
REMARK    8  A    between atoms: C_19  and  C_20
REMARK    9  A    between atoms: C_20  and  C_21
REMARK   10  A    between atoms: C_24  and  N_25
REMARK                            x       y       z     vdW  Elec       q    Type
REMARK                         _______ _______ _______ _____ _____    ______ ____
ROOT
ATOM      1  C   UNL     1       5.889   5.159  18.055  0.00  0.00    +0.000 A 
ATOM      2  C   UNL     1       6.725   5.156  19.191  0.00  0.00    +0.000 A 
ATOM      3  C   UNL     1       7.762   6.077  19.334  0.00  0.00    +0.000 A 
ATOM      4  C   UNL     1       8.026   6.976  18.312  0.00  0.00    +0.000 A 
ATOM      5  C   UNL     1       7.253   6.957  17.152  0.00  0.00    +0.000 A 
ATOM      6  C   UNL     1       6.169   6.064  17.004  0.00  0.00    +0.000 A 
ENDROOT
BRANCH   1   7
ATOM      7  C   UNL     1       4.744   4.172  18.012  0.00  0.00    +0.000 C 
ATOM      8  O   UNL     1       4.630   3.415  17.056  0.00  0.00    +0.000 OA
BRANCH   7  15
ATOM      9  C   UNL     1       3.670   2.980  20.107  0.00  0.00    +0.000 A 
ATOM     10  C   UNL     1       2.543   3.281  20.865  0.00  0.00    +0.000 A 
ATOM     11  C   UNL     1       1.769   2.489  21.859  0.00  0.00    +0.000 C 
ATOM     12  N   UNL     1       2.177   4.571  20.576  0.00  0.00    +0.000 N 
ATOM     13  C   UNL     1       2.957   5.070  19.565  0.00  0.00    +0.000 A 
ATOM     14  C   UNL     1       2.725   6.439  19.029  0.00  0.00    +0.000 C 
ATOM     15  C   UNL     1       3.849   4.075  19.179  0.00  0.00    +0.000 A 
ATOM     16  H   UNL     1       1.416   5.069  21.020  0.00  0.00    +0.000 HD
BRANCH   9  17
ATOM     17  C   UNL     1       4.452   1.749  20.210  0.00  0.00    +0.000 C 
ATOM     18  O   UNL     1       4.393   0.834  19.397  0.00  0.00    +0.000 OA
BRANCH  17  20
ATOM     19  C   UNL     1       5.697   0.431  21.689  0.00  0.00    +0.000 C 
ATOM     20  O   UNL     1       5.242   1.732  21.323  0.00  0.00    +0.000 OA
ENDBRANCH  17  20
ENDBRANCH   9  17
ENDBRANCH   7  15
ENDBRANCH   1   7
BRANCH   6  21
ATOM     21  C   UNL     1       5.372   6.155  15.715  0.00  0.00    +0.000 C 
BRANCH  21  22
ATOM     22  C   UNL     1       5.818   5.301  14.543  0.00  0.00    +0.000 A 
ATOM     23  C   UNL     1       7.120   5.297  14.030  0.00  0.00    +0.000 A 
ATOM     24  C   UNL     1       7.498   4.375  13.046  0.00  0.00    +0.000 A 
ATOM     25  C   UNL     1       6.600   3.412  12.587  0.00  0.00    +0.000 A 
ATOM     26  C   UNL     1       5.267   3.507  12.982  0.00  0.00    +0.000 A 
ATOM     27  C   UNL     1       4.884   4.424  13.966  0.00  0.00    +0.000 A 
BRANCH  25  28
ATOM     28  N   UNL     1       6.984   2.499  11.594  0.00  0.00    +0.000 N 
ATOM     29  H   UNL     1       6.194   1.971  11.235  0.00  0.00    +0.000 HD
ATOM     30  H   UNL     1       7.504   2.941  10.840  0.00  0.00    +0.000 HD
ENDBRANCH  25  28
ENDBRANCH  21  22
ENDBRANCH   6  21
TORSDOF 7
ENDMDL
MODEL 6
REMARK VINA RESULT:      -8.0      0.858      1.284
REMARK  Name = 
REMARK  10 active torsions:
REMARK  status: ('A' for Active; 'I' for Inactive)
REMARK    1  A    between atoms: C_1  and  O_2
REMARK    2  A    between atoms: O_2  and  C_3
REMARK    3  A    between atoms: C_3  and  C_5
REMARK    4  A    between atoms: C_6  and  C_7
REMARK    5  A    between atoms: C_9  and  C_10
REMARK    6  A    between atoms: C_11  and  C_12
REMARK    7  A    between atoms: C_12  and  C_14
REMARK    8  A    between atoms: C_19  and  C_20
REMARK    9  A    between atoms: C_20  and  C_21
REMARK   10  A    between atoms: C_24  and  N_25
REMARK                            x       y       z     vdW  Elec       q    Type
REMARK                         _______ _______ _______ _____ _____    ______ ____
ROOT
ATOM      1  C   UNL     1       3.159   3.527  19.591  0.00  0.00    +0.000 A 
ATOM      2  C   UNL     1       2.416   2.329  19.567  0.00  0.00    +0.000 A 
ATOM      3  C   UNL     1       1.059   2.307  19.887  0.00  0.00    +0.000 A 
ATOM      4  C   UNL     1       0.433   3.472  20.302  0.00  0.00    +0.000 A 
ATOM      5  C   UNL     1       1.162   4.657  20.394  0.00  0.00    +0.000 A 
ATOM      6  C   UNL     1       2.526   4.714  20.032  0.00  0.00    +0.000 A 
ENDROOT
BRANCH   1   7
ATOM      7  C   UNL     1       4.608   3.475  19.162  0.00  0.00    +0.000 C 
ATOM      8  O   UNL     1       5.454   3.038  19.932  0.00  0.00    +0.000 OA
BRANCH   7  15
ATOM      9  C   UNL     1       6.157   4.475  17.274  0.00  0.00    +0.000 A 
ATOM     10  C   UNL     1       5.889   4.858  15.964  0.00  0.00    +0.000 A 
ATOM     11  C   UNL     1       6.660   5.669  14.983  0.00  0.00    +0.000 C 
ATOM     12  N   UNL     1       4.677   4.321  15.612  0.00  0.00    +0.000 N 
ATOM     13  C   UNL     1       4.098   3.708  16.693  0.00  0.00    +0.000 A 
ATOM     14  C   UNL     1       2.748   3.088  16.586  0.00  0.00    +0.000 C 
ATOM     15  C   UNL     1       4.951   3.857  17.781  0.00  0.00    +0.000 A 
ATOM     16  H   UNL     1       4.254   4.399  14.696  0.00  0.00    +0.000 HD
BRANCH   9  17
ATOM     17  C   UNL     1       7.407   4.733  17.989  0.00  0.00    +0.000 C 
ATOM     18  O   UNL     1       8.426   4.070  17.840  0.00  0.00    +0.000 OA
BRANCH  17  20
ATOM     19  C   UNL     1       7.948   6.972  18.400  0.00  0.00    +0.000 C 
ATOM     20  O   UNL     1       7.298   5.784  18.852  0.00  0.00    +0.000 OA
ENDBRANCH  17  20
ENDBRANCH   9  17
ENDBRANCH   7  15
ENDBRANCH   1   7
BRANCH   6  21
ATOM     21  C   UNL     1       3.211   6.064  20.136  0.00  0.00    +0.000 C 
BRANCH  21  22
ATOM     22  C   UNL     1       2.513   7.264  19.526  0.00  0.00    +0.000 A 
ATOM     23  C   UNL     1       2.504   7.551  18.156  0.00  0.00    +0.000 A 
ATOM     24  C   UNL     1       1.715   8.589  17.647  0.00  0.00    +0.000 A 
ATOM     25  C   UNL     1       0.886   9.334  18.487  0.00  0.00    +0.000 A 
ATOM     26  C   UNL     1       1.003   9.153  19.863  0.00  0.00    +0.000 A 
ATOM     27  C   UNL     1       1.788   8.115  20.377  0.00  0.00    +0.000 A 
BRANCH  25  28
ATOM     28  N   UNL     1       0.106  10.379  17.971  0.00  0.00    +0.000 N 
ATOM     29  H   UNL     1       0.669  11.074  17.490  0.00  0.00    +0.000 HD
ATOM     30  H   UNL     1      -0.648  10.043  17.377  0.00  0.00    +0.000 HD
ENDBRANCH  25  28
ENDBRANCH  21  22
ENDBRANCH   6  21
TORSDOF 7
ENDMDL
MODEL 7
REMARK VINA RESULT:      -8.0      2.591      6.942
REMARK  Name = 
REMARK  10 active torsions:
REMARK  status: ('A' for Active; 'I' for Inactive)
REMARK    1  A    between atoms: C_1  and  O_2
REMARK    2  A    between atoms: O_2  and  C_3
REMARK    3  A    between atoms: C_3  and  C_5
REMARK    4  A    between atoms: C_6  and  C_7
REMARK    5  A    between atoms: C_9  and  C_10
REMARK    6  A    between atoms: C_11  and  C_12
REMARK    7  A    between atoms: C_12  and  C_14
REMARK    8  A    between atoms: C_19  and  C_20
REMARK    9  A    between atoms: C_20  and  C_21
REMARK   10  A    between atoms: C_24  and  N_25
REMARK                            x       y       z     vdW  Elec       q    Type
REMARK                         _______ _______ _______ _____ _____    ______ ____
ROOT
ATOM      1  C   UNL     1       5.403   5.584  18.245  0.00  0.00    +0.000 A 
ATOM      2  C   UNL     1       6.043   5.429  19.492  0.00  0.00    +0.000 A 
ATOM      3  C   UNL     1       7.362   5.836  19.689  0.00  0.00    +0.000 A 
ATOM      4  C   UNL     1       8.089   6.346  18.624  0.00  0.00    +0.000 A 
ATOM      5  C   UNL     1       7.497   6.450  17.366  0.00  0.00    +0.000 A 
ATOM      6  C   UNL     1       6.149   6.086  17.152  0.00  0.00    +0.000 A 
ENDROOT
BRANCH   1   7
ATOM      7  C   UNL     1       3.949   5.181  18.136  0.00  0.00    +0.000 C 
ATOM      8  O   UNL     1       3.432   5.066  17.032  0.00  0.00    +0.000 OA
BRANCH   7  15
ATOM      9  C   UNL     1       3.143   3.563  20.059  0.00  0.00    +0.000 A 
ATOM     10  C   UNL     1       2.136   3.686  21.009  0.00  0.00    +0.000 A 
ATOM     11  C   UNL     1       1.486   2.694  21.909  0.00  0.00    +0.000 C 
ATOM     12  N   UNL     1       1.760   5.004  21.051  0.00  0.00    +0.000 N 
ATOM     13  C   UNL     1       2.406   5.713  20.072  0.00  0.00    +0.000 A 
ATOM     14  C   UNL     1       2.132   7.163  19.873  0.00  0.00    +0.000 C 
ATOM     15  C   UNL     1       3.218   4.831  19.367  0.00  0.00    +0.000 A 
ATOM     16  H   UNL     1       1.076   5.390  21.689  0.00  0.00    +0.000 HD
BRANCH   9  17
ATOM     17  C   UNL     1       3.908   2.344  19.792  0.00  0.00    +0.000 C 
ATOM     18  O   UNL     1       5.052   2.157  20.187  0.00  0.00    +0.000 OA
BRANCH  17  20
ATOM     19  C   UNL     1       3.198   1.747  17.644  0.00  0.00    +0.000 C 
ATOM     20  O   UNL     1       3.203   1.450  19.039  0.00  0.00    +0.000 OA
ENDBRANCH  17  20
ENDBRANCH   9  17
ENDBRANCH   7  15
ENDBRANCH   1   7
BRANCH   6  21
ATOM     21  C   UNL     1       5.597   6.276  15.751  0.00  0.00    +0.000 C 
BRANCH  21  22
ATOM     22  C   UNL     1       5.931   5.226  14.709  0.00  0.00    +0.000 A 
ATOM     23  C   UNL     1       5.035   4.241  14.278  0.00  0.00    +0.000 A 
ATOM     24  C   UNL     1       5.357   3.400  13.206  0.00  0.00    +0.000 A 
ATOM     25  C   UNL     1       6.560   3.552  12.515  0.00  0.00    +0.000 A 
ATOM     26  C   UNL     1       7.514   4.426  13.033  0.00  0.00    +0.000 A 
ATOM     27  C   UNL     1       7.196   5.270  14.101  0.00  0.00    +0.000 A 
BRANCH  25  28
ATOM     28  N   UNL     1       6.880   2.699  11.449  0.00  0.00    +0.000 N 
ATOM     29  H   UNL     1       7.664   2.091  11.669  0.00  0.00    +0.000 HD
ATOM     30  H   UNL     1       6.078   2.162  11.128  0.00  0.00    +0.000 HD
ENDBRANCH  25  28
ENDBRANCH  21  22
ENDBRANCH   6  21
TORSDOF 7
ENDMDL
MODEL 8
REMARK VINA RESULT:      -7.9      2.648      6.945
REMARK  Name = 
REMARK  10 active torsions:
REMARK  status: ('A' for Active; 'I' for Inactive)
REMARK    1  A    between atoms: C_1  and  O_2
REMARK    2  A    between atoms: O_2  and  C_3
REMARK    3  A    between atoms: C_3  and  C_5
REMARK    4  A    between atoms: C_6  and  C_7
REMARK    5  A    between atoms: C_9  and  C_10
REMARK    6  A    between atoms: C_11  and  C_12
REMARK    7  A    between atoms: C_12  and  C_14
REMARK    8  A    between atoms: C_19  and  C_20
REMARK    9  A    between atoms: C_20  and  C_21
REMARK   10  A    between atoms: C_24  and  N_25
REMARK                            x       y       z     vdW  Elec       q    Type
REMARK                         _______ _______ _______ _____ _____    ______ ____
ROOT
ATOM      1  C   UNL     1       5.590   5.412  18.111  0.00  0.00    +0.000 A 
ATOM      2  C   UNL     1       6.341   5.285  19.298  0.00  0.00    +0.000 A 
ATOM      3  C   UNL     1       7.557   5.946  19.465  0.00  0.00    +0.000 A 
ATOM      4  C   UNL     1       8.080   6.695  18.421  0.00  0.00    +0.000 A 
ATOM      5  C   UNL     1       7.387   6.784  17.215  0.00  0.00    +0.000 A 
ATOM      6  C   UNL     1       6.132   6.161  17.038  0.00  0.00    +0.000 A 
ENDROOT
BRANCH   1   7
ATOM      7  C   UNL     1       4.248   4.719  18.039  0.00  0.00    +0.000 C 
ATOM      8  O   UNL     1       3.876   4.224  16.982  0.00  0.00    +0.000 OA
BRANCH   7  15
ATOM      9  C   UNL     1       3.345   3.413  20.147  0.00  0.00    +0.000 A 
ATOM     10  C   UNL     1       2.304   3.686  21.027  0.00  0.00    +0.000 A 
ATOM     11  C   UNL     1       1.605   2.846  22.037  0.00  0.00    +0.000 C 
ATOM     12  N   UNL     1       1.948   5.000  20.859  0.00  0.00    +0.000 N 
ATOM     13  C   UNL     1       2.642   5.548  19.812  0.00  0.00    +0.000 A 
ATOM     14  C   UNL     1       2.399   6.956  19.390  0.00  0.00    +0.000 C 
ATOM     15  C   UNL     1       3.466   4.564  19.278  0.00  0.00    +0.000 A 
ATOM     16  H   UNL     1       1.246   5.483  21.404  0.00  0.00    +0.000 HD
BRANCH   9  17
ATOM     17  C   UNL     1       4.099   2.161  20.094  0.00  0.00    +0.000 C 
ATOM     18  O   UNL     1       4.862   1.787  20.976  0.00  0.00    +0.000 OA
BRANCH  17  20
ATOM     19  C   UNL     1       2.495   1.458  18.543  0.00  0.00    +0.000 C 
ATOM     20  O   UNL     1       3.865   1.468  18.942  0.00  0.00    +0.000 OA
ENDBRANCH  17  20
ENDBRANCH   9  17
ENDBRANCH   7  15
ENDBRANCH   1   7
BRANCH   6  21
ATOM     21  C   UNL     1       5.448   6.355  15.697  0.00  0.00    +0.000 C 
BRANCH  21  22
ATOM     22  C   UNL     1       5.847   5.436  14.558  0.00  0.00    +0.000 A 
ATOM     23  C   UNL     1       7.136   5.376  14.017  0.00  0.00    +0.000 A 
ATOM     24  C   UNL     1       7.470   4.400  13.070  0.00  0.00    +0.000 A 
ATOM     25  C   UNL     1       6.539   3.438  12.677  0.00  0.00    +0.000 A 
ATOM     26  C   UNL     1       5.219   3.584  13.097  0.00  0.00    +0.000 A 
ATOM     27  C   UNL     1       4.880   4.556  14.045  0.00  0.00    +0.000 A 
BRANCH  25  28
ATOM     28  N   UNL     1       6.879   2.469  11.722  0.00  0.00    +0.000 N 
ATOM     29  H   UNL     1       7.220   2.886  10.860  0.00  0.00    +0.000 HD
ATOM     30  H   UNL     1       7.536   1.782  12.082  0.00  0.00    +0.000 HD
ENDBRANCH  25  28
ENDBRANCH  21  22
ENDBRANCH   6  21
TORSDOF 7
ENDMDL
MODEL 9
REMARK VINA RESULT:      -7.9      2.596      7.057
REMARK  Name = 
REMARK  10 active torsions:
REMARK  status: ('A' for Active; 'I' for Inactive)
REMARK    1  A    between atoms: C_1  and  O_2
REMARK    2  A    between atoms: O_2  and  C_3
REMARK    3  A    between atoms: C_3  and  C_5
REMARK    4  A    between atoms: C_6  and  C_7
REMARK    5  A    between atoms: C_9  and  C_10
REMARK    6  A    between atoms: C_11  and  C_12
REMARK    7  A    between atoms: C_12  and  C_14
REMARK    8  A    between atoms: C_19  and  C_20
REMARK    9  A    between atoms: C_20  and  C_21
REMARK   10  A    between atoms: C_24  and  N_25
REMARK                            x       y       z     vdW  Elec       q    Type
REMARK                         _______ _______ _______ _____ _____    ______ ____
ROOT
ATOM      1  C   UNL     1       5.349   5.395  18.192  0.00  0.00    +0.000 A 
ATOM      2  C   UNL     1       6.047   5.272  19.412  0.00  0.00    +0.000 A 
ATOM      3  C   UNL     1       7.361   5.717  19.547  0.00  0.00    +0.000 A 
ATOM      4  C   UNL     1       8.027   6.236  18.447  0.00  0.00    +0.000 A 
ATOM      5  C   UNL     1       7.379   6.310  17.215  0.00  0.00    +0.000 A 
ATOM      6  C   UNL     1       6.033   5.907  17.063  0.00  0.00    +0.000 A 
ENDROOT
BRANCH   1   7
ATOM      7  C   UNL     1       3.904   4.951  18.150  0.00  0.00    +0.000 C 
ATOM      8  O   UNL     1       3.564   4.065  17.377  0.00  0.00    +0.000 OA
BRANCH   7  15
ATOM      9  C   UNL     1       2.401   6.863  19.176  0.00  0.00    +0.000 A 
ATOM     10  C   UNL     1       1.772   6.982  20.410  0.00  0.00    +0.000 A 
ATOM     11  C   UNL     1       1.161   8.144  21.111  0.00  0.00    +0.000 C 
ATOM     12  N   UNL     1       1.752   5.739  20.990  0.00  0.00    +0.000 N 
ATOM     13  C   UNL     1       2.458   4.847  20.226  0.00  0.00    +0.000 A 
ATOM     14  C   UNL     1       2.632   3.435  20.666  0.00  0.00    +0.000 C 
ATOM     15  C   UNL     1       2.958   5.528  19.122  0.00  0.00    +0.000 A 
ATOM     16  H   UNL     1       1.313   5.522  21.876  0.00  0.00    +0.000 HD
BRANCH   9  17
ATOM     17  C   UNL     1       2.518   7.929  18.181  0.00  0.00    +0.000 C 
ATOM     18  O   UNL     1       3.585   8.332  17.737  0.00  0.00    +0.000 OA
BRANCH  17  20
ATOM     19  C   UNL     1       1.200   9.848  17.943  0.00  0.00    +0.000 C 
ATOM     20  O   UNL     1       1.301   8.430  17.819  0.00  0.00    +0.000 OA
ENDBRANCH  17  20
ENDBRANCH   9  17
ENDBRANCH   7  15
ENDBRANCH   1   7
BRANCH   6  21
ATOM     21  C   UNL     1       5.416   6.067  15.686  0.00  0.00    +0.000 C 
BRANCH  21  22
ATOM     22  C   UNL     1       5.850   5.103  14.598  0.00  0.00    +0.000 A 
ATOM     23  C   UNL     1       5.028   4.102  14.069  0.00  0.00    +0.000 A 
ATOM     24  C   UNL     1       5.440   3.347  12.963  0.00  0.00    +0.000 A 
ATOM     25  C   UNL     1       6.660   3.606  12.337  0.00  0.00    +0.000 A 
ATOM     26  C   UNL     1       7.542   4.494  12.948  0.00  0.00    +0.000 A 
ATOM     27  C   UNL     1       7.135   5.252  14.050  0.00  0.00    +0.000 A 
BRANCH  25  28
ATOM     28  N   UNL     1       7.070   2.839  11.237  0.00  0.00    +0.000 N 
ATOM     29  H   UNL     1       6.284   2.412  10.755  0.00  0.00    +0.000 HD
ATOM     30  H   UNL     1       7.653   3.366  10.592  0.00  0.00    +0.000 HD
ENDBRANCH  25  28
ENDBRANCH  21  22
ENDBRANCH   6  21
TORSDOF 7
ENDMDL
