MODEL 1
REMARK VINA RESULT:      -8.1      0.000      0.000
REMARK  Name = 
REMARK  8 active torsions:
REMARK  status: ('A' for Active; 'I' for Inactive)
REMARK    1  A    between atoms: C_1  and  S_2
REMARK    2  A    between atoms: S_2  and  N_5
REMARK    3  A    between atoms: N_5  and  C_6
REMARK    4  A    between atoms: N_5  and  C_11
REMARK    5  A    between atoms: C_6  and  C_7
REMARK    6  A    between atoms: N_14  and  C_15
REMARK    7  A    between atoms: C_15  and  C_16
REMARK    8  A    between atoms: C_21  and  C_22
REMARK                            x       y       z     vdW  Elec       q    Type
REMARK                         _______ _______ _______ _____ _____    ______ ____
ROOT
ATOM      1  C   UNL     1       5.081   3.852  17.453  0.00  0.00    +0.000 C 
ATOM      2  C   UNL     1       3.576   3.637  17.222  0.00  0.00    +0.000 C 
ATOM      3  C   UNL     1       2.712   4.586  18.058  0.00  0.00    +0.000 C 
ATOM      4  N   UNL     1       2.990   4.509  19.505  0.00  0.00    +0.000 NA
ATOM      5  C   UNL     1       4.429   4.623  19.781  0.00  0.00    +0.000 C 
ATOM      6  C   UNL     1       5.298   3.672  18.956  0.00  0.00    +0.000 C 
ENDROOT
BRANCH   1   7
ATOM      7  N   UNL     1       5.607   5.195  16.922  0.00  0.00    +0.000 NA
BRANCH   7   9
ATOM      8  C   UNL     1       7.412   6.067  18.853  0.00  0.00    +0.000 C 
ATOM      9  S   UNL     1       7.301   5.507  17.162  0.00  0.00    +0.000 S 
ATOM     10  O   UNL     1       7.660   6.632  16.331  0.00  0.00    +0.000 OA
ATOM     11  O   UNL     1       8.007   4.249  17.052  0.00  0.00    +0.000 OA
ENDBRANCH   7   9
BRANCH   7  12
ATOM     12  C   UNL     1       5.243   5.444  15.446  0.00  0.00    +0.000 C 
BRANCH  12  13
ATOM     13  C   UNL     1       5.786   4.443  14.407  0.00  0.00    +0.000 C 
ATOM     14  F   UNL     1       6.142   3.255  14.930  0.00  0.00    +0.000 F 
ATOM     15  F   UNL     1       4.827   4.187  13.479  0.00  0.00    +0.000 F 
ATOM     16  F   UNL     1       6.852   4.943  13.744  0.00  0.00    +0.000 F 
ENDBRANCH  12  13
ENDBRANCH   7  12
ENDBRANCH   1   7
BRANCH   4  17
ATOM     17  C   UNL     1       2.245   5.597  20.202  0.00  0.00    +0.000 C 
BRANCH  17  18
ATOM     18  C   UNL     1       2.183   6.922  19.451  0.00  0.00    +0.000 A 
ATOM     19  C   UNL     1       2.846   6.993  18.206  0.00  0.00    +0.000 A 
ATOM     20  C   UNL     1       2.856   8.166  17.455  0.00  0.00    +0.000 A 
ATOM     21  C   UNL     1       2.210   9.294  17.938  0.00  0.00    +0.000 A 
ATOM     22  C   UNL     1       1.566   9.245  19.176  0.00  0.00    +0.000 A 
ATOM     23  C   UNL     1       1.524   8.075  19.965  0.00  0.00    +0.000 A 
BRANCH  23  24
ATOM     24  C   UNL     1       0.844   8.114  21.327  0.00  0.00    +0.000 C 
ATOM     25  C   UNL     1       1.009   9.292  22.271  0.00  0.00    +0.000 C 
ATOM     26  C   UNL     1      -0.295   9.077  21.573  0.00  0.00    +0.000 C 
ENDBRANCH  23  24
ENDBRANCH  17  18
ENDBRANCH   4  17
TORSDOF 7
ENDMDL
MODEL 2
REMARK VINA RESULT:      -8.1      2.864      4.466
REMARK  Name = 
REMARK  8 active torsions:
REMARK  status: ('A' for Active; 'I' for Inactive)
REMARK    1  A    between atoms: C_1  and  S_2
REMARK    2  A    between atoms: S_2  and  N_5
REMARK    3  A    between atoms: N_5  and  C_6
REMARK    4  A    between atoms: N_5  and  C_11
REMARK    5  A    between atoms: C_6  and  C_7
REMARK    6  A    between atoms: N_14  and  C_15
REMARK    7  A    between atoms: C_15  and  C_16
REMARK    8  A    between atoms: C_21  and  C_22
REMARK                            x       y       z     vdW  Elec       q    Type
REMARK                         _______ _______ _______ _____ _____    ______ ____
ROOT
ATOM      1  C   UNL     1       2.209   4.517  18.696  0.00  0.00    +0.000 C 
ATOM      2  C   UNL     1       2.197   5.877  17.978  0.00  0.00    +0.000 C 
ATOM      3  C   UNL     1       2.495   7.044  18.924  0.00  0.00    +0.000 C 
ATOM      4  N   UNL     1       1.583   7.106  20.082  0.00  0.00    +0.000 NA
ATOM      5  C   UNL     1       1.488   5.806  20.760  0.00  0.00    +0.000 C 
ATOM      6  C   UNL     1       1.181   4.636  19.823  0.00  0.00    +0.000 C 
ENDROOT
BRANCH   1   7
ATOM      7  N   UNL     1       3.600   4.085  19.188  0.00  0.00    +0.000 NA
BRANCH   7   9
ATOM      8  C   UNL     1       2.873   2.582  21.415  0.00  0.00    +0.000 C 
ATOM      9  S   UNL     1       3.718   2.480  19.847  0.00  0.00    +0.000 S 
ATOM     10  O   UNL     1       5.109   2.231  20.142  0.00  0.00    +0.000 OA
ATOM     11  O   UNL     1       2.973   1.588  18.985  0.00  0.00    +0.000 OA
ENDBRANCH   7   9
BRANCH   7  12
ATOM     12  C   UNL     1       4.702   4.290  18.132  0.00  0.00    +0.000 C 
BRANCH  12  13
ATOM     13  C   UNL     1       5.857   5.244  18.493  0.00  0.00    +0.000 C 
ATOM     14  F   UNL     1       5.839   6.404  17.810  0.00  0.00    +0.000 F 
ATOM     15  F   UNL     1       5.783   5.569  19.810  0.00  0.00    +0.000 F 
ATOM     16  F   UNL     1       7.061   4.665  18.298  0.00  0.00    +0.000 F 
ENDBRANCH  12  13
ENDBRANCH   7  12
ENDBRANCH   1   7
BRANCH   4  17
ATOM     17  C   UNL     1       2.074   8.146  21.032  0.00  0.00    +0.000 C 
BRANCH  17  18
ATOM     18  C   UNL     1       1.020   9.142  21.502  0.00  0.00    +0.000 A 
ATOM     19  C   UNL     1       0.500   8.969  22.804  0.00  0.00    +0.000 A 
ATOM     20  C   UNL     1      -0.477   9.821  23.314  0.00  0.00    +0.000 A 
ATOM     21  C   UNL     1      -0.959  10.857  22.529  0.00  0.00    +0.000 A 
ATOM     22  C   UNL     1      -0.470  11.028  21.233  0.00  0.00    +0.000 A 
ATOM     23  C   UNL     1       0.527  10.195  20.680  0.00  0.00    +0.000 A 
BRANCH  23  24
ATOM     24  C   UNL     1       0.974  10.415  19.242  0.00  0.00    +0.000 C 
ATOM     25  C   UNL     1       0.192   9.859  18.065  0.00  0.00    +0.000 C 
ATOM     26  C   UNL     1       0.180  11.330  18.337  0.00  0.00    +0.000 C 
ENDBRANCH  23  24
ENDBRANCH  17  18
ENDBRANCH   4  17
TORSDOF 7
ENDMDL
MODEL 3
REMARK VINA RESULT:      -8.0      3.864      7.153
REMARK  Name = 
REMARK  8 active torsions:
REMARK  status: ('A' for Active; 'I' for Inactive)
REMARK    1  A    between atoms: C_1  and  S_2
REMARK    2  A    between atoms: S_2  and  N_5
REMARK    3  A    between atoms: N_5  and  C_6
REMARK    4  A    between atoms: N_5  and  C_11
REMARK    5  A    between atoms: C_6  and  C_7
REMARK    6  A    between atoms: N_14  and  C_15
REMARK    7  A    between atoms: C_15  and  C_16
REMARK    8  A    between atoms: C_21  and  C_22
REMARK                            x       y       z     vdW  Elec       q    Type
REMARK                         _______ _______ _______ _____ _____    ______ ____
ROOT
ATOM      1  C   UNL     1       4.241   5.460  19.383  0.00  0.00    +0.000 C 
ATOM      2  C   UNL     1       3.737   6.077  18.067  0.00  0.00    +0.000 C 
ATOM      3  C   UNL     1       4.058   5.205  16.849  0.00  0.00    +0.000 C 
ATOM      4  N   UNL     1       5.493   4.895  16.714  0.00  0.00    +0.000 NA
ATOM      5  C   UNL     1       6.051   4.379  17.971  0.00  0.00    +0.000 C 
ATOM      6  C   UNL     1       5.744   5.249  19.191  0.00  0.00    +0.000 C 
ENDROOT
BRANCH   1   7
ATOM      7  N   UNL     1       3.497   4.179  19.795  0.00  0.00    +0.000 NA
BRANCH   7   9
ATOM      8  C   UNL     1       0.762   3.693  19.955  0.00  0.00    +0.000 C 
ATOM      9  S   UNL     1       2.135   4.389  20.856  0.00  0.00    +0.000 S 
ATOM     10  O   UNL     1       1.882   5.806  20.966  0.00  0.00    +0.000 OA
ATOM     11  O   UNL     1       2.361   3.582  22.036  0.00  0.00    +0.000 OA
ENDBRANCH   7   9
BRANCH   7  12
ATOM     12  C   UNL     1       3.084   3.310  18.594  0.00  0.00    +0.000 C 
BRANCH  12  13
ATOM     13  C   UNL     1       3.442   1.812  18.650  0.00  0.00    +0.000 C 
ATOM     14  F   UNL     1       2.406   1.015  18.975  0.00  0.00    +0.000 F 
ATOM     15  F   UNL     1       3.877   1.403  17.429  0.00  0.00    +0.000 F 
ATOM     16  F   UNL     1       4.442   1.572  19.525  0.00  0.00    +0.000 F 
ENDBRANCH  12  13
ENDBRANCH   7  12
ENDBRANCH   1   7
BRANCH   4  17
ATOM     17  C   UNL     1       5.673   3.892  15.623  0.00  0.00    +0.000 C 
BRANCH  17  18
ATOM     18  C   UNL     1       6.524   4.360  14.448  0.00  0.00    +0.000 A 
ATOM     19  C   UNL     1       7.544   5.297  14.721  0.00  0.00    +0.000 A 
ATOM     20  C   UNL     1       8.362   5.794  13.708  0.00  0.00    +0.000 A 
ATOM     21  C   UNL     1       8.170   5.368  12.403  0.00  0.00    +0.000 A 
ATOM     22  C   UNL     1       7.153   4.457  12.115  0.00  0.00    +0.000 A 
ATOM     23  C   UNL     1       6.307   3.922  13.111  0.00  0.00    +0.000 A 
BRANCH  23  24
ATOM     24  C   UNL     1       5.188   2.971  12.711  0.00  0.00    +0.000 C 
ATOM     25  C   UNL     1       4.312   3.229  11.498  0.00  0.00    +0.000 C 
ATOM     26  C   UNL     1       5.325   2.129  11.463  0.00  0.00    +0.000 C 
ENDBRANCH  23  24
ENDBRANCH  17  18
ENDBRANCH   4  17
TORSDOF 7
ENDMDL
MODEL 4
REMARK VINA RESULT:      -7.9      3.930      7.197
REMARK  Name = 
REMARK  8 active torsions:
REMARK  status: ('A' for Active; 'I' for Inactive)
REMARK    1  A    between atoms: C_1  and  S_2
REMARK    2  A    between atoms: S_2  and  N_5
REMARK    3  A    between atoms: N_5  and  C_6
REMARK    4  A    between atoms: N_5  and  C_11
REMARK    5  A    between atoms: C_6  and  C_7
REMARK    6  A    between atoms: N_14  and  C_15
REMARK    7  A    between atoms: C_15  and  C_16
REMARK    8  A    between atoms: C_21  and  C_22
REMARK                            x       y       z     vdW  Elec       q    Type
REMARK                         _______ _______ _______ _____ _____    ______ ____
ROOT
ATOM      1  C   UNL     1       4.414   5.506  19.198  0.00  0.00    +0.000 C 
ATOM      2  C   UNL     1       3.993   6.155  17.869  0.00  0.00    +0.000 C 
ATOM      3  C   UNL     1       4.311   5.273  16.658  0.00  0.00    +0.000 C 
ATOM      4  N   UNL     1       5.731   4.886  16.572  0.00  0.00    +0.000 NA
ATOM      5  C   UNL     1       6.215   4.336  17.845  0.00  0.00    +0.000 C 
ATOM      6  C   UNL     1       5.910   5.215  19.059  0.00  0.00    +0.000 C 
ENDROOT
BRANCH   1   7
ATOM      7  N   UNL     1       3.588   4.265  19.574  0.00  0.00    +0.000 NA
BRANCH   7   9
ATOM      8  C   UNL     1       2.028   3.442  21.727  0.00  0.00    +0.000 C 
ATOM      9  S   UNL     1       2.057   4.565  20.341  0.00  0.00    +0.000 S 
ATOM     10  O   UNL     1       1.022   4.129  19.434  0.00  0.00    +0.000 OA
ATOM     11  O   UNL     1       2.071   5.919  20.852  0.00  0.00    +0.000 OA
ENDBRANCH   7   9
BRANCH   7  12
ATOM     12  C   UNL     1       3.392   3.293  18.397  0.00  0.00    +0.000 C 
BRANCH  12  13
ATOM     13  C   UNL     1       3.542   1.787  18.692  0.00  0.00    +0.000 C 
ATOM     14  F   UNL     1       4.445   1.508  19.651  0.00  0.00    +0.000 F 
ATOM     15  F   UNL     1       2.354   1.288  19.121  0.00  0.00    +0.000 F 
ATOM     16  F   UNL     1       3.883   1.094  17.584  0.00  0.00    +0.000 F 
ENDBRANCH  12  13
ENDBRANCH   7  12
ENDBRANCH   1   7
BRANCH   4  17
ATOM     17  C   UNL     1       5.896   3.881  15.482  0.00  0.00    +0.000 C 
BRANCH  17  18
ATOM     18  C   UNL     1       6.651   4.377  14.254  0.00  0.00    +0.000 A 
ATOM     19  C   UNL     1       7.668   5.334  14.461  0.00  0.00    +0.000 A 
ATOM     20  C   UNL     1       8.401   5.856  13.398  0.00  0.00    +0.000 A 
ATOM     21  C   UNL     1       8.125   5.436  12.105  0.00  0.00    +0.000 A 
ATOM     22  C   UNL     1       7.109   4.506  11.882  0.00  0.00    +0.000 A 
ATOM     23  C   UNL     1       6.348   3.945  12.931  0.00  0.00    +0.000 A 
BRANCH  23  24
ATOM     24  C   UNL     1       5.224   2.972  12.603  0.00  0.00    +0.000 C 
ATOM     25  C   UNL     1       4.271   3.209  11.445  0.00  0.00    +0.000 C 
ATOM     26  C   UNL     1       5.299   2.127  11.352  0.00  0.00    +0.000 C 
ENDBRANCH  23  24
ENDBRANCH  17  18
ENDBRANCH   4  17
TORSDOF 7
ENDMDL
MODEL 5
REMARK VINA RESULT:      -7.9      2.840      3.846
REMARK  Name = 
REMARK  8 active torsions:
REMARK  status: ('A' for Active; 'I' for Inactive)
REMARK    1  A    between atoms: C_1  and  S_2
REMARK    2  A    between atoms: S_2  and  N_5
REMARK    3  A    between atoms: N_5  and  C_6
REMARK    4  A    between atoms: N_5  and  C_11
REMARK    5  A    between atoms: C_6  and  C_7
REMARK    6  A    between atoms: N_14  and  C_15
REMARK    7  A    between atoms: C_15  and  C_16
REMARK    8  A    between atoms: C_21  and  C_22
REMARK                            x       y       z     vdW  Elec       q    Type
REMARK                         _______ _______ _______ _____ _____    ______ ____
ROOT
ATOM      1  C   UNL     1       3.554   4.744  17.498  0.00  0.00    +0.000 C 
ATOM      2  C   UNL     1       3.895   6.139  16.946  0.00  0.00    +0.000 C 
ATOM      3  C   UNL     1       3.619   7.254  17.959  0.00  0.00    +0.000 C 
ATOM      4  N   UNL     1       2.231   7.262  18.457  0.00  0.00    +0.000 NA
ATOM      5  C   UNL     1       1.819   5.930  18.920  0.00  0.00    +0.000 C 
ATOM      6  C   UNL     1       2.083   4.811  17.911  0.00  0.00    +0.000 C 
ENDROOT
BRANCH   1   7
ATOM      7  N   UNL     1       4.481   4.280  18.633  0.00  0.00    +0.000 NA
BRANCH   7   9
ATOM      8  C   UNL     1       3.519   1.715  18.141  0.00  0.00    +0.000 C 
ATOM      9  S   UNL     1       4.022   2.816  19.452  0.00  0.00    +0.000 S 
ATOM     10  O   UNL     1       2.838   3.103  20.227  0.00  0.00    +0.000 OA
ATOM     11  O   UNL     1       5.204   2.267  20.080  0.00  0.00    +0.000 OA
ENDBRANCH   7   9
BRANCH   7  12
ATOM     12  C   UNL     1       5.958   4.187  18.205  0.00  0.00    +0.000 C 
BRANCH  12  13
ATOM     13  C   UNL     1       6.905   5.302  18.690  0.00  0.00    +0.000 C 
ATOM     14  F   UNL     1       6.821   6.439  17.973  0.00  0.00    +0.000 F 
ATOM     15  F   UNL     1       6.602   5.630  19.973  0.00  0.00    +0.000 F 
ATOM     16  F   UNL     1       8.194   4.898  18.681  0.00  0.00    +0.000 F 
ENDBRANCH  12  13
ENDBRANCH   7  12
ENDBRANCH   1   7
BRANCH   4  17
ATOM     17  C   UNL     1       2.119   8.250  19.570  0.00  0.00    +0.000 C 
BRANCH  17  18
ATOM     18  C   UNL     1       0.948   9.221  19.458  0.00  0.00    +0.000 A 
ATOM     19  C   UNL     1       0.784   9.899  18.230  0.00  0.00    +0.000 A 
ATOM     20  C   UNL     1      -0.247  10.815  18.039  0.00  0.00    +0.000 A 
ATOM     21  C   UNL     1      -1.130  11.077  19.076  0.00  0.00    +0.000 A 
ATOM     22  C   UNL     1      -0.968  10.430  20.302  0.00  0.00    +0.000 A 
ATOM     23  C   UNL     1       0.057   9.488  20.535  0.00  0.00    +0.000 A 
BRANCH  23  24
ATOM     24  C   UNL     1       0.198   8.860  21.915  0.00  0.00    +0.000 C 
ATOM     25  C   UNL     1       1.189   9.388  22.938  0.00  0.00    +0.000 C 
ATOM     26  C   UNL     1      -0.276   9.613  23.137  0.00  0.00    +0.000 C 
ENDBRANCH  23  24
ENDBRANCH  17  18
ENDBRANCH   4  17
TORSDOF 7
ENDMDL
MODEL 6
REMARK VINA RESULT:      -7.9      6.043      8.182
REMARK  Name = 
REMARK  8 active torsions:
REMARK  status: ('A' for Active; 'I' for Inactive)
REMARK    1  A    between atoms: C_1  and  S_2
REMARK    2  A    between atoms: S_2  and  N_5
REMARK    3  A    between atoms: N_5  and  C_6
REMARK    4  A    between atoms: N_5  and  C_11
REMARK    5  A    between atoms: C_6  and  C_7
REMARK    6  A    between atoms: N_14  and  C_15
REMARK    7  A    between atoms: C_15  and  C_16
REMARK    8  A    between atoms: C_21  and  C_22
REMARK                            x       y       z     vdW  Elec       q    Type
REMARK                         _______ _______ _______ _____ _____    ______ ____
ROOT
ATOM      1  C   UNL     1       0.570  11.609  19.834  0.00  0.00    +0.000 C 
ATOM      2  C   UNL     1       1.461  11.391  18.599  0.00  0.00    +0.000 C 
ATOM      3  C   UNL     1       1.456   9.936  18.122  0.00  0.00    +0.000 C 
ATOM      4  N   UNL     1       1.846   8.975  19.170  0.00  0.00    +0.000 NA
ATOM      5  C   UNL     1       1.085   9.191  20.407  0.00  0.00    +0.000 C 
ATOM      6  C   UNL     1       1.092  10.641  20.896  0.00  0.00    +0.000 C 
ENDROOT
BRANCH   1   7
ATOM      7  N   UNL     1      -0.933  11.448  19.553  0.00  0.00    +0.000 NA
BRANCH   7   9
ATOM      8  C   UNL     1      -1.277  14.033  20.525  0.00  0.00    +0.000 C 
ATOM      9  S   UNL     1      -2.005  12.404  20.533  0.00  0.00    +0.000 S 
ATOM     10  O   UNL     1      -1.910  11.916  21.888  0.00  0.00    +0.000 OA
ATOM     11  O   UNL     1      -3.283  12.474  19.858  0.00  0.00    +0.000 OA
ENDBRANCH   7   9
BRANCH   7  12
ATOM     12  C   UNL     1      -1.291  11.634  18.067  0.00  0.00    +0.000 C 
BRANCH  12  13
ATOM     13  C   UNL     1      -2.088  10.504  17.386  0.00  0.00    +0.000 C 
ATOM     14  F   UNL     1      -3.057  10.943  16.560  0.00  0.00    +0.000 F 
ATOM     15  F   UNL     1      -1.249   9.747  16.632  0.00  0.00    +0.000 F 
ATOM     16  F   UNL     1      -2.656   9.680  18.293  0.00  0.00    +0.000 F 
ENDBRANCH  12  13
ENDBRANCH   7  12
ENDBRANCH   1   7
BRANCH   4  17
ATOM     17  C   UNL     1       1.623   7.588  18.665  0.00  0.00    +0.000 C 
BRANCH  17  18
ATOM     18  C   UNL     1       2.861   6.698  18.650  0.00  0.00    +0.000 A 
ATOM     19  C   UNL     1       3.821   6.942  17.644  0.00  0.00    +0.000 A 
ATOM     20  C   UNL     1       4.977   6.171  17.541  0.00  0.00    +0.000 A 
ATOM     21  C   UNL     1       5.190   5.135  18.439  0.00  0.00    +0.000 A 
ATOM     22  C   UNL     1       4.240   4.869  19.426  0.00  0.00    +0.000 A 
ATOM     23  C   UNL     1       3.060   5.632  19.571  0.00  0.00    +0.000 A 
BRANCH  23  24
ATOM     24  C   UNL     1       2.049   5.249  20.643  0.00  0.00    +0.000 C 
ATOM     25  C   UNL     1       0.990   4.188  20.402  0.00  0.00    +0.000 C 
ATOM     26  C   UNL     1       2.138   3.898  21.315  0.00  0.00    +0.000 C 
ENDBRANCH  23  24
ENDBRANCH  17  18
ENDBRANCH   4  17
TORSDOF 7
ENDMDL
MODEL 7
REMARK VINA RESULT:      -7.8      3.613      4.803
REMARK  Name = 
REMARK  8 active torsions:
REMARK  status: ('A' for Active; 'I' for Inactive)
REMARK    1  A    between atoms: C_1  and  S_2
REMARK    2  A    between atoms: S_2  and  N_5
REMARK    3  A    between atoms: N_5  and  C_6
REMARK    4  A    between atoms: N_5  and  C_11
REMARK    5  A    between atoms: C_6  and  C_7
REMARK    6  A    between atoms: N_14  and  C_15
REMARK    7  A    between atoms: C_15  and  C_16
REMARK    8  A    between atoms: C_21  and  C_22
REMARK                            x       y       z     vdW  Elec       q    Type
REMARK                         _______ _______ _______ _____ _____    ______ ____
ROOT
ATOM      1  C   UNL     1       4.000   5.237  19.038  0.00  0.00    +0.000 C 
ATOM      2  C   UNL     1       3.622   6.172  20.200  0.00  0.00    +0.000 C 
ATOM      3  C   UNL     1       2.449   7.094  19.853  0.00  0.00    +0.000 C 
ATOM      4  N   UNL     1       2.680   7.904  18.642  0.00  0.00    +0.000 NA
ATOM      5  C   UNL     1       3.128   7.071  17.518  0.00  0.00    +0.000 C 
ATOM      6  C   UNL     1       4.305   6.153  17.853  0.00  0.00    +0.000 C 
ENDROOT
BRANCH   1   7
ATOM      7  N   UNL     1       2.936   4.173  18.724  0.00  0.00    +0.000 NA
BRANCH   7   9
ATOM      8  C   UNL     1       3.504   1.502  18.189  0.00  0.00    +0.000 C 
ATOM      9  S   UNL     1       3.293   3.093  17.409  0.00  0.00    +0.000 S 
ATOM     10  O   UNL     1       4.582   3.465  16.876  0.00  0.00    +0.000 OA
ATOM     11  O   UNL     1       2.128   3.029  16.554  0.00  0.00    +0.000 OA
ENDBRANCH   7   9
BRANCH   7  12
ATOM     12  C   UNL     1       2.516   3.357  19.960  0.00  0.00    +0.000 C 
BRANCH  12  13
ATOM     13  C   UNL     1       1.016   3.332  20.315  0.00  0.00    +0.000 C 
ATOM     14  F   UNL     1       0.449   4.552  20.365  0.00  0.00    +0.000 F 
ATOM     15  F   UNL     1       0.338   2.627  19.373  0.00  0.00    +0.000 F 
ATOM     16  F   UNL     1       0.795   2.722  21.499  0.00  0.00    +0.000 F 
ENDBRANCH  12  13
ENDBRANCH   7  12
ENDBRANCH   1   7
BRANCH   4  17
ATOM     17  C   UNL     1       1.417   8.614  18.285  0.00  0.00    +0.000 C 
BRANCH  17  18
ATOM     18  C   UNL     1       1.352  10.074  18.718  0.00  0.00    +0.000 A 
ATOM     19  C   UNL     1       2.086  11.010  17.957  0.00  0.00    +0.000 A 
ATOM     20  C   UNL     1       2.099  12.363  18.286  0.00  0.00    +0.000 A 
ATOM     21  C   UNL     1       1.383  12.806  19.388  0.00  0.00    +0.000 A 
ATOM     22  C   UNL     1       0.669  11.891  20.162  0.00  0.00    +0.000 A 
ATOM     23  C   UNL     1       0.622  10.512  19.859  0.00  0.00    +0.000 A 
BRANCH  23  24
ATOM     24  C   UNL     1      -0.140   9.569  20.780  0.00  0.00    +0.000 C 
ATOM     25  C   UNL     1       0.489   8.995  22.037  0.00  0.00    +0.000 C 
ATOM     26  C   UNL     1      -0.575  10.040  22.149  0.00  0.00    +0.000 C 
ENDBRANCH  23  24
ENDBRANCH  17  18
ENDBRANCH   4  17
TORSDOF 7
ENDMDL
MODEL 8
REMARK VINA RESULT:      -7.8      3.960      5.263
REMARK  Name = 
REMARK  8 active torsions:
REMARK  status: ('A' for Active; 'I' for Inactive)
REMARK    1  A    between atoms: C_1  and  S_2
REMARK    2  A    between atoms: S_2  and  N_5
REMARK    3  A    between atoms: N_5  and  C_6
REMARK    4  A    between atoms: N_5  and  C_11
REMARK    5  A    between atoms: C_6  and  C_7
REMARK    6  A    between atoms: N_14  and  C_15
REMARK    7  A    between atoms: C_15  and  C_16
REMARK    8  A    between atoms: C_21  and  C_22
REMARK                            x       y       z     vdW  Elec       q    Type
REMARK                         _______ _______ _______ _____ _____    ______ ____
ROOT
ATOM      1  C   UNL     1       3.763   5.502  19.269  0.00  0.00    +0.000 C 
ATOM      2  C   UNL     1       3.100   6.497  20.237  0.00  0.00    +0.000 C 
ATOM      3  C   UNL     1       1.949   7.271  19.587  0.00  0.00    +0.000 C 
ATOM      4  N   UNL     1       2.345   7.988  18.360  0.00  0.00    +0.000 NA
ATOM      5  C   UNL     1       3.060   7.104  17.430  0.00  0.00    +0.000 C 
ATOM      6  C   UNL     1       4.218   6.335  18.069  0.00  0.00    +0.000 C 
ENDROOT
BRANCH   1   7
ATOM      7  N   UNL     1       2.862   4.320  18.878  0.00  0.00    +0.000 NA
BRANCH   7   9
ATOM      8  C   UNL     1       3.443   1.680  18.215  0.00  0.00    +0.000 C 
ATOM      9  S   UNL     1       3.413   3.337  17.554  0.00  0.00    +0.000 S 
ATOM     10  O   UNL     1       4.784   3.699  17.283  0.00  0.00    +0.000 OA
ATOM     11  O   UNL     1       2.412   3.393  16.510  0.00  0.00    +0.000 OA
ENDBRANCH   7   9
BRANCH   7  12
ATOM     12  C   UNL     1       2.502   3.417  20.073  0.00  0.00    +0.000 C 
BRANCH  12  13
ATOM     13  C   UNL     1       1.015   3.329  20.470  0.00  0.00    +0.000 C 
ATOM     14  F   UNL     1       0.408   4.526  20.574  0.00  0.00    +0.000 F 
ATOM     15  F   UNL     1       0.334   2.629  19.526  0.00  0.00    +0.000 F 
ATOM     16  F   UNL     1       0.850   2.675  21.640  0.00  0.00    +0.000 F 
ENDBRANCH  12  13
ENDBRANCH   7  12
ENDBRANCH   1   7
BRANCH   4  17
ATOM     17  C   UNL     1       1.123   8.542  17.706  0.00  0.00    +0.000 C 
BRANCH  17  18
ATOM     18  C   UNL     1       0.690   9.916  18.203  0.00  0.00    +0.000 A 
ATOM     19  C   UNL     1       1.638  10.672  18.926  0.00  0.00    +0.000 A 
ATOM     20  C   UNL     1       1.328  11.932  19.432  0.00  0.00    +0.000 A 
ATOM     21  C   UNL     1       0.060  12.456  19.234  0.00  0.00    +0.000 A 
ATOM     22  C   UNL     1      -0.895  11.712  18.539  0.00  0.00    +0.000 A 
ATOM     23  C   UNL     1      -0.620  10.436  18.001  0.00  0.00    +0.000 A 
BRANCH  23  24
ATOM     24  C   UNL     1      -1.729   9.665  17.298  0.00  0.00    +0.000 C 
ATOM     25  C   UNL     1      -3.196   9.932  17.583  0.00  0.00    +0.000 C 
ATOM     26  C   UNL     1      -2.602  10.362  16.279  0.00  0.00    +0.000 C 
ENDBRANCH  23  24
ENDBRANCH  17  18
ENDBRANCH   4  17
TORSDOF 7
ENDMDL
MODEL 9
REMARK VINA RESULT:      -7.7      2.526      4.291
REMARK  Name = 
REMARK  8 active torsions:
REMARK  status: ('A' for Active; 'I' for Inactive)
REMARK    1  A    between atoms: C_1  and  S_2
REMARK    2  A    between atoms: S_2  and  N_5
REMARK    3  A    between atoms: N_5  and  C_6
REMARK    4  A    between atoms: N_5  and  C_11
REMARK    5  A    between atoms: C_6  and  C_7
REMARK    6  A    between atoms: N_14  and  C_15
REMARK    7  A    between atoms: C_15  and  C_16
REMARK    8  A    between atoms: C_21  and  C_22
REMARK                            x       y       z     vdW  Elec       q    Type
REMARK                         _______ _______ _______ _____ _____    ______ ____
ROOT
ATOM      1  C   UNL     1       2.172   4.768  18.818  0.00  0.00    +0.000 C 
ATOM      2  C   UNL     1       2.181   6.164  18.170  0.00  0.00    +0.000 C 
ATOM      3  C   UNL     1       2.417   7.282  19.189  0.00  0.00    +0.000 C 
ATOM      4  N   UNL     1       1.447   7.276  20.300  0.00  0.00    +0.000 NA
ATOM      5  C   UNL     1       1.333   5.942  20.905  0.00  0.00    +0.000 C 
ATOM      6  C   UNL     1       1.088   4.820  19.895  0.00  0.00    +0.000 C 
ENDROOT
BRANCH   1   7
ATOM      7  N   UNL     1       3.541   4.324  19.357  0.00  0.00    +0.000 NA
BRANCH   7   9
ATOM      8  C   UNL     1       2.907   2.552  21.408  0.00  0.00    +0.000 C 
ATOM      9  S   UNL     1       3.685   2.650  19.805  0.00  0.00    +0.000 S 
ATOM     10  O   UNL     1       5.087   2.371  20.009  0.00  0.00    +0.000 OA
ATOM     11  O   UNL     1       2.902   1.869  18.871  0.00  0.00    +0.000 OA
ENDBRANCH   7   9
BRANCH   7  12
ATOM     12  C   UNL     1       4.709   4.710  18.430  0.00  0.00    +0.000 C 
BRANCH  12  13
ATOM     13  C   UNL     1       4.649   4.208  16.973  0.00  0.00    +0.000 C 
ATOM     14  F   UNL     1       3.466   3.662  16.634  0.00  0.00    +0.000 F 
ATOM     15  F   UNL     1       4.853   5.249  16.125  0.00  0.00    +0.000 F 
ATOM     16  F   UNL     1       5.615   3.298  16.720  0.00  0.00    +0.000 F 
ENDBRANCH  12  13
ENDBRANCH   7  12
ENDBRANCH   1   7
BRANCH   4  17
ATOM     17  C   UNL     1       1.877   8.270  21.327  0.00  0.00    +0.000 C 
BRANCH  17  18
ATOM     18  C   UNL     1       0.838   9.330  21.676  0.00  0.00    +0.000 A 
ATOM     19  C   UNL     1       0.190   9.215  22.925  0.00  0.00    +0.000 A 
ATOM     20  C   UNL     1      -0.783  10.128  23.324  0.00  0.00    +0.000 A 
ATOM     21  C   UNL     1      -1.134  11.168  22.477  0.00  0.00    +0.000 A 
ATOM     22  C   UNL     1      -0.518  11.283  21.231  0.00  0.00    +0.000 A 
ATOM     23  C   UNL     1       0.480  10.386  20.790  0.00  0.00    +0.000 A 
BRANCH  23  24
ATOM     24  C   UNL     1       1.071  10.548  19.397  0.00  0.00    +0.000 C 
ATOM     25  C   UNL     1       0.377   9.998  18.163  0.00  0.00    +0.000 C 
ATOM     26  C   UNL     1       0.410  11.474  18.401  0.00  0.00    +0.000 C 
ENDBRANCH  23  24
ENDBRANCH  17  18
ENDBRANCH   4  17
TORSDOF 7
ENDMDL
