MODEL 1
REMARK VINA RESULT:      -8.9      0.000      0.000
REMARK  Name = 
REMARK  7 active torsions:
REMARK  status: ('A' for Active; 'I' for Inactive)
REMARK    1  A    between atoms: C_1  and  C_2
REMARK    2  A    between atoms: C_5  and  N_6
REMARK    3  A    between atoms: C_7  and  C_9
REMARK    4  A    between atoms: C_14  and  O_15
REMARK    5  A    between atoms: O_15  and  C_16
REMARK    6  A    between atoms: C_23  and  S_24
REMARK    7  A    between atoms: S_24  and  N_27
REMARK                            x       y       z     vdW  Elec       q    Type
REMARK                         _______ _______ _______ _____ _____    ______ ____
ROOT
ATOM      1  N   UNL     1       0.533   9.391  21.277  0.00  0.00    +0.000 N 
ATOM      2  C   UNL     1       0.144  10.692  21.546  0.00  0.00    +0.000 C 
ATOM      3  O   UNL     1      -0.260  10.955  22.684  0.00  0.00    +0.000 OA
ATOM      4  H   UNL     1       0.231   8.758  22.010  0.00  0.00    +0.000 HD
ENDROOT
BRANCH   1   9
ATOM      5  C   UNL     1       3.648   7.208  17.000  0.00  0.00    +0.000 C 
ATOM      6  C   UNL     1       2.747   7.643  18.116  0.00  0.00    +0.000 A 
ATOM      7  C   UNL     1       2.110   8.880  17.952  0.00  0.00    +0.000 A 
ATOM      8  C   UNL     1       1.428   9.482  19.000  0.00  0.00    +0.000 A 
ATOM      9  C   UNL     1       1.255   8.822  20.211  0.00  0.00    +0.000 A 
ATOM     10  C   UNL     1       1.837   7.549  20.376  0.00  0.00    +0.000 A 
ATOM     11  C   UNL     1       2.573   6.952  19.327  0.00  0.00    +0.000 A 
BRANCH  11  12
ATOM     12  S   UNL     1       3.361   5.357  19.623  0.00  0.00    +0.000 S 
ATOM     13  O   UNL     1       4.786   5.589  19.544  0.00  0.00    +0.000 OA
ATOM     14  O   UNL     1       2.760   4.795  20.817  0.00  0.00    +0.000 OA
BRANCH  12  15
ATOM     15  N   UNL     1       2.896   4.376  18.338  0.00  0.00    +0.000 NA
ATOM     16  C   UNL     1       1.473   4.093  18.062  0.00  0.00    +0.000 C 
ATOM     17  C   UNL     1       1.151   2.634  18.420  0.00  0.00    +0.000 C 
ATOM     18  O   UNL     1       1.998   1.726  17.697  0.00  0.00    +0.000 OA
ATOM     19  C   UNL     1       3.381   1.946  18.010  0.00  0.00    +0.000 C 
ATOM     20  C   UNL     1       3.818   3.388  17.722  0.00  0.00    +0.000 C 
ENDBRANCH  12  15
ENDBRANCH  11  12
ENDBRANCH   1   9
BRANCH   2  21
ATOM     21  C   UNL     1       0.137  11.805  20.548  0.00  0.00    +0.000 A 
ATOM     22  C   UNL     1       1.278  12.635  20.553  0.00  0.00    +0.000 A 
ATOM     23  C   UNL     1       1.419  13.687  19.642  0.00  0.00    +0.000 A 
ATOM     24  C   UNL     1       0.425  13.925  18.700  0.00  0.00    +0.000 A 
ATOM     25  C   UNL     1      -0.729  13.146  18.710  0.00  0.00    +0.000 A 
ATOM     26  C   UNL     1      -0.907  12.124  19.660  0.00  0.00    +0.000 A 
BRANCH  26  27
ATOM     27  O   UNL     1      -2.100  11.458  19.507  0.00  0.00    +0.000 OA
BRANCH  27  28
ATOM     28  C   UNL     1      -2.536  11.062  18.268  0.00  0.00    +0.000 A 
ATOM     29  C   UNL     1      -1.873  10.169  17.428  0.00  0.00    +0.000 A 
ATOM     30  C   UNL     1      -2.389   9.899  16.162  0.00  0.00    +0.000 A 
ATOM     31  C   UNL     1      -3.578  10.498  15.744  0.00  0.00    +0.000 A 
ATOM     32  C   UNL     1      -4.268  11.348  16.596  0.00  0.00    +0.000 A 
ATOM     33  C   UNL     1      -3.751  11.627  17.860  0.00  0.00    +0.000 A 
ENDBRANCH  27  28
ENDBRANCH  26  27
ENDBRANCH   2  21
TORSDOF 6
ENDMDL
MODEL 2
REMARK VINA RESULT:      -8.4      2.566      8.456
REMARK  Name = 
REMARK  7 active torsions:
REMARK  status: ('A' for Active; 'I' for Inactive)
REMARK    1  A    between atoms: C_1  and  C_2
REMARK    2  A    between atoms: C_5  and  N_6
REMARK    3  A    between atoms: C_7  and  C_9
REMARK    4  A    between atoms: C_14  and  O_15
REMARK    5  A    between atoms: O_15  and  C_16
REMARK    6  A    between atoms: C_23  and  S_24
REMARK    7  A    between atoms: S_24  and  N_27
REMARK                            x       y       z     vdW  Elec       q    Type
REMARK                         _______ _______ _______ _____ _____    ______ ____
ROOT
ATOM      1  N   UNL     1       3.582   7.205  16.488  0.00  0.00    +0.000 N 
ATOM      2  C   UNL     1       4.873   6.834  16.154  0.00  0.00    +0.000 C 
ATOM      3  O   UNL     1       5.204   6.883  14.964  0.00  0.00    +0.000 OA
ATOM      4  H   UNL     1       2.995   7.272  15.663  0.00  0.00    +0.000 HD
ENDROOT
BRANCH   1   9
ATOM      5  C   UNL     1       1.316   8.463  21.591  0.00  0.00    +0.000 C 
ATOM      6  C   UNL     1       1.767   8.172  20.191  0.00  0.00    +0.000 A 
ATOM      7  C   UNL     1       2.319   6.904  19.968  0.00  0.00    +0.000 A 
ATOM      8  C   UNL     1       2.961   6.599  18.776  0.00  0.00    +0.000 A 
ATOM      9  C   UNL     1       2.974   7.503  17.721  0.00  0.00    +0.000 A 
ATOM     10  C   UNL     1       2.370   8.763  17.904  0.00  0.00    +0.000 A 
ATOM     11  C   UNL     1       1.755   9.096  19.133  0.00  0.00    +0.000 A 
BRANCH  11  12
ATOM     12  S   UNL     1       1.068  10.752  19.335  0.00  0.00    +0.000 S 
ATOM     13  O   UNL     1       1.435  11.182  20.667  0.00  0.00    +0.000 OA
ATOM     14  O   UNL     1       1.453  11.523  18.169  0.00  0.00    +0.000 OA
BRANCH  12  15
ATOM     15  N   UNL     1      -0.601  10.562  19.263  0.00  0.00    +0.000 NA
ATOM     16  C   UNL     1      -1.276  10.155  18.014  0.00  0.00    +0.000 C 
ATOM     17  C   UNL     1      -2.057  11.343  17.432  0.00  0.00    +0.000 C 
ATOM     18  O   UNL     1      -3.009  11.850  18.380  0.00  0.00    +0.000 OA
ATOM     19  C   UNL     1      -2.359  12.313  19.572  0.00  0.00    +0.000 C 
ATOM     20  C   UNL     1      -1.515  11.216  20.234  0.00  0.00    +0.000 C 
ENDBRANCH  12  15
ENDBRANCH  11  12
ENDBRANCH   1   9
BRANCH   2  21
ATOM     21  C   UNL     1       5.896   6.335  17.124  0.00  0.00    +0.000 A 
ATOM     22  C   UNL     1       6.780   7.311  17.632  0.00  0.00    +0.000 A 
ATOM     23  C   UNL     1       7.757   6.988  18.579  0.00  0.00    +0.000 A 
ATOM     24  C   UNL     1       7.863   5.683  19.047  0.00  0.00    +0.000 A 
ATOM     25  C   UNL     1       7.031   4.697  18.522  0.00  0.00    +0.000 A 
ATOM     26  C   UNL     1       6.086   5.000  17.526  0.00  0.00    +0.000 A 
BRANCH  26  27
ATOM     27  O   UNL     1       5.349   3.905  17.142  0.00  0.00    +0.000 OA
BRANCH  27  28
ATOM     28  C   UNL     1       4.201   3.555  17.806  0.00  0.00    +0.000 A 
ATOM     29  C   UNL     1       2.932   3.482  17.236  0.00  0.00    +0.000 A 
ATOM     30  C   UNL     1       1.832   3.178  18.037  0.00  0.00    +0.000 A 
ATOM     31  C   UNL     1       2.002   2.920  19.398  0.00  0.00    +0.000 A 
ATOM     32  C   UNL     1       3.270   2.941  19.958  0.00  0.00    +0.000 A 
ATOM     33  C   UNL     1       4.371   3.253  19.164  0.00  0.00    +0.000 A 
ENDBRANCH  27  28
ENDBRANCH  26  27
ENDBRANCH   2  21
TORSDOF 6
ENDMDL
MODEL 3
REMARK VINA RESULT:      -8.3      2.280      3.812
REMARK  Name = 
REMARK  7 active torsions:
REMARK  status: ('A' for Active; 'I' for Inactive)
REMARK    1  A    between atoms: C_1  and  C_2
REMARK    2  A    between atoms: C_5  and  N_6
REMARK    3  A    between atoms: C_7  and  C_9
REMARK    4  A    between atoms: C_14  and  O_15
REMARK    5  A    between atoms: O_15  and  C_16
REMARK    6  A    between atoms: C_23  and  S_24
REMARK    7  A    between atoms: S_24  and  N_27
REMARK                            x       y       z     vdW  Elec       q    Type
REMARK                         _______ _______ _______ _____ _____    ______ ____
ROOT
ATOM      1  N   UNL     1       2.661   8.485  17.744  0.00  0.00    +0.000 N 
ATOM      2  C   UNL     1       1.942   9.515  18.325  0.00  0.00    +0.000 C 
ATOM      3  O   UNL     1       1.996  10.632  17.800  0.00  0.00    +0.000 OA
ATOM      4  H   UNL     1       3.324   8.840  17.063  0.00  0.00    +0.000 HD
ENDROOT
BRANCH   1   9
ATOM      5  C   UNL     1       2.530   2.784  18.234  0.00  0.00    +0.000 C 
ATOM      6  C   UNL     1       2.619   4.281  18.257  0.00  0.00    +0.000 A 
ATOM      7  C   UNL     1       1.453   4.977  17.915  0.00  0.00    +0.000 A 
ATOM      8  C   UNL     1       1.472   6.346  17.694  0.00  0.00    +0.000 A 
ATOM      9  C   UNL     1       2.624   7.090  17.921  0.00  0.00    +0.000 A 
ATOM     10  C   UNL     1       3.794   6.416  18.325  0.00  0.00    +0.000 A 
ATOM     11  C   UNL     1       3.792   5.014  18.506  0.00  0.00    +0.000 A 
BRANCH  11  12
ATOM     12  S   UNL     1       5.338   4.197  18.948  0.00  0.00    +0.000 S 
ATOM     13  O   UNL     1       6.025   5.093  19.852  0.00  0.00    +0.000 OA
ATOM     14  O   UNL     1       5.010   2.842  19.346  0.00  0.00    +0.000 OA
BRANCH  12  15
ATOM     15  N   UNL     1       6.216   4.084  17.519  0.00  0.00    +0.000 NA
ATOM     16  C   UNL     1       7.504   4.789  17.350  0.00  0.00    +0.000 C 
ATOM     17  C   UNL     1       7.334   5.959  16.369  0.00  0.00    +0.000 C 
ATOM     18  O   UNL     1       6.835   5.503  15.102  0.00  0.00    +0.000 OA
ATOM     19  C   UNL     1       5.551   4.877  15.243  0.00  0.00    +0.000 C 
ATOM     20  C   UNL     1       5.585   3.703  16.230  0.00  0.00    +0.000 C 
ENDBRANCH  12  15
ENDBRANCH  11  12
ENDBRANCH   1   9
BRANCH   2  21
ATOM     21  C   UNL     1       1.128   9.390  19.573  0.00  0.00    +0.000 A 
ATOM     22  C   UNL     1       1.545   8.387  20.474  0.00  0.00    +0.000 A 
ATOM     23  C   UNL     1       0.898   8.192  21.699  0.00  0.00    +0.000 A 
ATOM     24  C   UNL     1      -0.172   9.004  22.054  0.00  0.00    +0.000 A 
ATOM     25  C   UNL     1      -0.628   9.968  21.158  0.00  0.00    +0.000 A 
ATOM     26  C   UNL     1      -0.022  10.133  19.899  0.00  0.00    +0.000 A 
BRANCH  26  27
ATOM     27  O   UNL     1      -0.599  11.138  19.160  0.00  0.00    +0.000 OA
BRANCH  27  28
ATOM     28  C   UNL     1      -1.645  10.882  18.311  0.00  0.00    +0.000 A 
ATOM     29  C   UNL     1      -1.620   9.975  17.253  0.00  0.00    +0.000 A 
ATOM     30  C   UNL     1      -2.732   9.855  16.421  0.00  0.00    +0.000 A 
ATOM     31  C   UNL     1      -3.876  10.618  16.659  0.00  0.00    +0.000 A 
ATOM     32  C   UNL     1      -3.923  11.484  17.741  0.00  0.00    +0.000 A 
ATOM     33  C   UNL     1      -2.811  11.614  18.571  0.00  0.00    +0.000 A 
ENDBRANCH  27  28
ENDBRANCH  26  27
ENDBRANCH   2  21
TORSDOF 6
ENDMDL
MODEL 4
REMARK VINA RESULT:      -8.3      3.110      8.608
REMARK  Name = 
REMARK  7 active torsions:
REMARK  status: ('A' for Active; 'I' for Inactive)
REMARK    1  A    between atoms: C_1  and  C_2
REMARK    2  A    between atoms: C_5  and  N_6
REMARK    3  A    between atoms: C_7  and  C_9
REMARK    4  A    between atoms: C_14  and  O_15
REMARK    5  A    between atoms: O_15  and  C_16
REMARK    6  A    between atoms: C_23  and  S_24
REMARK    7  A    between atoms: S_24  and  N_27
REMARK                            x       y       z     vdW  Elec       q    Type
REMARK                         _______ _______ _______ _____ _____    ______ ____
ROOT
ATOM      1  N   UNL     1       3.627   7.133  16.514  0.00  0.00    +0.000 N 
ATOM      2  C   UNL     1       4.930   6.808  16.178  0.00  0.00    +0.000 C 
ATOM      3  O   UNL     1       5.261   6.887  14.990  0.00  0.00    +0.000 OA
ATOM      4  H   UNL     1       3.039   7.195  15.689  0.00  0.00    +0.000 HD
ENDROOT
BRANCH   1   9
ATOM      5  C   UNL     1       1.298   8.295  21.611  0.00  0.00    +0.000 C 
ATOM      6  C   UNL     1       1.758   7.983  20.219  0.00  0.00    +0.000 A 
ATOM      7  C   UNL     1       2.626   6.892  20.083  0.00  0.00    +0.000 A 
ATOM      8  C   UNL     1       3.282   6.640  18.887  0.00  0.00    +0.000 A 
ATOM      9  C   UNL     1       3.007   7.392  17.751  0.00  0.00    +0.000 A 
ATOM     10  C   UNL     1       2.090   8.457  17.852  0.00  0.00    +0.000 A 
ATOM     11  C   UNL     1       1.455   8.747  19.080  0.00  0.00    +0.000 A 
BRANCH  11  12
ATOM     12  S   UNL     1       0.350  10.171  19.168  0.00  0.00    +0.000 S 
ATOM     13  O   UNL     1      -0.165  10.366  17.830  0.00  0.00    +0.000 OA
ATOM     14  O   UNL     1      -0.545   9.953  20.288  0.00  0.00    +0.000 OA
BRANCH  12  15
ATOM     15  N   UNL     1       1.326  11.478  19.573  0.00  0.00    +0.000 NA
ATOM     16  C   UNL     1       1.107  12.246  20.815  0.00  0.00    +0.000 C 
ATOM     17  C   UNL     1       0.537  13.633  20.478  0.00  0.00    +0.000 C 
ATOM     18  O   UNL     1       1.409  14.347  19.588  0.00  0.00    +0.000 OA
ATOM     19  C   UNL     1       1.576  13.644  18.349  0.00  0.00    +0.000 C 
ATOM     20  C   UNL     1       2.114  12.223  18.558  0.00  0.00    +0.000 C 
ENDBRANCH  12  15
ENDBRANCH  11  12
ENDBRANCH   1   9
BRANCH   2  21
ATOM     21  C   UNL     1       5.966   6.326  17.141  0.00  0.00    +0.000 A 
ATOM     22  C   UNL     1       6.874   7.304  17.598  0.00  0.00    +0.000 A 
ATOM     23  C   UNL     1       7.867   6.998  18.535  0.00  0.00    +0.000 A 
ATOM     24  C   UNL     1       7.965   5.708  19.043  0.00  0.00    +0.000 A 
ATOM     25  C   UNL     1       7.107   4.718  18.569  0.00  0.00    +0.000 A 
ATOM     26  C   UNL     1       6.145   5.002  17.584  0.00  0.00    +0.000 A 
BRANCH  26  27
ATOM     27  O   UNL     1       5.385   3.906  17.252  0.00  0.00    +0.000 OA
BRANCH  27  28
ATOM     28  C   UNL     1       4.296   3.545  18.005  0.00  0.00    +0.000 A 
ATOM     29  C   UNL     1       4.331   3.193  19.353  0.00  0.00    +0.000 A 
ATOM     30  C   UNL     1       3.161   2.780  19.988  0.00  0.00    +0.000 A 
ATOM     31  C   UNL     1       1.954   2.745  19.288  0.00  0.00    +0.000 A 
ATOM     32  C   UNL     1       1.906   3.143  17.960  0.00  0.00    +0.000 A 
ATOM     33  C   UNL     1       3.074   3.549  17.319  0.00  0.00    +0.000 A 
ENDBRANCH  27  28
ENDBRANCH  26  27
ENDBRANCH   2  21
TORSDOF 6
ENDMDL
MODEL 5
REMARK VINA RESULT:      -8.2      2.369      8.599
REMARK  Name = 
REMARK  7 active torsions:
REMARK  status: ('A' for Active; 'I' for Inactive)
REMARK    1  A    between atoms: C_1  and  C_2
REMARK    2  A    between atoms: C_5  and  N_6
REMARK    3  A    between atoms: C_7  and  C_9
REMARK    4  A    between atoms: C_14  and  O_15
REMARK    5  A    between atoms: O_15  and  C_16
REMARK    6  A    between atoms: C_23  and  S_24
REMARK    7  A    between atoms: S_24  and  N_27
REMARK                            x       y       z     vdW  Elec       q    Type
REMARK                         _______ _______ _______ _____ _____    ______ ____
ROOT
ATOM      1  N   UNL     1       2.142   5.701  21.251  0.00  0.00    +0.000 N 
ATOM      2  C   UNL     1       2.302   4.344  21.032  0.00  0.00    +0.000 C 
ATOM      3  O   UNL     1       2.116   3.576  21.982  0.00  0.00    +0.000 OA
ATOM      4  H   UNL     1       2.096   5.910  22.242  0.00  0.00    +0.000 HD
ENDROOT
BRANCH   1   9
ATOM      5  C   UNL     1       1.474  10.059  17.600  0.00  0.00    +0.000 C 
ATOM      6  C   UNL     1       1.745   9.015  18.642  0.00  0.00    +0.000 A 
ATOM      7  C   UNL     1       2.226   7.784  18.176  0.00  0.00    +0.000 A 
ATOM      8  C   UNL     1       2.309   6.681  19.014  0.00  0.00    +0.000 A 
ATOM      9  C   UNL     1       2.028   6.793  20.370  0.00  0.00    +0.000 A 
ATOM     10  C   UNL     1       1.600   8.039  20.871  0.00  0.00    +0.000 A 
ATOM     11  C   UNL     1       1.469   9.154  20.012  0.00  0.00    +0.000 A 
BRANCH  11  12
ATOM     12  S   UNL     1       0.842  10.702  20.695  0.00  0.00    +0.000 S 
ATOM     13  O   UNL     1       1.053  10.629  22.124  0.00  0.00    +0.000 OA
ATOM     14  O   UNL     1       1.411  11.780  19.910  0.00  0.00    +0.000 OA
BRANCH  12  15
ATOM     15  N   UNL     1      -0.811  10.697  20.386  0.00  0.00    +0.000 NA
ATOM     16  C   UNL     1      -1.350  10.244  19.087  0.00  0.00    +0.000 C 
ATOM     17  C   UNL     1      -1.883  11.447  18.295  0.00  0.00    +0.000 C 
ATOM     18  O   UNL     1      -2.887  12.154  19.041  0.00  0.00    +0.000 OA
ATOM     19  C   UNL     1      -2.356  12.659  20.275  0.00  0.00    +0.000 C 
ATOM     20  C   UNL     1      -1.761  11.547  21.148  0.00  0.00    +0.000 C 
ENDBRANCH  12  15
ENDBRANCH  11  12
ENDBRANCH   1   9
BRANCH   2  21
ATOM     21  C   UNL     1       2.724   3.732  19.735  0.00  0.00    +0.000 A 
ATOM     22  C   UNL     1       1.725   3.011  19.047  0.00  0.00    +0.000 A 
ATOM     23  C   UNL     1       1.974   2.424  17.802  0.00  0.00    +0.000 A 
ATOM     24  C   UNL     1       3.226   2.555  17.213  0.00  0.00    +0.000 A 
ATOM     25  C   UNL     1       4.239   3.223  17.898  0.00  0.00    +0.000 A 
ATOM     26  C   UNL     1       4.016   3.765  19.176  0.00  0.00    +0.000 A 
BRANCH  26  27
ATOM     27  O   UNL     1       5.125   4.395  19.687  0.00  0.00    +0.000 OA
BRANCH  27  28
ATOM     28  C   UNL     1       5.816   5.322  18.949  0.00  0.00    +0.000 A 
ATOM     29  C   UNL     1       5.318   6.000  17.839  0.00  0.00    +0.000 A 
ATOM     30  C   UNL     1       6.146   6.872  17.133  0.00  0.00    +0.000 A 
ATOM     31  C   UNL     1       7.460   7.087  17.551  0.00  0.00    +0.000 A 
ATOM     32  C   UNL     1       7.944   6.453  18.685  0.00  0.00    +0.000 A 
ATOM     33  C   UNL     1       7.122   5.574  19.389  0.00  0.00    +0.000 A 
ENDBRANCH  27  28
ENDBRANCH  26  27
ENDBRANCH   2  21
TORSDOF 6
ENDMDL
MODEL 6
REMARK VINA RESULT:      -8.2      2.604      8.829
REMARK  Name = 
REMARK  7 active torsions:
REMARK  status: ('A' for Active; 'I' for Inactive)
REMARK    1  A    between atoms: C_1  and  C_2
REMARK    2  A    between atoms: C_5  and  N_6
REMARK    3  A    between atoms: C_7  and  C_9
REMARK    4  A    between atoms: C_14  and  O_15
REMARK    5  A    between atoms: O_15  and  C_16
REMARK    6  A    between atoms: C_23  and  S_24
REMARK    7  A    between atoms: S_24  and  N_27
REMARK                            x       y       z     vdW  Elec       q    Type
REMARK                         _______ _______ _______ _____ _____    ______ ____
ROOT
ATOM      1  N   UNL     1       2.194   5.767  21.285  0.00  0.00    +0.000 N 
ATOM      2  C   UNL     1       2.369   4.415  21.049  0.00  0.00    +0.000 C 
ATOM      3  O   UNL     1       2.262   3.639  22.004  0.00  0.00    +0.000 OA
ATOM      4  H   UNL     1       2.207   5.971  22.279  0.00  0.00    +0.000 HD
ENDROOT
BRANCH   1   9
ATOM      5  C   UNL     1       1.220  10.100  17.674  0.00  0.00    +0.000 C 
ATOM      6  C   UNL     1       1.544   9.074  18.717  0.00  0.00    +0.000 A 
ATOM      7  C   UNL     1       2.264   7.953  18.282  0.00  0.00    +0.000 A 
ATOM      8  C   UNL     1       2.435   6.846  19.101  0.00  0.00    +0.000 A 
ATOM      9  C   UNL     1       1.999   6.860  20.420  0.00  0.00    +0.000 A 
ATOM     10  C   UNL     1       1.324   8.003  20.896  0.00  0.00    +0.000 A 
ATOM     11  C   UNL     1       1.106   9.115  20.052  0.00  0.00    +0.000 A 
BRANCH  11  12
ATOM     12  S   UNL     1       0.169  10.517  20.693  0.00  0.00    +0.000 S 
ATOM     13  O   UNL     1      -1.192  10.336  20.236  0.00  0.00    +0.000 OA
ATOM     14  O   UNL     1       0.473  10.628  22.106  0.00  0.00    +0.000 OA
BRANCH  12  15
ATOM     15  N   UNL     1       0.819  11.876  19.947  0.00  0.00    +0.000 NA
ATOM     16  C   UNL     1       2.014  12.554  20.490  0.00  0.00    +0.000 C 
ATOM     17  C   UNL     1       1.615  13.905  21.102  0.00  0.00    +0.000 C 
ATOM     18  O   UNL     1       0.956  14.737  20.134  0.00  0.00    +0.000 OA
ATOM     19  C   UNL     1      -0.245  14.119  19.649  0.00  0.00    +0.000 C 
ATOM     20  C   UNL     1       0.021  12.738  19.037  0.00  0.00    +0.000 C 
ENDBRANCH  12  15
ENDBRANCH  11  12
ENDBRANCH   1   9
BRANCH   2  21
ATOM     21  C   UNL     1       2.720   3.818  19.723  0.00  0.00    +0.000 A 
ATOM     22  C   UNL     1       1.660   3.183  19.042  0.00  0.00    +0.000 A 
ATOM     23  C   UNL     1       1.840   2.620  17.774  0.00  0.00    +0.000 A 
ATOM     24  C   UNL     1       3.083   2.691  17.156  0.00  0.00    +0.000 A 
ATOM     25  C   UNL     1       4.153   3.273  17.832  0.00  0.00    +0.000 A 
ATOM     26  C   UNL     1       3.996   3.788  19.131  0.00  0.00    +0.000 A 
BRANCH  26  27
ATOM     27  O   UNL     1       5.156   4.331  19.631  0.00  0.00    +0.000 OA
BRANCH  27  28
ATOM     28  C   UNL     1       5.851   5.283  18.930  0.00  0.00    +0.000 A 
ATOM     29  C   UNL     1       5.365   5.989  17.831  0.00  0.00    +0.000 A 
ATOM     30  C   UNL     1       6.198   6.885  17.163  0.00  0.00    +0.000 A 
ATOM     31  C   UNL     1       7.504   7.096  17.606  0.00  0.00    +0.000 A 
ATOM     32  C   UNL     1       7.976   6.434  18.730  0.00  0.00    +0.000 A 
ATOM     33  C   UNL     1       7.149   5.531  19.396  0.00  0.00    +0.000 A 
ENDBRANCH  27  28
ENDBRANCH  26  27
ENDBRANCH   2  21
TORSDOF 6
ENDMDL
MODEL 7
REMARK VINA RESULT:      -8.2      1.037      1.655
REMARK  Name = 
REMARK  7 active torsions:
REMARK  status: ('A' for Active; 'I' for Inactive)
REMARK    1  A    between atoms: C_1  and  C_2
REMARK    2  A    between atoms: C_5  and  N_6
REMARK    3  A    between atoms: C_7  and  C_9
REMARK    4  A    between atoms: C_14  and  O_15
REMARK    5  A    between atoms: O_15  and  C_16
REMARK    6  A    between atoms: C_23  and  S_24
REMARK    7  A    between atoms: S_24  and  N_27
REMARK                            x       y       z     vdW  Elec       q    Type
REMARK                         _______ _______ _______ _____ _____    ______ ____
ROOT
ATOM      1  N   UNL     1       0.529   9.457  21.129  0.00  0.00    +0.000 N 
ATOM      2  C   UNL     1       0.267  10.790  21.393  0.00  0.00    +0.000 C 
ATOM      3  O   UNL     1      -0.200  11.084  22.499  0.00  0.00    +0.000 OA
ATOM      4  H   UNL     1       0.096   8.854  21.822  0.00  0.00    +0.000 HD
ENDROOT
BRANCH   1   9
ATOM      5  C   UNL     1       3.722   7.004  17.061  0.00  0.00    +0.000 C 
ATOM      6  C   UNL     1       2.797   7.512  18.127  0.00  0.00    +0.000 A 
ATOM      7  C   UNL     1       2.193   8.752  17.884  0.00  0.00    +0.000 A 
ATOM      8  C   UNL     1       1.493   9.418  18.880  0.00  0.00    +0.000 A 
ATOM      9  C   UNL     1       1.269   8.822  20.115  0.00  0.00    +0.000 A 
ATOM     10  C   UNL     1       1.818   7.546  20.359  0.00  0.00    +0.000 A 
ATOM     11  C   UNL     1       2.571   6.884  19.363  0.00  0.00    +0.000 A 
BRANCH  11  12
ATOM     12  S   UNL     1       3.314   5.288  19.759  0.00  0.00    +0.000 S 
ATOM     13  O   UNL     1       4.745   5.498  19.760  0.00  0.00    +0.000 OA
ATOM     14  O   UNL     1       2.633   4.777  20.933  0.00  0.00    +0.000 OA
BRANCH  12  15
ATOM     15  N   UNL     1       2.912   4.271  18.483  0.00  0.00    +0.000 NA
ATOM     16  C   UNL     1       1.507   3.921  18.191  0.00  0.00    +0.000 C 
ATOM     17  C   UNL     1       1.247   2.453  18.565  0.00  0.00    +0.000 C 
ATOM     18  O   UNL     1       2.143   1.575  17.866  0.00  0.00    +0.000 OA
ATOM     19  C   UNL     1       3.511   1.861  18.194  0.00  0.00    +0.000 C 
ATOM     20  C   UNL     1       3.886   3.318  17.893  0.00  0.00    +0.000 C 
ENDBRANCH  12  15
ENDBRANCH  11  12
ENDBRANCH   1   9
BRANCH   2  21
ATOM     21  C   UNL     1       0.468  11.908  20.421  0.00  0.00    +0.000 A 
ATOM     22  C   UNL     1       1.576  12.744  20.676  0.00  0.00    +0.000 A 
ATOM     23  C   UNL     1       1.904  13.802  19.822  0.00  0.00    +0.000 A 
ATOM     24  C   UNL     1       1.137  14.039  18.687  0.00  0.00    +0.000 A 
ATOM     25  C   UNL     1       0.013  13.253  18.443  0.00  0.00    +0.000 A 
ATOM     26  C   UNL     1      -0.360  12.225  19.328  0.00  0.00    +0.000 A 
BRANCH  26  27
ATOM     27  O   UNL     1      -1.486  11.553  18.917  0.00  0.00    +0.000 OA
BRANCH  27  28
ATOM     28  C   UNL     1      -2.737  11.967  19.298  0.00  0.00    +0.000 A 
ATOM     29  C   UNL     1      -3.033  12.660  20.470  0.00  0.00    +0.000 A 
ATOM     30  C   UNL     1      -4.358  12.967  20.775  0.00  0.00    +0.000 A 
ATOM     31  C   UNL     1      -5.383  12.607  19.899  0.00  0.00    +0.000 A 
ATOM     32  C   UNL     1      -5.088  11.962  18.707  0.00  0.00    +0.000 A 
ATOM     33  C   UNL     1      -3.765  11.646  18.402  0.00  0.00    +0.000 A 
ENDBRANCH  27  28
ENDBRANCH  26  27
ENDBRANCH   2  21
TORSDOF 6
ENDMDL
MODEL 8
REMARK VINA RESULT:      -8.1      1.472      1.744
REMARK  Name = 
REMARK  7 active torsions:
REMARK  status: ('A' for Active; 'I' for Inactive)
REMARK    1  A    between atoms: C_1  and  C_2
REMARK    2  A    between atoms: C_5  and  N_6
REMARK    3  A    between atoms: C_7  and  C_9
REMARK    4  A    between atoms: C_14  and  O_15
REMARK    5  A    between atoms: O_15  and  C_16
REMARK    6  A    between atoms: C_23  and  S_24
REMARK    7  A    between atoms: S_24  and  N_27
REMARK                            x       y       z     vdW  Elec       q    Type
REMARK                         _______ _______ _______ _____ _____    ______ ____
ROOT
ATOM      1  N   UNL     1       1.076   7.823  20.730  0.00  0.00    +0.000 N 
ATOM      2  C   UNL     1       0.491   9.000  21.164  0.00  0.00    +0.000 C 
ATOM      3  O   UNL     1      -0.040   9.010  22.279  0.00  0.00    +0.000 OA
ATOM      4  H   UNL     1       0.802   7.040  21.315  0.00  0.00    +0.000 HD
ENDROOT
BRANCH   1   9
ATOM      5  C   UNL     1       4.810   6.813  16.512  0.00  0.00    +0.000 C 
ATOM      6  C   UNL     1       3.768   6.934  17.583  0.00  0.00    +0.000 A 
ATOM      7  C   UNL     1       2.973   8.087  17.547  0.00  0.00    +0.000 A 
ATOM      8  C   UNL     1       2.128   8.410  18.600  0.00  0.00    +0.000 A 
ATOM      9  C   UNL     1       1.956   7.540  19.669  0.00  0.00    +0.000 A 
ATOM     10  C   UNL     1       2.702   6.344  19.694  0.00  0.00    +0.000 A 
ATOM     11  C   UNL     1       3.599   6.033  18.648  0.00  0.00    +0.000 A 
BRANCH  11  12
ATOM     12  S   UNL     1       4.585   4.527  18.773  0.00  0.00    +0.000 S 
ATOM     13  O   UNL     1       5.106   4.273  17.447  0.00  0.00    +0.000 OA
ATOM     14  O   UNL     1       5.475   4.688  19.906  0.00  0.00    +0.000 OA
BRANCH  12  15
ATOM     15  N   UNL     1       3.500   3.307  19.176  0.00  0.00    +0.000 NA
ATOM     16  C   UNL     1       2.450   2.869  18.234  0.00  0.00    +0.000 C 
ATOM     17  C   UNL     1       1.074   3.338  18.730  0.00  0.00    +0.000 C 
ATOM     18  O   UNL     1       0.806   2.845  20.052  0.00  0.00    +0.000 OA
ATOM     19  C   UNL     1       1.782   3.321  20.992  0.00  0.00    +0.000 C 
ATOM     20  C   UNL     1       3.211   2.939  20.585  0.00  0.00    +0.000 C 
ENDBRANCH  12  15
ENDBRANCH  11  12
ENDBRANCH   1   9
BRANCH   2  21
ATOM     21  C   UNL     1       0.415  10.261  20.364  0.00  0.00    +0.000 A 
ATOM     22  C   UNL     1       1.388  11.236  20.671  0.00  0.00    +0.000 A 
ATOM     23  C   UNL     1       1.457  12.444  19.969  0.00  0.00    +0.000 A 
ATOM     24  C   UNL     1       0.561  12.697  18.937  0.00  0.00    +0.000 A 
ATOM     25  C   UNL     1      -0.435  11.767  18.650  0.00  0.00    +0.000 A 
ATOM     26  C   UNL     1      -0.550  10.576  19.389  0.00  0.00    +0.000 A 
BRANCH  26  27
ATOM     27  O   UNL     1      -1.582   9.779  18.955  0.00  0.00    +0.000 OA
BRANCH  27  28
ATOM     28  C   UNL     1      -2.299  10.099  17.830  0.00  0.00    +0.000 A 
ATOM     29  C   UNL     1      -1.951   9.747  16.527  0.00  0.00    +0.000 A 
ATOM     30  C   UNL     1      -2.731  10.192  15.461  0.00  0.00    +0.000 A 
ATOM     31  C   UNL     1      -3.871  10.962  15.695  0.00  0.00    +0.000 A 
ATOM     32  C   UNL     1      -4.249  11.271  16.993  0.00  0.00    +0.000 A 
ATOM     33  C   UNL     1      -3.468  10.836  18.062  0.00  0.00    +0.000 A 
ENDBRANCH  27  28
ENDBRANCH  26  27
ENDBRANCH   2  21
TORSDOF 6
ENDMDL
MODEL 9
REMARK VINA RESULT:      -8.0      0.803      1.265
REMARK  Name = 
REMARK  7 active torsions:
REMARK  status: ('A' for Active; 'I' for Inactive)
REMARK    1  A    between atoms: C_1  and  C_2
REMARK    2  A    between atoms: C_5  and  N_6
REMARK    3  A    between atoms: C_7  and  C_9
REMARK    4  A    between atoms: C_14  and  O_15
REMARK    5  A    between atoms: O_15  and  C_16
REMARK    6  A    between atoms: C_23  and  S_24
REMARK    7  A    between atoms: S_24  and  N_27
REMARK                            x       y       z     vdW  Elec       q    Type
REMARK                         _______ _______ _______ _____ _____    ______ ____
ROOT
ATOM      1  N   UNL     1       0.161   9.464  21.139  0.00  0.00    +0.000 N 
ATOM      2  C   UNL     1      -0.272  10.759  21.361  0.00  0.00    +0.000 C 
ATOM      3  O   UNL     1      -0.810  11.016  22.444  0.00  0.00    +0.000 OA
ATOM      4  H   UNL     1      -0.218   8.826  21.832  0.00  0.00    +0.000 HD
ENDROOT
BRANCH   1   9
ATOM      5  C   UNL     1       3.784   7.315  17.265  0.00  0.00    +0.000 C 
ATOM      6  C   UNL     1       2.748   7.744  18.260  0.00  0.00    +0.000 A 
ATOM      7  C   UNL     1       2.166   9.000  18.047  0.00  0.00    +0.000 A 
ATOM      8  C   UNL     1       1.360   9.591  19.009  0.00  0.00    +0.000 A 
ATOM      9  C   UNL     1       1.009   8.905  20.165  0.00  0.00    +0.000 A 
ATOM     10  C   UNL     1       1.537   7.614  20.371  0.00  0.00    +0.000 A 
ATOM     11  C   UNL     1       2.396   7.026  19.415  0.00  0.00    +0.000 A 
BRANCH  11  12
ATOM     12  S   UNL     1       3.102   5.405  19.769  0.00  0.00    +0.000 S 
ATOM     13  O   UNL     1       4.538   5.566  19.704  0.00  0.00    +0.000 OA
ATOM     14  O   UNL     1       2.460   4.908  20.971  0.00  0.00    +0.000 OA
BRANCH  12  15
ATOM     15  N   UNL     1       2.607   4.409  18.508  0.00  0.00    +0.000 NA
ATOM     16  C   UNL     1       1.310   3.704  18.548  0.00  0.00    +0.000 C 
ATOM     17  C   UNL     1       1.539   2.199  18.757  0.00  0.00    +0.000 C 
ATOM     18  O   UNL     1       2.379   1.657  17.726  0.00  0.00    +0.000 OA
ATOM     19  C   UNL     1       3.669   2.287  17.722  0.00  0.00    +0.000 C 
ATOM     20  C   UNL     1       3.569   3.808  17.549  0.00  0.00    +0.000 C 
ENDBRANCH  12  15
ENDBRANCH  11  12
ENDBRANCH   1   9
BRANCH   2  21
ATOM     21  C   UNL     1      -0.176  11.874  20.369  0.00  0.00    +0.000 A 
ATOM     22  C   UNL     1       0.721  12.911  20.703  0.00  0.00    +0.000 A 
ATOM     23  C   UNL     1       0.939  13.992  19.844  0.00  0.00    +0.000 A 
ATOM     24  C   UNL     1       0.272  14.054  18.626  0.00  0.00    +0.000 A 
ATOM     25  C   UNL     1      -0.652  13.064  18.300  0.00  0.00    +0.000 A 
ATOM     26  C   UNL     1      -0.922  12.004  19.183  0.00  0.00    +0.000 A 
BRANCH  26  27
ATOM     27  O   UNL     1      -1.851  11.121  18.686  0.00  0.00    +0.000 OA
BRANCH  27  28
ATOM     28  C   UNL     1      -3.144  11.513  18.447  0.00  0.00    +0.000 A 
ATOM     29  C   UNL     1      -3.813  11.381  17.232  0.00  0.00    +0.000 A 
ATOM     30  C   UNL     1      -5.108  11.881  17.100  0.00  0.00    +0.000 A 
ATOM     31  C   UNL     1      -5.743  12.486  18.185  0.00  0.00    +0.000 A 
ATOM     32  C   UNL     1      -5.099  12.574  19.410  0.00  0.00    +0.000 A 
ATOM     33  C   UNL     1      -3.802  12.083  19.544  0.00  0.00    +0.000 A 
ENDBRANCH  27  28
ENDBRANCH  26  27
ENDBRANCH   2  21
TORSDOF 6
ENDMDL
