MODEL 1
REMARK VINA RESULT:      -7.3      0.000      0.000
REMARK  Name = 
REMARK  5 active torsions:
REMARK  status: ('A' for Active; 'I' for Inactive)
REMARK    1  A    between atoms: C_1  and  C_2
REMARK    2  A    between atoms: C_2  and  N_3
REMARK    3  A    between atoms: N_11  and  N_12
REMARK    4  A    between atoms: C_13  and  C_15
REMARK    5  A    between atoms: C_20  and  O_21
REMARK                            x       y       z     vdW  Elec       q    Type
REMARK                         _______ _______ _______ _____ _____    ______ ____
ROOT
ATOM      1  N   UNL     1      -0.135  11.197  21.559  0.00  0.00    +0.000 N 
ATOM      2  C   UNL     1       0.118   9.835  21.432  0.00  0.00    +0.000 C 
ATOM      3  O   UNL     1      -0.260   8.957  22.187  0.00  0.00    +0.000 OA
ATOM      4  C   UNL     1       0.933   9.688  20.158  0.00  0.00    +0.000 C 
ATOM      5  C   UNL     1       1.389   8.504  19.709  0.00  0.00    +0.000 C 
ATOM      6  S   UNL     1       1.355   7.016  20.609  0.00  0.00    +0.000 S 
ATOM      7  C   UNL     1       2.579   6.262  19.613  0.00  0.00    +0.000 C 
ATOM      8  S   UNL     1       3.240   4.768  19.962  0.00  0.00    +0.000 S 
ATOM      9  N   UNL     1       2.847   7.075  18.530  0.00  0.00    +0.000 N 
ATOM     10  C   UNL     1       2.071   8.223  18.401  0.00  0.00    +0.000 C 
ATOM     11  O   UNL     1       1.804   8.815  17.365  0.00  0.00    +0.000 OA
ATOM     12  C   UNL     1       1.126  11.057  19.636  0.00  0.00    +0.000 A 
ATOM     13  C   UNL     1       1.865  11.590  18.592  0.00  0.00    +0.000 A 
ATOM     14  C   UNL     1       1.904  12.982  18.431  0.00  0.00    +0.000 A 
ATOM     15  C   UNL     1       1.227  13.831  19.315  0.00  0.00    +0.000 A 
ATOM     16  C   UNL     1       0.504  13.302  20.381  0.00  0.00    +0.000 A 
ATOM     17  C   UNL     1       0.474  11.923  20.528  0.00  0.00    +0.000 A 
ENDROOT
BRANCH   9  18
ATOM     18  N   UNL     1       3.517   6.524  17.411  0.00  0.00    +0.000 N 
ATOM     19  C   UNL     1       4.874   6.711  17.224  0.00  0.00    +0.000 C 
ATOM     20  O   UNL     1       5.542   7.549  17.820  0.00  0.00    +0.000 OA
ATOM     21  H   UNL     1       3.118   5.656  17.049  0.00  0.00    +0.000 HD
BRANCH  19  22
ATOM     22  C   UNL     1       5.526   5.785  16.229  0.00  0.00    +0.000 A 
ATOM     23  C   UNL     1       4.715   4.855  15.559  0.00  0.00    +0.000 A 
ATOM     24  C   UNL     1       5.255   4.001  14.591  0.00  0.00    +0.000 A 
ATOM     25  C   UNL     1       6.610   4.068  14.275  0.00  0.00    +0.000 A 
ATOM     26  C   UNL     1       7.433   4.980  14.934  0.00  0.00    +0.000 A 
ATOM     27  C   UNL     1       6.894   5.829  15.907  0.00  0.00    +0.000 A 
BRANCH  27  28
ATOM     28  O   UNL     1       7.732   6.712  16.536  0.00  0.00    +0.000 OA
ATOM     29  H   UNL     1       8.115   6.281  17.322  0.00  0.00    +0.000 HD
ENDBRANCH  27  28
ENDBRANCH  19  22
ENDBRANCH   9  18
BRANCH   1  31
ATOM     30  C   UNL     1      -2.252  12.171  22.354  0.00  0.00    +0.000 C 
ATOM     31  C   UNL     1      -0.819  11.783  22.690  0.00  0.00    +0.000 C 
ENDBRANCH   1  31
TORSDOF 4
ENDMDL
MODEL 2
REMARK VINA RESULT:      -7.1      1.095      1.335
REMARK  Name = 
REMARK  5 active torsions:
REMARK  status: ('A' for Active; 'I' for Inactive)
REMARK    1  A    between atoms: C_1  and  C_2
REMARK    2  A    between atoms: C_2  and  N_3
REMARK    3  A    between atoms: N_11  and  N_12
REMARK    4  A    between atoms: C_13  and  C_15
REMARK    5  A    between atoms: C_20  and  O_21
REMARK                            x       y       z     vdW  Elec       q    Type
REMARK                         _______ _______ _______ _____ _____    ______ ____
ROOT
ATOM      1  N   UNL     1      -0.030  12.045  21.518  0.00  0.00    +0.000 N 
ATOM      2  C   UNL     1       0.065  10.658  21.531  0.00  0.00    +0.000 C 
ATOM      3  O   UNL     1      -0.390   9.911  22.379  0.00  0.00    +0.000 OA
ATOM      4  C   UNL     1       0.826  10.288  20.269  0.00  0.00    +0.000 C 
ATOM      5  C   UNL     1       1.134   9.020  19.940  0.00  0.00    +0.000 C 
ATOM      6  S   UNL     1       0.954   7.645  20.992  0.00  0.00    +0.000 S 
ATOM      7  C   UNL     1       2.060   6.657  20.064  0.00  0.00    +0.000 C 
ATOM      8  S   UNL     1       2.556   5.142  20.559  0.00  0.00    +0.000 S 
ATOM      9  N   UNL     1       2.391   7.318  18.899  0.00  0.00    +0.000 N 
ATOM     10  C   UNL     1       1.747   8.529  18.661  0.00  0.00    +0.000 C 
ATOM     11  O   UNL     1       1.521   9.038  17.572  0.00  0.00    +0.000 OA
ATOM     12  C   UNL     1       1.159  11.564  19.604  0.00  0.00    +0.000 A 
ATOM     13  C   UNL     1       1.927  11.899  18.500  0.00  0.00    +0.000 A 
ATOM     14  C   UNL     1       2.119  13.254  18.193  0.00  0.00    +0.000 A 
ATOM     15  C   UNL     1       1.565  14.261  18.992  0.00  0.00    +0.000 A 
ATOM     16  C   UNL     1       0.813  13.931  20.117  0.00  0.00    +0.000 A 
ATOM     17  C   UNL     1       0.632  12.587  20.408  0.00  0.00    +0.000 A 
ENDROOT
BRANCH   9  18
ATOM     18  N   UNL     1       2.966   6.583  17.835  0.00  0.00    +0.000 N 
ATOM     19  C   UNL     1       4.283   6.772  17.461  0.00  0.00    +0.000 C 
ATOM     20  O   UNL     1       4.966   7.730  17.807  0.00  0.00    +0.000 OA
ATOM     21  H   UNL     1       2.578   5.649  17.692  0.00  0.00    +0.000 HD
BRANCH  19  22
ATOM     22  C   UNL     1       4.873   5.692  16.591  0.00  0.00    +0.000 A 
ATOM     23  C   UNL     1       5.374   6.056  15.331  0.00  0.00    +0.000 A 
ATOM     24  C   UNL     1       5.976   5.106  14.498  0.00  0.00    +0.000 A 
ATOM     25  C   UNL     1       6.090   3.781  14.915  0.00  0.00    +0.000 A 
ATOM     26  C   UNL     1       5.593   3.399  16.159  0.00  0.00    +0.000 A 
ATOM     27  C   UNL     1       4.985   4.348  16.989  0.00  0.00    +0.000 A 
BRANCH  27  28
ATOM     28  O   UNL     1       4.506   3.937  18.205  0.00  0.00    +0.000 OA
ATOM     29  H   UNL     1       4.102   4.698  18.661  0.00  0.00    +0.000 HD
ENDBRANCH  27  28
ENDBRANCH  19  22
ENDBRANCH   9  18
BRANCH   1  31
ATOM     30  C   UNL     1      -2.110  13.027  22.397  0.00  0.00    +0.000 C 
ATOM     31  C   UNL     1      -0.614  12.819  22.590  0.00  0.00    +0.000 C 
ENDBRANCH   1  31
TORSDOF 4
ENDMDL
MODEL 3
REMARK VINA RESULT:      -6.9      1.171      1.291
REMARK  Name = 
REMARK  5 active torsions:
REMARK  status: ('A' for Active; 'I' for Inactive)
REMARK    1  A    between atoms: C_1  and  C_2
REMARK    2  A    between atoms: C_2  and  N_3
REMARK    3  A    between atoms: N_11  and  N_12
REMARK    4  A    between atoms: C_13  and  C_15
REMARK    5  A    between atoms: C_20  and  O_21
REMARK                            x       y       z     vdW  Elec       q    Type
REMARK                         _______ _______ _______ _____ _____    ______ ____
ROOT
ATOM      1  N   UNL     1      -0.051  12.306  21.507  0.00  0.00    +0.000 N 
ATOM      2  C   UNL     1      -0.011  10.919  21.578  0.00  0.00    +0.000 C 
ATOM      3  O   UNL     1      -0.507  10.225  22.448  0.00  0.00    +0.000 OA
ATOM      4  C   UNL     1       0.755  10.468  20.345  0.00  0.00    +0.000 C 
ATOM      5  C   UNL     1       1.020   9.176  20.074  0.00  0.00    +0.000 C 
ATOM      6  S   UNL     1       0.771   7.855  21.177  0.00  0.00    +0.000 S 
ATOM      7  C   UNL     1       1.852   6.788  20.310  0.00  0.00    +0.000 C 
ATOM      8  S   UNL     1       2.283   5.277  20.875  0.00  0.00    +0.000 S 
ATOM      9  N   UNL     1       2.226   7.387  19.124  0.00  0.00    +0.000 N 
ATOM     10  C   UNL     1       1.632   8.610  18.826  0.00  0.00    +0.000 C 
ATOM     11  O   UNL     1       1.444   9.082  17.713  0.00  0.00    +0.000 OA
ATOM     12  C   UNL     1       1.147  11.702  19.634  0.00  0.00    +0.000 A 
ATOM     13  C   UNL     1       1.944  11.962  18.530  0.00  0.00    +0.000 A 
ATOM     14  C   UNL     1       2.193  13.294  18.171  0.00  0.00    +0.000 A 
ATOM     15  C   UNL     1       1.665  14.354  18.919  0.00  0.00    +0.000 A 
ATOM     16  C   UNL     1       0.884  14.099  20.044  0.00  0.00    +0.000 A 
ATOM     17  C   UNL     1       0.647  12.777  20.386  0.00  0.00    +0.000 A 
ENDROOT
BRANCH   9  18
ATOM     18  N   UNL     1       2.789   6.587  18.101  0.00  0.00    +0.000 N 
ATOM     19  C   UNL     1       4.050   6.846  17.600  0.00  0.00    +0.000 C 
ATOM     20  O   UNL     1       4.662   7.894  17.781  0.00  0.00    +0.000 OA
ATOM     21  H   UNL     1       2.482   5.613  18.093  0.00  0.00    +0.000 HD
BRANCH  19  22
ATOM     22  C   UNL     1       4.676   5.729  16.805  0.00  0.00    +0.000 A 
ATOM     23  C   UNL     1       4.725   4.450  17.384  0.00  0.00    +0.000 A 
ATOM     24  C   UNL     1       5.252   3.364  16.676  0.00  0.00    +0.000 A 
ATOM     25  C   UNL     1       5.731   3.538  15.379  0.00  0.00    +0.000 A 
ATOM     26  C   UNL     1       5.697   4.800  14.790  0.00  0.00    +0.000 A 
ATOM     27  C   UNL     1       5.177   5.888  15.500  0.00  0.00    +0.000 A 
BRANCH  27  28
ATOM     28  O   UNL     1       5.161   7.115  14.890  0.00  0.00    +0.000 OA
ATOM     29  H   UNL     1       6.066   7.478  14.882  0.00  0.00    +0.000 HD
ENDBRANCH  27  28
ENDBRANCH  19  22
ENDBRANCH   9  18
BRANCH   1  31
ATOM     30  C   UNL     1      -2.121  13.336  22.354  0.00  0.00    +0.000 C 
ATOM     31  C   UNL     1      -0.622  13.146  22.536  0.00  0.00    +0.000 C 
ENDBRANCH   1  31
TORSDOF 4
ENDMDL
MODEL 4
REMARK VINA RESULT:      -6.6      4.206      7.199
REMARK  Name = 
REMARK  5 active torsions:
REMARK  status: ('A' for Active; 'I' for Inactive)
REMARK    1  A    between atoms: C_1  and  C_2
REMARK    2  A    between atoms: C_2  and  N_3
REMARK    3  A    between atoms: N_11  and  N_12
REMARK    4  A    between atoms: C_13  and  C_15
REMARK    5  A    between atoms: C_20  and  O_21
REMARK                            x       y       z     vdW  Elec       q    Type
REMARK                         _______ _______ _______ _____ _____    ______ ____
ROOT
ATOM      1  N   UNL     1      -3.725  16.314  23.694  0.00  0.00    +0.000 N 
ATOM      2  C   UNL     1      -2.393  16.098  23.359  0.00  0.00    +0.000 C 
ATOM      3  O   UNL     1      -1.502  16.928  23.371  0.00  0.00    +0.000 OA
ATOM      4  C   UNL     1      -2.295  14.623  23.003  0.00  0.00    +0.000 C 
ATOM      5  C   UNL     1      -1.151  14.038  22.602  0.00  0.00    +0.000 C 
ATOM      6  S   UNL     1       0.309  14.885  22.182  0.00  0.00    +0.000 S 
ATOM      7  C   UNL     1       0.963  13.532  21.288  0.00  0.00    +0.000 C 
ATOM      8  S   UNL     1       2.372  13.627  20.398  0.00  0.00    +0.000 S 
ATOM      9  N   UNL     1       0.156  12.428  21.480  0.00  0.00    +0.000 N 
ATOM     10  C   UNL     1      -0.905  12.575  22.369  0.00  0.00    +0.000 C 
ATOM     11  O   UNL     1      -1.440  11.693  23.025  0.00  0.00    +0.000 OA
ATOM     12  C   UNL     1      -3.662  14.079  23.136  0.00  0.00    +0.000 A 
ATOM     13  C   UNL     1      -4.239  12.853  22.846  0.00  0.00    +0.000 A 
ATOM     14  C   UNL     1      -5.623  12.700  23.007  0.00  0.00    +0.000 A 
ATOM     15  C   UNL     1      -6.423  13.766  23.435  0.00  0.00    +0.000 A 
ATOM     16  C   UNL     1      -5.852  15.008  23.704  0.00  0.00    +0.000 A 
ATOM     17  C   UNL     1      -4.482  15.144  23.541  0.00  0.00    +0.000 A 
ENDROOT
BRANCH   9  18
ATOM     18  N   UNL     1       0.665  11.145  21.167  0.00  0.00    +0.000 N 
ATOM     19  C   UNL     1       0.235  10.455  20.049  0.00  0.00    +0.000 C 
ATOM     20  O   UNL     1      -0.768  10.743  19.406  0.00  0.00    +0.000 OA
ATOM     21  H   UNL     1       1.624  10.971  21.474  0.00  0.00    +0.000 HD
BRANCH  19  22
ATOM     22  C   UNL     1       1.104   9.298  19.626  0.00  0.00    +0.000 A 
ATOM     23  C   UNL     1       1.303   8.250  20.540  0.00  0.00    +0.000 A 
ATOM     24  C   UNL     1       2.061   7.128  20.187  0.00  0.00    +0.000 A 
ATOM     25  C   UNL     1       2.625   7.034  18.917  0.00  0.00    +0.000 A 
ATOM     26  C   UNL     1       2.445   8.067  17.999  0.00  0.00    +0.000 A 
ATOM     27  C   UNL     1       1.694   9.193  18.354  0.00  0.00    +0.000 A 
BRANCH  27  28
ATOM     28  O   UNL     1       1.538  10.190  17.427  0.00  0.00    +0.000 OA
ATOM     29  H   UNL     1       2.369  10.695  17.361  0.00  0.00    +0.000 HD
ENDBRANCH  27  28
ENDBRANCH  19  22
ENDBRANCH   9  18
BRANCH   1  31
ATOM     30  C   UNL     1      -4.655  18.401  22.775  0.00  0.00    +0.000 C 
ATOM     31  C   UNL     1      -4.270  17.613  24.020  0.00  0.00    +0.000 C 
ENDBRANCH   1  31
TORSDOF 4
ENDMDL
MODEL 5
REMARK VINA RESULT:      -6.6      7.191     10.335
REMARK  Name = 
REMARK  5 active torsions:
REMARK  status: ('A' for Active; 'I' for Inactive)
REMARK    1  A    between atoms: C_1  and  C_2
REMARK    2  A    between atoms: C_2  and  N_3
REMARK    3  A    between atoms: N_11  and  N_12
REMARK    4  A    between atoms: C_13  and  C_15
REMARK    5  A    between atoms: C_20  and  O_21
REMARK                            x       y       z     vdW  Elec       q    Type
REMARK                         _______ _______ _______ _____ _____    ______ ____
ROOT
ATOM      1  N   UNL     1       9.912  16.842  18.064  0.00  0.00    +0.000 N 
ATOM      2  C   UNL     1       8.671  17.295  18.499  0.00  0.00    +0.000 C 
ATOM      3  O   UNL     1       8.390  18.438  18.814  0.00  0.00    +0.000 OA
ATOM      4  C   UNL     1       7.760  16.079  18.475  0.00  0.00    +0.000 C 
ATOM      5  C   UNL     1       6.470  16.119  18.855  0.00  0.00    +0.000 C 
ATOM      6  S   UNL     1       5.708  17.459  19.661  0.00  0.00    +0.000 S 
ATOM      7  C   UNL     1       4.382  16.486  20.254  0.00  0.00    +0.000 C 
ATOM      8  S   UNL     1       3.228  17.071  21.311  0.00  0.00    +0.000 S 
ATOM      9  N   UNL     1       4.450  15.231  19.684  0.00  0.00    +0.000 N 
ATOM     10  C   UNL     1       5.447  15.027  18.735  0.00  0.00    +0.000 C 
ATOM     11  O   UNL     1       5.428  14.225  17.812  0.00  0.00    +0.000 OA
ATOM     12  C   UNL     1       8.601  14.947  18.034  0.00  0.00    +0.000 A 
ATOM     13  C   UNL     1       8.392  13.582  17.924  0.00  0.00    +0.000 A 
ATOM     14  C   UNL     1       9.464  12.758  17.555  0.00  0.00    +0.000 A 
ATOM     15  C   UNL     1      10.736  13.293  17.315  0.00  0.00    +0.000 A 
ATOM     16  C   UNL     1      10.959  14.662  17.449  0.00  0.00    +0.000 A 
ATOM     17  C   UNL     1       9.888  15.463  17.814  0.00  0.00    +0.000 A 
ENDROOT
BRANCH   9  18
ATOM     18  N   UNL     1       3.303  14.400  19.720  0.00  0.00    +0.000 N 
ATOM     19  C   UNL     1       2.271  14.563  18.816  0.00  0.00    +0.000 C 
ATOM     20  O   UNL     1       2.122  15.556  18.112  0.00  0.00    +0.000 OA
ATOM     21  H   UNL     1       3.463  13.454  20.070  0.00  0.00    +0.000 HD
BRANCH  19  22
ATOM     22  C   UNL     1       1.307  13.409  18.716  0.00  0.00    +0.000 A 
ATOM     23  C   UNL     1       1.826  12.105  18.768  0.00  0.00    +0.000 A 
ATOM     24  C   UNL     1       0.977  10.994  18.727  0.00  0.00    +0.000 A 
ATOM     25  C   UNL     1      -0.403  11.169  18.638  0.00  0.00    +0.000 A 
ATOM     26  C   UNL     1      -0.937  12.455  18.578  0.00  0.00    +0.000 A 
ATOM     27  C   UNL     1      -0.087  13.566  18.612  0.00  0.00    +0.000 A 
BRANCH  27  28
ATOM     28  O   UNL     1      -0.646  14.815  18.549  0.00  0.00    +0.000 OA
ATOM     29  H   UNL     1      -0.826  15.036  17.616  0.00  0.00    +0.000 HD
ENDBRANCH  27  28
ENDBRANCH  19  22
ENDBRANCH   9  18
BRANCH   1  31
ATOM     30  C   UNL     1      11.781  17.770  19.371  0.00  0.00    +0.000 C 
ATOM     31  C   UNL     1      11.096  17.670  18.015  0.00  0.00    +0.000 C 
ENDBRANCH   1  31
TORSDOF 4
ENDMDL
MODEL 6
REMARK VINA RESULT:      -6.6      2.298      9.226
REMARK  Name = 
REMARK  5 active torsions:
REMARK  status: ('A' for Active; 'I' for Inactive)
REMARK    1  A    between atoms: C_1  and  C_2
REMARK    2  A    between atoms: C_2  and  N_3
REMARK    3  A    between atoms: N_11  and  N_12
REMARK    4  A    between atoms: C_13  and  C_15
REMARK    5  A    between atoms: C_20  and  O_21
REMARK                            x       y       z     vdW  Elec       q    Type
REMARK                         _______ _______ _______ _____ _____    ______ ____
ROOT
ATOM      1  N   UNL     1       3.739   6.095  17.739  0.00  0.00    +0.000 N 
ATOM      2  C   UNL     1       3.331   7.408  17.530  0.00  0.00    +0.000 C 
ATOM      3  O   UNL     1       3.700   8.144  16.632  0.00  0.00    +0.000 OA
ATOM      4  C   UNL     1       2.328   7.705  18.632  0.00  0.00    +0.000 C 
ATOM      5  C   UNL     1       1.722   8.898  18.774  0.00  0.00    +0.000 C 
ATOM      6  S   UNL     1       2.156  10.345  17.912  0.00  0.00    +0.000 S 
ATOM      7  C   UNL     1       1.361  11.396  19.062  0.00  0.00    +0.000 C 
ATOM      8  S   UNL     1       1.468  13.061  18.996  0.00  0.00    +0.000 S 
ATOM      9  N   UNL     1       0.642  10.628  19.956  0.00  0.00    +0.000 N 
ATOM     10  C   UNL     1       0.617   9.256  19.726  0.00  0.00    +0.000 C 
ATOM     11  O   UNL     1      -0.259   8.471  20.060  0.00  0.00    +0.000 OA
ATOM     12  C   UNL     1       2.256   6.482  19.459  0.00  0.00    +0.000 A 
ATOM     13  C   UNL     1       1.624   6.166  20.652  0.00  0.00    +0.000 A 
ATOM     14  C   UNL     1       1.851   4.908  21.227  0.00  0.00    +0.000 A 
ATOM     15  C   UNL     1       2.714   3.984  20.624  0.00  0.00    +0.000 A 
ATOM     16  C   UNL     1       3.371   4.305  19.439  0.00  0.00    +0.000 A 
ATOM     17  C   UNL     1       3.136   5.553  18.882  0.00  0.00    +0.000 A 
ENDROOT
BRANCH   9  18
ATOM     18  N   UNL     1      -0.362  11.249  20.738  0.00  0.00    +0.000 N 
ATOM     19  C   UNL     1      -0.312  11.226  22.119  0.00  0.00    +0.000 C 
ATOM     20  O   UNL     1       0.410  10.478  22.770  0.00  0.00    +0.000 OA
ATOM     21  H   UNL     1      -0.809  12.061  20.308  0.00  0.00    +0.000 HD
BRANCH  19  22
ATOM     22  C   UNL     1      -1.206  12.218  22.818  0.00  0.00    +0.000 A 
ATOM     23  C   UNL     1      -2.442  11.765  23.309  0.00  0.00    +0.000 A 
ATOM     24  C   UNL     1      -3.294  12.628  24.008  0.00  0.00    +0.000 A 
ATOM     25  C   UNL     1      -2.922  13.953  24.229  0.00  0.00    +0.000 A 
ATOM     26  C   UNL     1      -1.704  14.422  23.743  0.00  0.00    +0.000 A 
ATOM     27  C   UNL     1      -0.855  13.562  23.039  0.00  0.00    +0.000 A 
BRANCH  27  28
ATOM     28  O   UNL     1       0.335  14.058  22.574  0.00  0.00    +0.000 OA
ATOM     29  H   UNL     1       0.224  14.331  21.645  0.00  0.00    +0.000 HD
ENDBRANCH  27  28
ENDBRANCH  19  22
ENDBRANCH   9  18
BRANCH   1  31
ATOM     30  C   UNL     1       6.163   5.789  17.428  0.00  0.00    +0.000 C 
ATOM     31  C   UNL     1       4.759   5.438  16.953  0.00  0.00    +0.000 C 
ENDBRANCH   1  31
TORSDOF 4
ENDMDL
MODEL 7
REMARK VINA RESULT:      -6.5      7.336     10.359
REMARK  Name = 
REMARK  5 active torsions:
REMARK  status: ('A' for Active; 'I' for Inactive)
REMARK    1  A    between atoms: C_1  and  C_2
REMARK    2  A    between atoms: C_2  and  N_3
REMARK    3  A    between atoms: N_11  and  N_12
REMARK    4  A    between atoms: C_13  and  C_15
REMARK    5  A    between atoms: C_20  and  O_21
REMARK                            x       y       z     vdW  Elec       q    Type
REMARK                         _______ _______ _______ _____ _____    ______ ____
ROOT
ATOM      1  N   UNL     1      10.116  17.086  17.766  0.00  0.00    +0.000 N 
ATOM      2  C   UNL     1       8.904  17.489  18.315  0.00  0.00    +0.000 C 
ATOM      3  O   UNL     1       8.582  18.631  18.593  0.00  0.00    +0.000 OA
ATOM      4  C   UNL     1       8.082  16.220  18.469  0.00  0.00    +0.000 C 
ATOM      5  C   UNL     1       6.843  16.205  18.994  0.00  0.00    +0.000 C 
ATOM      6  S   UNL     1       6.086  17.546  19.803  0.00  0.00    +0.000 S 
ATOM      7  C   UNL     1       4.906  16.534  20.604  0.00  0.00    +0.000 C 
ATOM      8  S   UNL     1       3.841  17.115  21.752  0.00  0.00    +0.000 S 
ATOM      9  N   UNL     1       4.996  15.250  20.105  0.00  0.00    +0.000 N 
ATOM     10  C   UNL     1       5.891  15.046  19.059  0.00  0.00    +0.000 C 
ATOM     11  O   UNL     1       5.824  14.185  18.193  0.00  0.00    +0.000 OA
ATOM     12  C   UNL     1       8.944  15.116  18.000  0.00  0.00    +0.000 A 
ATOM     13  C   UNL     1       8.819  13.736  17.996  0.00  0.00    +0.000 A 
ATOM     14  C   UNL     1       9.898  12.958  17.553  0.00  0.00    +0.000 A 
ATOM     15  C   UNL     1      11.095  13.553  17.136  0.00  0.00    +0.000 A 
ATOM     16  C   UNL     1      11.236  14.939  17.162  0.00  0.00    +0.000 A 
ATOM     17  C   UNL     1      10.160  15.695  17.602  0.00  0.00    +0.000 A 
ENDROOT
BRANCH   9  18
ATOM     18  N   UNL     1       3.921  14.355  20.323  0.00  0.00    +0.000 N 
ATOM     19  C   UNL     1       2.854  14.288  19.447  0.00  0.00    +0.000 C 
ATOM     20  O   UNL     1       2.607  15.135  18.596  0.00  0.00    +0.000 OA
ATOM     21  H   UNL     1       4.166  13.494  20.816  0.00  0.00    +0.000 HD
BRANCH  19  22
ATOM     22  C   UNL     1       1.983  13.064  19.577  0.00  0.00    +0.000 A 
ATOM     23  C   UNL     1       1.241  12.901  20.758  0.00  0.00    +0.000 A 
ATOM     24  C   UNL     1       0.380  11.810  20.917  0.00  0.00    +0.000 A 
ATOM     25  C   UNL     1       0.244  10.870  19.897  0.00  0.00    +0.000 A 
ATOM     26  C   UNL     1       0.977  11.011  18.720  0.00  0.00    +0.000 A 
ATOM     27  C   UNL     1       1.844  12.098  18.565  0.00  0.00    +0.000 A 
BRANCH  27  28
ATOM     28  O   UNL     1       2.550  12.204  17.395  0.00  0.00    +0.000 OA
ATOM     29  H   UNL     1       1.984  12.619  16.719  0.00  0.00    +0.000 HD
ENDBRANCH  27  28
ENDBRANCH  19  22
ENDBRANCH   9  18
BRANCH   1  31
ATOM     30  C   UNL     1      12.085  18.168  18.774  0.00  0.00    +0.000 C 
ATOM     31  C   UNL     1      11.227  17.981  17.530  0.00  0.00    +0.000 C 
ENDBRANCH   1  31
TORSDOF 4
ENDMDL
MODEL 8
REMARK VINA RESULT:      -6.4      1.608      2.126
REMARK  Name = 
REMARK  5 active torsions:
REMARK  status: ('A' for Active; 'I' for Inactive)
REMARK    1  A    between atoms: C_1  and  C_2
REMARK    2  A    between atoms: C_2  and  N_3
REMARK    3  A    between atoms: N_11  and  N_12
REMARK    4  A    between atoms: C_13  and  C_15
REMARK    5  A    between atoms: C_20  and  O_21
REMARK                            x       y       z     vdW  Elec       q    Type
REMARK                         _______ _______ _______ _____ _____    ______ ____
ROOT
ATOM      1  N   UNL     1       0.344   9.356  20.788  0.00  0.00    +0.000 N 
ATOM      2  C   UNL     1       0.872   8.074  20.693  0.00  0.00    +0.000 C 
ATOM      3  O   UNL     1       0.600   7.127  21.410  0.00  0.00    +0.000 OA
ATOM      4  C   UNL     1       1.825   8.109  19.510  0.00  0.00    +0.000 C 
ATOM      5  C   UNL     1       2.549   7.046  19.116  0.00  0.00    +0.000 C 
ATOM      6  S   UNL     1       2.718   5.566  20.015  0.00  0.00    +0.000 S 
ATOM      7  C   UNL     1       4.161   5.082  19.153  0.00  0.00    +0.000 C 
ATOM      8  S   UNL     1       5.065   3.743  19.575  0.00  0.00    +0.000 S 
ATOM      9  N   UNL     1       4.372   5.949  18.100  0.00  0.00    +0.000 N 
ATOM     10  C   UNL     1       3.402   6.924  17.887  0.00  0.00    +0.000 C 
ATOM     11  O   UNL     1       3.129   7.468  16.826  0.00  0.00    +0.000 OA
ATOM     12  C   UNL     1       1.796   9.497  19.005  0.00  0.00    +0.000 A 
ATOM     13  C   UNL     1       2.517  10.182  18.039  0.00  0.00    +0.000 A 
ATOM     14  C   UNL     1       2.297  11.557  17.876  0.00  0.00    +0.000 A 
ATOM     15  C   UNL     1       1.380  12.242  18.682  0.00  0.00    +0.000 A 
ATOM     16  C   UNL     1       0.671  11.564  19.671  0.00  0.00    +0.000 A 
ATOM     17  C   UNL     1       0.899  10.205  19.820  0.00  0.00    +0.000 A 
ENDROOT
BRANCH   9  18
ATOM     18  N   UNL     1       5.247   5.559  17.058  0.00  0.00    +0.000 N 
ATOM     19  C   UNL     1       4.911   4.546  16.180  0.00  0.00    +0.000 C 
ATOM     20  O   UNL     1       4.001   3.745  16.368  0.00  0.00    +0.000 OA
ATOM     21  H   UNL     1       5.849   6.300  16.695  0.00  0.00    +0.000 HD
BRANCH  19  22
ATOM     22  C   UNL     1       5.732   4.481  14.918  0.00  0.00    +0.000 A 
ATOM     23  C   UNL     1       5.234   3.730  13.841  0.00  0.00    +0.000 A 
ATOM     24  C   UNL     1       5.929   3.670  12.627  0.00  0.00    +0.000 A 
ATOM     25  C   UNL     1       7.128   4.363  12.472  0.00  0.00    +0.000 A 
ATOM     26  C   UNL     1       7.642   5.107  13.531  0.00  0.00    +0.000 A 
ATOM     27  C   UNL     1       6.951   5.161  14.747  0.00  0.00    +0.000 A 
BRANCH  27  28
ATOM     28  O   UNL     1       7.487   5.902  15.768  0.00  0.00    +0.000 OA
ATOM     29  H   UNL     1       8.456   5.927  15.667  0.00  0.00    +0.000 HD
ENDBRANCH  27  28
ENDBRANCH  19  22
ENDBRANCH   9  18
BRANCH   1  31
ATOM     30  C   UNL     1       0.055   9.589  23.222  0.00  0.00    +0.000 C 
ATOM     31  C   UNL     1      -0.554   9.779  21.840  0.00  0.00    +0.000 C 
ENDBRANCH   1  31
TORSDOF 4
ENDMDL
MODEL 9
REMARK VINA RESULT:      -6.4      3.928      6.777
REMARK  Name = 
REMARK  5 active torsions:
REMARK  status: ('A' for Active; 'I' for Inactive)
REMARK    1  A    between atoms: C_1  and  C_2
REMARK    2  A    between atoms: C_2  and  N_3
REMARK    3  A    between atoms: N_11  and  N_12
REMARK    4  A    between atoms: C_13  and  C_15
REMARK    5  A    between atoms: C_20  and  O_21
REMARK                            x       y       z     vdW  Elec       q    Type
REMARK                         _______ _______ _______ _____ _____    ______ ____
ROOT
ATOM      1  N   UNL     1      -3.137  16.436  22.769  0.00  0.00    +0.000 N 
ATOM      2  C   UNL     1      -1.951  16.255  22.067  0.00  0.00    +0.000 C 
ATOM      3  O   UNL     1      -1.279  17.129  21.547  0.00  0.00    +0.000 OA
ATOM      4  C   UNL     1      -1.674  14.761  22.109  0.00  0.00    +0.000 C 
ATOM      5  C   UNL     1      -0.610  14.193  21.511  0.00  0.00    +0.000 C 
ATOM      6  S   UNL     1       0.460  15.000  20.403  0.00  0.00    +0.000 S 
ATOM      7  C   UNL     1       1.071  13.503  19.736  0.00  0.00    +0.000 C 
ATOM      8  S   UNL     1       2.103  13.447  18.425  0.00  0.00    +0.000 S 
ATOM      9  N   UNL     1       0.593  12.445  20.484  0.00  0.00    +0.000 N 
ATOM     10  C   UNL     1      -0.161  12.764  21.609  0.00  0.00    +0.000 C 
ATOM     11  O   UNL     1      -0.290  12.089  22.621  0.00  0.00    +0.000 OA
ATOM     12  C   UNL     1      -2.803  14.157  22.846  0.00  0.00    +0.000 A 
ATOM     13  C   UNL     1      -3.186  12.852  23.113  0.00  0.00    +0.000 A 
ATOM     14  C   UNL     1      -4.400  12.624  23.775  0.00  0.00    +0.000 A 
ATOM     15  C   UNL     1      -5.230  13.688  24.150  0.00  0.00    +0.000 A 
ATOM     16  C   UNL     1      -4.862  15.000  23.862  0.00  0.00    +0.000 A 
ATOM     17  C   UNL     1      -3.658  15.210  23.206  0.00  0.00    +0.000 A 
ENDROOT
BRANCH   9  18
ATOM     18  N   UNL     1       1.229  11.185  20.371  0.00  0.00    +0.000 N 
ATOM     19  C   UNL     1       0.550  10.078  19.899  0.00  0.00    +0.000 C 
ATOM     20  O   UNL     1      -0.671  10.011  19.796  0.00  0.00    +0.000 OA
ATOM     21  H   UNL     1       2.233  11.220  20.189  0.00  0.00    +0.000 HD
BRANCH  19  22
ATOM     22  C   UNL     1       1.413   8.917  19.478  0.00  0.00    +0.000 A 
ATOM     23  C   UNL     1       1.546   7.835  20.363  0.00  0.00    +0.000 A 
ATOM     24  C   UNL     1       2.296   6.708  20.008  0.00  0.00    +0.000 A 
ATOM     25  C   UNL     1       2.920   6.645  18.764  0.00  0.00    +0.000 A 
ATOM     26  C   UNL     1       2.806   7.712  17.875  0.00  0.00    +0.000 A 
ATOM     27  C   UNL     1       2.062   8.841  18.232  0.00  0.00    +0.000 A 
BRANCH  27  28
ATOM     28  O   UNL     1       1.972   9.872  17.334  0.00  0.00    +0.000 OA
ATOM     29  H   UNL     1       1.410   9.595  16.587  0.00  0.00    +0.000 HD
ENDBRANCH  27  28
ENDBRANCH  19  22
ENDBRANCH   9  18
BRANCH   1  31
ATOM     30  C   UNL     1      -3.384  18.450  24.164  0.00  0.00    +0.000 C 
ATOM     31  C   UNL     1      -3.805  17.711  22.901  0.00  0.00    +0.000 C 
ENDBRANCH   1  31
TORSDOF 4
ENDMDL
