MODEL 1
REMARK VINA RESULT:      -7.6      0.000      0.000
REMARK  Name = 
REMARK  13 active torsions:
REMARK  status: ('A' for Active; 'I' for Inactive)
REMARK    1  A    between atoms: C_1  and  N_2
REMARK    2  A    between atoms: N_2  and  C_3
REMARK    3  A    between atoms: C_4  and  C_6
REMARK    4  A    between atoms: C_6  and  N_7
REMARK    5  A    between atoms: N_7  and  C_8
REMARK    6  A    between atoms: C_8  and  C_9
REMARK    7  A    between atoms: C_9  and  C_10
REMARK    8  A    between atoms: C_14  and  O_15
REMARK    9  A    between atoms: O_15  and  C_16
REMARK   10  A    between atoms: C_16  and  C_17
REMARK   11  A    between atoms: C_17  and  C_20
REMARK   12  A    between atoms: C_20  and  C_23
REMARK   13  A    between atoms: C_23  and  C_24
REMARK                            x       y       z     vdW  Elec       q    Type
REMARK                         _______ _______ _______ _____ _____    ______ ____
ROOT
ATOM      1  C   UNL     1       3.742   7.075  17.616  0.00  0.00    +0.000 A 
ATOM      2  C   UNL     1       3.045   8.287  17.546  0.00  0.00    +0.000 A 
ATOM      3  C   UNL     1       2.104   8.618  18.519  0.00  0.00    +0.000 A 
ATOM      4  C   UNL     1       1.843   7.732  19.566  0.00  0.00    +0.000 A 
ATOM      5  C   UNL     1       2.510   6.508  19.640  0.00  0.00    +0.000 A 
ATOM      6  C   UNL     1       3.454   6.183  18.661  0.00  0.00    +0.000 A 
ENDROOT
BRANCH   1   7
ATOM      7  C   UNL     1       4.811   6.735  16.599  0.00  0.00    +0.000 C 
BRANCH   7   8
ATOM      8  C   UNL     1       6.218   6.930  17.180  0.00  0.00    +0.000 C 
BRANCH   8   9
ATOM      9  N   UNL     1       7.213   6.103  16.490  0.00  0.00    +0.000 NA
ATOM     10  H   UNL     1       7.793   6.691  15.887  0.00  0.00    +0.000 HD
BRANCH   9  11
ATOM     11  C   UNL     1       6.531   5.115  15.636  0.00  0.00    +0.000 C 
BRANCH  11  15
ATOM     12  C   UNL     1       7.200   4.301  11.947  0.00  0.00    +0.000 C 
ATOM     13  N   UNL     1       6.563   4.340  13.249  0.00  0.00    +0.000 N 
ATOM     14  C   UNL     1       5.388   3.516  13.475  0.00  0.00    +0.000 C 
ATOM     15  C   UNL     1       7.196   5.071  14.253  0.00  0.00    +0.000 C 
ATOM     16  O   UNL     1       8.261   5.663  14.065  0.00  0.00    +0.000 OA
ENDBRANCH  11  15
ENDBRANCH   9  11
ENDBRANCH   8   9
ENDBRANCH   7   8
ENDBRANCH   1   7
BRANCH   5  17
ATOM     17  O   UNL     1       2.170   5.728  20.711  0.00  0.00    +0.000 OA
BRANCH  17  18
ATOM     18  C   UNL     1       2.607   4.364  20.664  0.00  0.00    +0.000 C 
BRANCH  18  19
ATOM     19  C   UNL     1       1.444   3.448  20.297  0.00  0.00    +0.000 C 
ATOM     20  F   UNL     1       1.341   2.466  21.234  0.00  0.00    +0.000 F 
ATOM     21  F   UNL     1       0.277   4.140  20.334  0.00  0.00    +0.000 F 
BRANCH  19  22
ATOM     22  C   UNL     1       1.674   2.846  18.920  0.00  0.00    +0.000 C 
ATOM     23  F   UNL     1       0.743   1.871  18.695  0.00  0.00    +0.000 F 
ATOM     24  F   UNL     1       1.436   3.797  17.965  0.00  0.00    +0.000 F 
BRANCH  22  25
ATOM     25  C   UNL     1       3.074   2.274  18.737  0.00  0.00    +0.000 C 
ATOM     26  C   UNL     1       3.903   2.925  17.648  0.00  0.00    +0.000 C 
ATOM     27  F   UNL     1       3.772   2.323  19.902  0.00  0.00    +0.000 F 
ATOM     28  F   UNL     1       2.973   0.946  18.426  0.00  0.00    +0.000 F 
ENDBRANCH  22  25
ENDBRANCH  19  22
ENDBRANCH  18  19
ENDBRANCH  17  18
ENDBRANCH   5  17
TORSDOF 10
ENDMDL
MODEL 2
REMARK VINA RESULT:      -7.5      4.280      6.038
REMARK  Name = 
REMARK  13 active torsions:
REMARK  status: ('A' for Active; 'I' for Inactive)
REMARK    1  A    between atoms: C_1  and  N_2
REMARK    2  A    between atoms: N_2  and  C_3
REMARK    3  A    between atoms: C_4  and  C_6
REMARK    4  A    between atoms: C_6  and  N_7
REMARK    5  A    between atoms: N_7  and  C_8
REMARK    6  A    between atoms: C_8  and  C_9
REMARK    7  A    between atoms: C_9  and  C_10
REMARK    8  A    between atoms: C_14  and  O_15
REMARK    9  A    between atoms: O_15  and  C_16
REMARK   10  A    between atoms: C_16  and  C_17
REMARK   11  A    between atoms: C_17  and  C_20
REMARK   12  A    between atoms: C_20  and  C_23
REMARK   13  A    between atoms: C_23  and  C_24
REMARK                            x       y       z     vdW  Elec       q    Type
REMARK                         _______ _______ _______ _____ _____    ______ ____
ROOT
ATOM      1  C   UNL     1       7.282   7.422  17.862  0.00  0.00    +0.000 A 
ATOM      2  C   UNL     1       7.994   6.506  18.647  0.00  0.00    +0.000 A 
ATOM      3  C   UNL     1       7.510   5.213  18.839  0.00  0.00    +0.000 A 
ATOM      4  C   UNL     1       6.302   4.828  18.255  0.00  0.00    +0.000 A 
ATOM      5  C   UNL     1       5.566   5.734  17.489  0.00  0.00    +0.000 A 
ATOM      6  C   UNL     1       6.058   7.029  17.300  0.00  0.00    +0.000 A 
ENDROOT
BRANCH   1   7
ATOM      7  C   UNL     1       7.831   8.808  17.597  0.00  0.00    +0.000 C 
BRANCH   7   8
ATOM      8  C   UNL     1       8.917   9.183  18.614  0.00  0.00    +0.000 C 
BRANCH   8   9
ATOM      9  N   UNL     1       8.724  10.537  19.145  0.00  0.00    +0.000 NA
ATOM     10  H   UNL     1       8.070  11.051  18.551  0.00  0.00    +0.000 HD
BRANCH   9  11
ATOM     11  C   UNL     1      10.008  11.260  19.135  0.00  0.00    +0.000 C 
BRANCH  11  15
ATOM     12  C   UNL     1      10.414  14.780  17.663  0.00  0.00    +0.000 C 
ATOM     13  N   UNL     1      10.646  13.377  17.946  0.00  0.00    +0.000 N 
ATOM     14  C   UNL     1      11.841  12.746  17.413  0.00  0.00    +0.000 C 
ATOM     15  C   UNL     1       9.769  12.745  18.826  0.00  0.00    +0.000 C 
ATOM     16  O   UNL     1       8.831  13.340  19.362  0.00  0.00    +0.000 OA
ENDBRANCH  11  15
ENDBRANCH   9  11
ENDBRANCH   8   9
ENDBRANCH   7   8
ENDBRANCH   1   7
BRANCH   5  17
ATOM     17  O   UNL     1       4.401   5.239  16.970  0.00  0.00    +0.000 OA
BRANCH  17  18
ATOM     18  C   UNL     1       3.223   5.430  17.763  0.00  0.00    +0.000 C 
BRANCH  18  19
ATOM     19  C   UNL     1       2.413   4.140  17.828  0.00  0.00    +0.000 C 
ATOM     20  F   UNL     1       1.099   4.431  17.625  0.00  0.00    +0.000 F 
ATOM     21  F   UNL     1       2.783   3.306  16.822  0.00  0.00    +0.000 F 
BRANCH  19  22
ATOM     22  C   UNL     1       2.606   3.475  19.181  0.00  0.00    +0.000 C 
ATOM     23  F   UNL     1       3.146   2.232  18.998  0.00  0.00    +0.000 F 
ATOM     24  F   UNL     1       3.541   4.170  19.898  0.00  0.00    +0.000 F 
BRANCH  22  25
ATOM     25  C   UNL     1       1.319   3.363  19.988  0.00  0.00    +0.000 C 
ATOM     26  C   UNL     1       1.457   2.689  21.339  0.00  0.00    +0.000 C 
ATOM     27  F   UNL     1       0.754   4.586  20.169  0.00  0.00    +0.000 F 
ATOM     28  F   UNL     1       0.407   2.641  19.270  0.00  0.00    +0.000 F 
ENDBRANCH  22  25
ENDBRANCH  19  22
ENDBRANCH  18  19
ENDBRANCH  17  18
ENDBRANCH   5  17
TORSDOF 10
ENDMDL
MODEL 3
REMARK VINA RESULT:      -7.5      4.402      6.170
REMARK  Name = 
REMARK  13 active torsions:
REMARK  status: ('A' for Active; 'I' for Inactive)
REMARK    1  A    between atoms: C_1  and  N_2
REMARK    2  A    between atoms: N_2  and  C_3
REMARK    3  A    between atoms: C_4  and  C_6
REMARK    4  A    between atoms: C_6  and  N_7
REMARK    5  A    between atoms: N_7  and  C_8
REMARK    6  A    between atoms: C_8  and  C_9
REMARK    7  A    between atoms: C_9  and  C_10
REMARK    8  A    between atoms: C_14  and  O_15
REMARK    9  A    between atoms: O_15  and  C_16
REMARK   10  A    between atoms: C_16  and  C_17
REMARK   11  A    between atoms: C_17  and  C_20
REMARK   12  A    between atoms: C_20  and  C_23
REMARK   13  A    between atoms: C_23  and  C_24
REMARK                            x       y       z     vdW  Elec       q    Type
REMARK                         _______ _______ _______ _____ _____    ______ ____
ROOT
ATOM      1  C   UNL     1       7.415   7.418  17.864  0.00  0.00    +0.000 A 
ATOM      2  C   UNL     1       8.085   6.523  18.708  0.00  0.00    +0.000 A 
ATOM      3  C   UNL     1       7.607   5.226  18.883  0.00  0.00    +0.000 A 
ATOM      4  C   UNL     1       6.448   4.815  18.223  0.00  0.00    +0.000 A 
ATOM      5  C   UNL     1       5.753   5.700  17.396  0.00  0.00    +0.000 A 
ATOM      6  C   UNL     1       6.239   7.000  17.224  0.00  0.00    +0.000 A 
ENDROOT
BRANCH   1   7
ATOM      7  C   UNL     1       7.961   8.809  17.619  0.00  0.00    +0.000 C 
BRANCH   7   8
ATOM      8  C   UNL     1       8.925   9.236  18.734  0.00  0.00    +0.000 C 
BRANCH   8   9
ATOM      9  N   UNL     1       8.904  10.687  18.948  0.00  0.00    +0.000 NA
ATOM     10  H   UNL     1       7.994  11.064  18.672  0.00  0.00    +0.000 HD
BRANCH   9  11
ATOM     11  C   UNL     1       9.932  11.327  18.110  0.00  0.00    +0.000 C 
BRANCH  11  15
ATOM     12  C   UNL     1      12.325  14.159  19.099  0.00  0.00    +0.000 C 
ATOM     13  N   UNL     1      11.534  13.252  18.291  0.00  0.00    +0.000 N 
ATOM     14  C   UNL     1      11.683  13.295  16.846  0.00  0.00    +0.000 C 
ATOM     15  C   UNL     1      10.770  12.295  18.957  0.00  0.00    +0.000 C 
ATOM     16  O   UNL     1      10.758  12.202  20.187  0.00  0.00    +0.000 OA
ENDBRANCH  11  15
ENDBRANCH   9  11
ENDBRANCH   8   9
ENDBRANCH   7   8
ENDBRANCH   1   7
BRANCH   5  17
ATOM     17  O   UNL     1       4.635   5.180  16.805  0.00  0.00    +0.000 OA
BRANCH  17  18
ATOM     18  C   UNL     1       4.360   3.800  17.072  0.00  0.00    +0.000 C 
BRANCH  18  19
ATOM     19  C   UNL     1       2.999   3.650  17.742  0.00  0.00    +0.000 C 
ATOM     20  F   UNL     1       2.274   4.783  17.530  0.00  0.00    +0.000 F 
ATOM     21  F   UNL     1       2.305   2.635  17.166  0.00  0.00    +0.000 F 
BRANCH  19  22
ATOM     22  C   UNL     1       3.178   3.406  19.232  0.00  0.00    +0.000 C 
ATOM     23  F   UNL     1       4.224   2.546  19.423  0.00  0.00    +0.000 F 
ATOM     24  F   UNL     1       3.557   4.572  19.839  0.00  0.00    +0.000 F 
BRANCH  22  25
ATOM     25  C   UNL     1       1.929   2.857  19.908  0.00  0.00    +0.000 C 
ATOM     26  C   UNL     1       0.831   3.870  20.164  0.00  0.00    +0.000 C 
ATOM     27  F   UNL     1       1.408   1.823  19.196  0.00  0.00    +0.000 F 
ATOM     28  F   UNL     1       2.278   2.327  21.120  0.00  0.00    +0.000 F 
ENDBRANCH  22  25
ENDBRANCH  19  22
ENDBRANCH  18  19
ENDBRANCH  17  18
ENDBRANCH   5  17
TORSDOF 10
ENDMDL
MODEL 4
REMARK VINA RESULT:      -7.4      4.395      6.062
REMARK  Name = 
REMARK  13 active torsions:
REMARK  status: ('A' for Active; 'I' for Inactive)
REMARK    1  A    between atoms: C_1  and  N_2
REMARK    2  A    between atoms: N_2  and  C_3
REMARK    3  A    between atoms: C_4  and  C_6
REMARK    4  A    between atoms: C_6  and  N_7
REMARK    5  A    between atoms: N_7  and  C_8
REMARK    6  A    between atoms: C_8  and  C_9
REMARK    7  A    between atoms: C_9  and  C_10
REMARK    8  A    between atoms: C_14  and  O_15
REMARK    9  A    between atoms: O_15  and  C_16
REMARK   10  A    between atoms: C_16  and  C_17
REMARK   11  A    between atoms: C_17  and  C_20
REMARK   12  A    between atoms: C_20  and  C_23
REMARK   13  A    between atoms: C_23  and  C_24
REMARK                            x       y       z     vdW  Elec       q    Type
REMARK                         _______ _______ _______ _____ _____    ______ ____
ROOT
ATOM      1  C   UNL     1       7.726   7.882  18.014  0.00  0.00    +0.000 A 
ATOM      2  C   UNL     1       8.303   6.877  18.802  0.00  0.00    +0.000 A 
ATOM      3  C   UNL     1       7.708   5.620  18.888  0.00  0.00    +0.000 A 
ATOM      4  C   UNL     1       6.525   5.359  18.196  0.00  0.00    +0.000 A 
ATOM      5  C   UNL     1       5.922   6.355  17.425  0.00  0.00    +0.000 A 
ATOM      6  C   UNL     1       6.524   7.614  17.341  0.00  0.00    +0.000 A 
ENDROOT
BRANCH   1   7
ATOM      7  C   UNL     1       8.398   9.231  17.864  0.00  0.00    +0.000 C 
BRANCH   7   8
ATOM      8  C   UNL     1       8.903   9.757  19.213  0.00  0.00    +0.000 C 
BRANCH   8   9
ATOM      9  N   UNL     1      10.016  10.698  19.050  0.00  0.00    +0.000 NA
ATOM     10  H   UNL     1       9.944  11.443  19.747  0.00  0.00    +0.000 HD
BRANCH   9  11
ATOM     11  C   UNL     1       9.948  11.320  17.716  0.00  0.00    +0.000 C 
BRANCH  11  15
ATOM     12  C   UNL     1      10.444  15.124  17.640  0.00  0.00    +0.000 C 
ATOM     13  N   UNL     1      10.705  13.704  17.504  0.00  0.00    +0.000 N 
ATOM     14  C   UNL     1      12.046  13.272  17.147  0.00  0.00    +0.000 C 
ATOM     15  C   UNL     1       9.681  12.825  17.853  0.00  0.00    +0.000 C 
ATOM     16  O   UNL     1       8.589  13.219  18.272  0.00  0.00    +0.000 OA
ENDBRANCH  11  15
ENDBRANCH   9  11
ENDBRANCH   8   9
ENDBRANCH   7   8
ENDBRANCH   1   7
BRANCH   5  17
ATOM     17  O   UNL     1       4.768   5.978  16.794  0.00  0.00    +0.000 OA
BRANCH  17  18
ATOM     18  C   UNL     1       4.236   4.698  17.159  0.00  0.00    +0.000 C 
BRANCH  18  19
ATOM     19  C   UNL     1       3.070   4.866  18.127  0.00  0.00    +0.000 C 
ATOM     20  F   UNL     1       3.510   4.632  19.394  0.00  0.00    +0.000 F 
ATOM     21  F   UNL     1       2.625   6.148  18.103  0.00  0.00    +0.000 F 
BRANCH  19  22
ATOM     22  C   UNL     1       1.954   3.898  17.766  0.00  0.00    +0.000 C 
ATOM     23  F   UNL     1       0.931   4.591  17.182  0.00  0.00    +0.000 F 
ATOM     24  F   UNL     1       2.398   3.035  16.802  0.00  0.00    +0.000 F 
BRANCH  22  25
ATOM     25  C   UNL     1       1.429   3.110  18.958  0.00  0.00    +0.000 C 
ATOM     26  C   UNL     1       0.962   3.947  20.133  0.00  0.00    +0.000 C 
ATOM     27  F   UNL     1       0.416   2.284  18.584  0.00  0.00    +0.000 F 
ATOM     28  F   UNL     1       2.420   2.289  19.419  0.00  0.00    +0.000 F 
ENDBRANCH  22  25
ENDBRANCH  19  22
ENDBRANCH  18  19
ENDBRANCH  17  18
ENDBRANCH   5  17
TORSDOF 10
ENDMDL
MODEL 5
REMARK VINA RESULT:      -7.4      4.340      6.173
REMARK  Name = 
REMARK  13 active torsions:
REMARK  status: ('A' for Active; 'I' for Inactive)
REMARK    1  A    between atoms: C_1  and  N_2
REMARK    2  A    between atoms: N_2  and  C_3
REMARK    3  A    between atoms: C_4  and  C_6
REMARK    4  A    between atoms: C_6  and  N_7
REMARK    5  A    between atoms: N_7  and  C_8
REMARK    6  A    between atoms: C_8  and  C_9
REMARK    7  A    between atoms: C_9  and  C_10
REMARK    8  A    between atoms: C_14  and  O_15
REMARK    9  A    between atoms: O_15  and  C_16
REMARK   10  A    between atoms: C_16  and  C_17
REMARK   11  A    between atoms: C_17  and  C_20
REMARK   12  A    between atoms: C_20  and  C_23
REMARK   13  A    between atoms: C_23  and  C_24
REMARK                            x       y       z     vdW  Elec       q    Type
REMARK                         _______ _______ _______ _____ _____    ______ ____
ROOT
ATOM      1  C   UNL     1       7.450   7.613  17.843  0.00  0.00    +0.000 A 
ATOM      2  C   UNL     1       8.153   6.790  18.732  0.00  0.00    +0.000 A 
ATOM      3  C   UNL     1       7.735   5.481  18.964  0.00  0.00    +0.000 A 
ATOM      4  C   UNL     1       6.601   4.986  18.318  0.00  0.00    +0.000 A 
ATOM      5  C   UNL     1       5.873   5.798  17.447  0.00  0.00    +0.000 A 
ATOM      6  C   UNL     1       6.299   7.110  17.216  0.00  0.00    +0.000 A 
ENDROOT
BRANCH   1   7
ATOM      7  C   UNL     1       7.933   9.014  17.536  0.00  0.00    +0.000 C 
BRANCH   7   8
ATOM      8  C   UNL     1       8.765   9.584  18.692  0.00  0.00    +0.000 C 
BRANCH   8   9
ATOM      9  N   UNL     1       9.677  10.640  18.239  0.00  0.00    +0.000 NA
ATOM     10  H   UNL     1      10.605  10.246  18.069  0.00  0.00    +0.000 HD
BRANCH   9  11
ATOM     11  C   UNL     1       9.808  11.666  19.289  0.00  0.00    +0.000 C 
BRANCH  11  15
ATOM     12  C   UNL     1      10.148  15.202  17.838  0.00  0.00    +0.000 C 
ATOM     13  N   UNL     1       9.561  14.000  18.399  0.00  0.00    +0.000 N 
ATOM     14  C   UNL     1       8.113  13.907  18.489  0.00  0.00    +0.000 C 
ATOM     15  C   UNL     1      10.420  12.944  18.699  0.00  0.00    +0.000 C 
ATOM     16  O   UNL     1      11.635  13.006  18.497  0.00  0.00    +0.000 OA
ENDBRANCH  11  15
ENDBRANCH   9  11
ENDBRANCH   8   9
ENDBRANCH   7   8
ENDBRANCH   1   7
BRANCH   5  17
ATOM     17  O   UNL     1       4.784   5.201  16.873  0.00  0.00    +0.000 OA
BRANCH  17  18
ATOM     18  C   UNL     1       4.490   3.869  17.312  0.00  0.00    +0.000 C 
BRANCH  18  19
ATOM     19  C   UNL     1       3.142   3.831  18.025  0.00  0.00    +0.000 C 
ATOM     20  F   UNL     1       2.478   4.993  17.777  0.00  0.00    +0.000 F 
ATOM     21  F   UNL     1       2.375   2.833  17.518  0.00  0.00    +0.000 F 
BRANCH  19  22
ATOM     22  C   UNL     1       3.352   3.648  19.519  0.00  0.00    +0.000 C 
ATOM     23  F   UNL     1       4.444   2.852  19.725  0.00  0.00    +0.000 F 
ATOM     24  F   UNL     1       3.674   4.853  20.082  0.00  0.00    +0.000 F 
BRANCH  22  25
ATOM     25  C   UNL     1       2.142   3.057  20.231  0.00  0.00    +0.000 C 
ATOM     26  C   UNL     1       0.905   3.934  20.246  0.00  0.00    +0.000 C 
ATOM     27  F   UNL     1       1.811   1.850  19.700  0.00  0.00    +0.000 F 
ATOM     28  F   UNL     1       2.472   2.806  21.534  0.00  0.00    +0.000 F 
ENDBRANCH  22  25
ENDBRANCH  19  22
ENDBRANCH  18  19
ENDBRANCH  17  18
ENDBRANCH   5  17
TORSDOF 10
ENDMDL
MODEL 6
REMARK VINA RESULT:      -7.3      4.406      6.198
REMARK  Name = 
REMARK  13 active torsions:
REMARK  status: ('A' for Active; 'I' for Inactive)
REMARK    1  A    between atoms: C_1  and  N_2
REMARK    2  A    between atoms: N_2  and  C_3
REMARK    3  A    between atoms: C_4  and  C_6
REMARK    4  A    between atoms: C_6  and  N_7
REMARK    5  A    between atoms: N_7  and  C_8
REMARK    6  A    between atoms: C_8  and  C_9
REMARK    7  A    between atoms: C_9  and  C_10
REMARK    8  A    between atoms: C_14  and  O_15
REMARK    9  A    between atoms: O_15  and  C_16
REMARK   10  A    between atoms: C_16  and  C_17
REMARK   11  A    between atoms: C_17  and  C_20
REMARK   12  A    between atoms: C_20  and  C_23
REMARK   13  A    between atoms: C_23  and  C_24
REMARK                            x       y       z     vdW  Elec       q    Type
REMARK                         _______ _______ _______ _____ _____    ______ ____
ROOT
ATOM      1  C   UNL     1       7.472   7.573  17.944  0.00  0.00    +0.000 A 
ATOM      2  C   UNL     1       8.197   6.690  18.755  0.00  0.00    +0.000 A 
ATOM      3  C   UNL     1       7.754   5.384  18.948  0.00  0.00    +0.000 A 
ATOM      4  C   UNL     1       6.575   4.950  18.340  0.00  0.00    +0.000 A 
ATOM      5  C   UNL     1       5.826   5.822  17.548  0.00  0.00    +0.000 A 
ATOM      6  C   UNL     1       6.277   7.132  17.357  0.00  0.00    +0.000 A 
ENDROOT
BRANCH   1   7
ATOM      7  C   UNL     1       7.979   8.975  17.678  0.00  0.00    +0.000 C 
BRANCH   7   8
ATOM      8  C   UNL     1       8.999   9.411  18.738  0.00  0.00    +0.000 C 
BRANCH   8   9
ATOM      9  N   UNL     1       8.842  10.825  19.098  0.00  0.00    +0.000 NA
ATOM     10  H   UNL     1       7.882  10.999  19.404  0.00  0.00    +0.000 HD
BRANCH   9  11
ATOM     11  C   UNL     1       9.098  11.668  17.916  0.00  0.00    +0.000 C 
BRANCH  11  15
ATOM     12  C   UNL     1      10.663  15.157  18.233  0.00  0.00    +0.000 C 
ATOM     13  N   UNL     1      10.439  13.788  17.812  0.00  0.00    +0.000 N 
ATOM     14  C   UNL     1      11.433  13.147  16.967  0.00  0.00    +0.000 C 
ATOM     15  C   UNL     1       9.342  13.120  18.353  0.00  0.00    +0.000 C 
ATOM     16  O   UNL     1       8.582  13.652  19.165  0.00  0.00    +0.000 OA
ENDBRANCH  11  15
ENDBRANCH   9  11
ENDBRANCH   8   9
ENDBRANCH   7   8
ENDBRANCH   1   7
BRANCH   5  17
ATOM     17  O   UNL     1       4.692   5.282  17.006  0.00  0.00    +0.000 OA
BRANCH  17  18
ATOM     18  C   UNL     1       3.453   5.674  17.609  0.00  0.00    +0.000 C 
BRANCH  18  19
ATOM     19  C   UNL     1       2.762   4.468  18.234  0.00  0.00    +0.000 C 
ATOM     20  F   UNL     1       1.415   4.603  18.088  0.00  0.00    +0.000 F 
ATOM     21  F   UNL     1       3.110   3.336  17.570  0.00  0.00    +0.000 F 
BRANCH  19  22
ATOM     22  C   UNL     1       3.129   4.366  19.706  0.00  0.00    +0.000 C 
ATOM     23  F   UNL     1       4.047   3.367  19.872  0.00  0.00    +0.000 F 
ATOM     24  F   UNL     1       3.770   5.511  20.093  0.00  0.00    +0.000 F 
BRANCH  22  25
ATOM     25  C   UNL     1       1.929   4.118  20.611  0.00  0.00    +0.000 C 
ATOM     26  C   UNL     1       1.116   2.881  20.286  0.00  0.00    +0.000 C 
ATOM     27  F   UNL     1       2.311   4.056  21.914  0.00  0.00    +0.000 F 
ATOM     28  F   UNL     1       1.082   5.189  20.528  0.00  0.00    +0.000 F 
ENDBRANCH  22  25
ENDBRANCH  19  22
ENDBRANCH  18  19
ENDBRANCH  17  18
ENDBRANCH   5  17
TORSDOF 10
ENDMDL
MODEL 7
REMARK VINA RESULT:      -7.3      3.811      5.664
REMARK  Name = 
REMARK  13 active torsions:
REMARK  status: ('A' for Active; 'I' for Inactive)
REMARK    1  A    between atoms: C_1  and  N_2
REMARK    2  A    between atoms: N_2  and  C_3
REMARK    3  A    between atoms: C_4  and  C_6
REMARK    4  A    between atoms: C_6  and  N_7
REMARK    5  A    between atoms: N_7  and  C_8
REMARK    6  A    between atoms: C_8  and  C_9
REMARK    7  A    between atoms: C_9  and  C_10
REMARK    8  A    between atoms: C_14  and  O_15
REMARK    9  A    between atoms: O_15  and  C_16
REMARK   10  A    between atoms: C_16  and  C_17
REMARK   11  A    between atoms: C_17  and  C_20
REMARK   12  A    between atoms: C_20  and  C_23
REMARK   13  A    between atoms: C_23  and  C_24
REMARK                            x       y       z     vdW  Elec       q    Type
REMARK                         _______ _______ _______ _____ _____    ______ ____
ROOT
ATOM      1  C   UNL     1       7.013   6.063  17.722  0.00  0.00    +0.000 A 
ATOM      2  C   UNL     1       7.351   5.111  16.751  0.00  0.00    +0.000 A 
ATOM      3  C   UNL     1       6.356   4.461  16.024  0.00  0.00    +0.000 A 
ATOM      4  C   UNL     1       5.012   4.748  16.269  0.00  0.00    +0.000 A 
ATOM      5  C   UNL     1       4.655   5.675  17.249  0.00  0.00    +0.000 A 
ATOM      6  C   UNL     1       5.658   6.326  17.974  0.00  0.00    +0.000 A 
ENDROOT
BRANCH   1   7
ATOM      7  C   UNL     1       8.088   6.820  18.473  0.00  0.00    +0.000 C 
BRANCH   7   8
ATOM      8  C   UNL     1       8.135   8.293  18.046  0.00  0.00    +0.000 C 
BRANCH   8   9
ATOM      9  N   UNL     1       8.870   9.118  19.011  0.00  0.00    +0.000 NA
ATOM     10  H   UNL     1       8.305   9.252  19.853  0.00  0.00    +0.000 HD
BRANCH   9  11
ATOM     11  C   UNL     1       9.134  10.445  18.428  0.00  0.00    +0.000 C 
BRANCH  11  15
ATOM     12  C   UNL     1      10.633  13.533  20.143  0.00  0.00    +0.000 C 
ATOM     13  N   UNL     1      10.144  12.640  19.111  0.00  0.00    +0.000 N 
ATOM     14  C   UNL     1      10.317  13.021  17.719  0.00  0.00    +0.000 C 
ATOM     15  C   UNL     1       9.651  11.400  19.514  0.00  0.00    +0.000 C 
ATOM     16  O   UNL     1       9.629  11.053  20.697  0.00  0.00    +0.000 OA
ENDBRANCH  11  15
ENDBRANCH   9  11
ENDBRANCH   8   9
ENDBRANCH   7   8
ENDBRANCH   1   7
BRANCH   5  17
ATOM     17  O   UNL     1       3.309   5.872  17.395  0.00  0.00    +0.000 OA
BRANCH  17  18
ATOM     18  C   UNL     1       2.814   5.891  18.739  0.00  0.00    +0.000 C 
BRANCH  18  19
ATOM     19  C   UNL     1       1.790   4.780  18.943  0.00  0.00    +0.000 C 
ATOM     20  F   UNL     1       0.932   5.144  19.935  0.00  0.00    +0.000 F 
ATOM     21  F   UNL     1       1.041   4.625  17.822  0.00  0.00    +0.000 F 
BRANCH  19  22
ATOM     22  C   UNL     1       2.498   3.484  19.305  0.00  0.00    +0.000 C 
ATOM     23  F   UNL     1       2.957   2.889  18.163  0.00  0.00    +0.000 F 
ATOM     24  F   UNL     1       3.619   3.769  20.036  0.00  0.00    +0.000 F 
BRANCH  22  25
ATOM     25  C   UNL     1       1.617   2.508  20.074  0.00  0.00    +0.000 C 
ATOM     26  C   UNL     1       1.744   2.573  21.584  0.00  0.00    +0.000 C 
ATOM     27  F   UNL     1       0.309   2.672  19.741  0.00  0.00    +0.000 F 
ATOM     28  F   UNL     1       1.934   1.232  19.698  0.00  0.00    +0.000 F 
ENDBRANCH  22  25
ENDBRANCH  19  22
ENDBRANCH  18  19
ENDBRANCH  17  18
ENDBRANCH   5  17
TORSDOF 10
ENDMDL
MODEL 8
REMARK VINA RESULT:      -7.2      4.487      7.656
REMARK  Name = 
REMARK  13 active torsions:
REMARK  status: ('A' for Active; 'I' for Inactive)
REMARK    1  A    between atoms: C_1  and  N_2
REMARK    2  A    between atoms: N_2  and  C_3
REMARK    3  A    between atoms: C_4  and  C_6
REMARK    4  A    between atoms: C_6  and  N_7
REMARK    5  A    between atoms: N_7  and  C_8
REMARK    6  A    between atoms: C_8  and  C_9
REMARK    7  A    between atoms: C_9  and  C_10
REMARK    8  A    between atoms: C_14  and  O_15
REMARK    9  A    between atoms: O_15  and  C_16
REMARK   10  A    between atoms: C_16  and  C_17
REMARK   11  A    between atoms: C_17  and  C_20
REMARK   12  A    between atoms: C_20  and  C_23
REMARK   13  A    between atoms: C_23  and  C_24
REMARK                            x       y       z     vdW  Elec       q    Type
REMARK                         _______ _______ _______ _____ _____    ______ ____
ROOT
ATOM      1  C   UNL     1       1.174   8.441  20.078  0.00  0.00    +0.000 A 
ATOM      2  C   UNL     1       1.030   9.327  19.002  0.00  0.00    +0.000 A 
ATOM      3  C   UNL     1       1.833   9.200  17.871  0.00  0.00    +0.000 A 
ATOM      4  C   UNL     1       2.795   8.191  17.809  0.00  0.00    +0.000 A 
ATOM      5  C   UNL     1       2.970   7.314  18.880  0.00  0.00    +0.000 A 
ATOM      6  C   UNL     1       2.160   7.446  20.013  0.00  0.00    +0.000 A 
ENDROOT
BRANCH   1   7
ATOM      7  C   UNL     1       0.264   8.532  21.285  0.00  0.00    +0.000 C 
BRANCH   7   8
ATOM      8  C   UNL     1       1.041   8.951  22.540  0.00  0.00    +0.000 C 
BRANCH   8   9
ATOM      9  N   UNL     1       0.267   9.872  23.379  0.00  0.00    +0.000 NA
ATOM     10  H   UNL     1      -0.184   9.354  24.137  0.00  0.00    +0.000 HD
BRANCH   9  11
ATOM     11  C   UNL     1      -0.791  10.507  22.573  0.00  0.00    +0.000 C 
BRANCH  11  15
ATOM     12  C   UNL     1      -0.978  14.335  22.762  0.00  0.00    +0.000 C 
ATOM     13  N   UNL     1      -1.291  12.935  22.972  0.00  0.00    +0.000 N 
ATOM     14  C   UNL     1      -2.510  12.592  23.685  0.00  0.00    +0.000 C 
ATOM     15  C   UNL     1      -0.466  11.993  22.360  0.00  0.00    +0.000 C 
ATOM     16  O   UNL     1       0.494  12.316  21.656  0.00  0.00    +0.000 OA
ENDBRANCH  11  15
ENDBRANCH   9  11
ENDBRANCH   8   9
ENDBRANCH   7   8
ENDBRANCH   1   7
BRANCH   5  17
ATOM     17  O   UNL     1       3.943   6.368  18.700  0.00  0.00    +0.000 OA
BRANCH  17  18
ATOM     18  C   UNL     1       3.653   5.335  17.751  0.00  0.00    +0.000 C 
BRANCH  18  19
ATOM     19  C   UNL     1       3.378   4.018  18.467  0.00  0.00    +0.000 C 
ATOM     20  F   UNL     1       4.389   3.147  18.196  0.00  0.00    +0.000 F 
ATOM     21  F   UNL     1       3.384   4.209  19.811  0.00  0.00    +0.000 F 
BRANCH  19  22
ATOM     22  C   UNL     1       2.047   3.446  18.007  0.00  0.00    +0.000 C 
ATOM     23  F   UNL     1       1.278   4.453  17.495  0.00  0.00    +0.000 F 
ATOM     24  F   UNL     1       2.260   2.589  16.962  0.00  0.00    +0.000 F 
BRANCH  22  25
ATOM     25  C   UNL     1       1.284   2.727  19.113  0.00  0.00    +0.000 C 
ATOM     26  C   UNL     1       0.808   3.609  20.250  0.00  0.00    +0.000 C 
ATOM     27  F   UNL     1       0.215   2.057  18.606  0.00  0.00    +0.000 F 
ATOM     28  F   UNL     1       2.092   1.769  19.659  0.00  0.00    +0.000 F 
ENDBRANCH  22  25
ENDBRANCH  19  22
ENDBRANCH  18  19
ENDBRANCH  17  18
ENDBRANCH   5  17
TORSDOF 10
ENDMDL
MODEL 9
REMARK VINA RESULT:      -7.2      4.404      7.853
REMARK  Name = 
REMARK  13 active torsions:
REMARK  status: ('A' for Active; 'I' for Inactive)
REMARK    1  A    between atoms: C_1  and  N_2
REMARK    2  A    between atoms: N_2  and  C_3
REMARK    3  A    between atoms: C_4  and  C_6
REMARK    4  A    between atoms: C_6  and  N_7
REMARK    5  A    between atoms: N_7  and  C_8
REMARK    6  A    between atoms: C_8  and  C_9
REMARK    7  A    between atoms: C_9  and  C_10
REMARK    8  A    between atoms: C_14  and  O_15
REMARK    9  A    between atoms: O_15  and  C_16
REMARK   10  A    between atoms: C_16  and  C_17
REMARK   11  A    between atoms: C_17  and  C_20
REMARK   12  A    between atoms: C_20  and  C_23
REMARK   13  A    between atoms: C_23  and  C_24
REMARK                            x       y       z     vdW  Elec       q    Type
REMARK                         _______ _______ _______ _____ _____    ______ ____
ROOT
ATOM      1  C   UNL     1       1.850   4.713  19.979  0.00  0.00    +0.000 A 
ATOM      2  C   UNL     1       0.925   3.666  20.082  0.00  0.00    +0.000 A 
ATOM      3  C   UNL     1       0.868   2.675  19.105  0.00  0.00    +0.000 A 
ATOM      4  C   UNL     1       1.729   2.728  18.007  0.00  0.00    +0.000 A 
ATOM      5  C   UNL     1       2.641   3.776  17.874  0.00  0.00    +0.000 A 
ATOM      6  C   UNL     1       2.695   4.767  18.860  0.00  0.00    +0.000 A 
ENDROOT
BRANCH   1   7
ATOM      7  C   UNL     1       1.963   5.759  21.068  0.00  0.00    +0.000 C 
BRANCH   7   8
ATOM      8  C   UNL     1       1.655   7.162  20.529  0.00  0.00    +0.000 C 
BRANCH   8   9
ATOM      9  N   UNL     1       1.360   8.110  21.609  0.00  0.00    +0.000 NA
ATOM     10  H   UNL     1       0.656   7.712  22.234  0.00  0.00    +0.000 HD
BRANCH   9  11
ATOM     11  C   UNL     1       0.810   9.353  21.040  0.00  0.00    +0.000 C 
BRANCH  11  15
ATOM     12  C   UNL     1      -1.255  12.045  22.833  0.00  0.00    +0.000 C 
ATOM     13  N   UNL     1      -0.664  11.247  21.775  0.00  0.00    +0.000 N 
ATOM     14  C   UNL     1      -0.865  11.659  20.396  0.00  0.00    +0.000 C 
ATOM     15  C   UNL     1       0.176  10.201  22.152  0.00  0.00    +0.000 C 
ATOM     16  O   UNL     1       0.427   9.950  23.334  0.00  0.00    +0.000 OA
ENDBRANCH  11  15
ENDBRANCH   9  11
ENDBRANCH   8   9
ENDBRANCH   7   8
ENDBRANCH   1   7
BRANCH   5  17
ATOM     17  O   UNL     1       3.431   3.717  16.759  0.00  0.00    +0.000 OA
BRANCH  17  18
ATOM     18  C   UNL     1       4.844   3.794  16.979  0.00  0.00    +0.000 C 
BRANCH  18  19
ATOM     19  C   UNL     1       5.469   4.831  16.052  0.00  0.00    +0.000 C 
ATOM     20  F   UNL     1       5.574   4.303  14.802  0.00  0.00    +0.000 F 
ATOM     21  F   UNL     1       4.655   5.912  15.947  0.00  0.00    +0.000 F 
BRANCH  19  22
ATOM     22  C   UNL     1       6.840   5.233  16.574  0.00  0.00    +0.000 C 
ATOM     23  F   UNL     1       7.525   4.111  16.947  0.00  0.00    +0.000 F 
ATOM     24  F   UNL     1       7.571   5.778  15.554  0.00  0.00    +0.000 F 
BRANCH  22  25
ATOM     25  C   UNL     1       6.779   6.211  17.740  0.00  0.00    +0.000 C 
ATOM     26  C   UNL     1       6.967   5.595  19.113  0.00  0.00    +0.000 C 
ATOM     27  F   UNL     1       7.688   7.208  17.584  0.00  0.00    +0.000 F 
ATOM     28  F   UNL     1       5.557   6.826  17.740  0.00  0.00    +0.000 F 
ENDBRANCH  22  25
ENDBRANCH  19  22
ENDBRANCH  18  19
ENDBRANCH  17  18
ENDBRANCH   5  17
TORSDOF 10
ENDMDL
