MODEL 1
REMARK VINA RESULT:      -8.5      0.000      0.000
REMARK  Name = 
REMARK  4 active torsions:
REMARK  status: ('A' for Active; 'I' for Inactive)
REMARK    1  A    between atoms: C_2  and  C_9
REMARK    2  A    between atoms: N_3  and  C_4
REMARK    3  A    between atoms: C_12  and  C_13
REMARK    4  A    between atoms: C_14  and  C_15
REMARK                            x       y       z     vdW  Elec       q    Type
REMARK                         _______ _______ _______ _____ _____    ______ ____
ROOT
ATOM      1  C   UNL     1       6.009   5.604  17.478  0.00  0.00    +0.000 A 
ATOM      2  C   UNL     1       7.050   5.461  18.399  0.00  0.00    +0.000 A 
ATOM      3  C   UNL     1       7.907   6.535  18.642  0.00  0.00    +0.000 A 
ATOM      4  C   UNL     1       7.684   7.723  17.960  0.00  0.00    +0.000 A 
ATOM      5  N   UNL     1       6.696   7.892  17.053  0.00  0.00    +0.000 NA
ATOM      6  C   UNL     1       5.874   6.830  16.840  0.00  0.00    +0.000 A 
ENDROOT
BRANCH   1   8
ATOM      7  O   UNL     1       5.285   3.603  16.502  0.00  0.00    +0.000 OA
ATOM      8  C   UNL     1       5.034   4.503  17.296  0.00  0.00    +0.000 C 
ATOM      9  N   UNL     1       3.877   4.556  18.049  0.00  0.00    +0.000 N 
ATOM     10  H   UNL     1       3.611   5.426  18.491  0.00  0.00    +0.000 HD
BRANCH   9  11
ATOM     11  C   UNL     1       2.894   3.493  17.989  0.00  0.00    +0.000 C 
ATOM     12  C   UNL     1       3.120   2.436  19.064  0.00  0.00    +0.000 C 
ATOM     13  C   UNL     1       1.804   1.673  19.101  0.00  0.00    +0.000 C 
ATOM     14  C   UNL     1       0.729   2.680  18.691  0.00  0.00    +0.000 C 
ATOM     15  C   UNL     1       1.466   3.953  18.274  0.00  0.00    +0.000 C 
ENDBRANCH   9  11
ENDBRANCH   1   8
BRANCH   4  16
ATOM     16  C   UNL     1       8.469   8.887  18.229  0.00  0.00    +0.000 C 
ATOM     17  C   UNL     1       9.098   9.879  18.478  0.00  0.00    +0.000 C 
BRANCH  17  18
ATOM     18  C   UNL     1       9.827  11.078  18.772  0.00  0.00    +0.000 A 
ATOM     19  C   UNL     1      10.168  11.965  17.747  0.00  0.00    +0.000 A 
ATOM     20  C   UNL     1      10.893  13.123  18.035  0.00  0.00    +0.000 A 
ATOM     21  C   UNL     1      11.278  13.397  19.348  0.00  0.00    +0.000 A 
ATOM     22  C   UNL     1      10.934  12.516  20.373  0.00  0.00    +0.000 A 
ATOM     23  C   UNL     1      10.209  11.358  20.086  0.00  0.00    +0.000 A 
ENDBRANCH  17  18
ENDBRANCH   4  16
TORSDOF 4
ENDMDL
MODEL 2
REMARK VINA RESULT:      -8.4      0.449      1.090
REMARK  Name = 
REMARK  4 active torsions:
REMARK  status: ('A' for Active; 'I' for Inactive)
REMARK    1  A    between atoms: C_2  and  C_9
REMARK    2  A    between atoms: N_3  and  C_4
REMARK    3  A    between atoms: C_12  and  C_13
REMARK    4  A    between atoms: C_14  and  C_15
REMARK                            x       y       z     vdW  Elec       q    Type
REMARK                         _______ _______ _______ _____ _____    ______ ____
ROOT
ATOM      1  C   UNL     1       6.094   5.678  17.623  0.00  0.00    +0.000 A 
ATOM      2  C   UNL     1       7.169   5.584  18.511  0.00  0.00    +0.000 A 
ATOM      3  C   UNL     1       8.015   6.679  18.687  0.00  0.00    +0.000 A 
ATOM      4  C   UNL     1       7.748   7.840  17.974  0.00  0.00    +0.000 A 
ATOM      5  N   UNL     1       6.725   7.961  17.098  0.00  0.00    +0.000 NA
ATOM      6  C   UNL     1       5.915   6.879  16.950  0.00  0.00    +0.000 A 
ENDROOT
BRANCH   1   8
ATOM      7  O   UNL     1       5.220   3.781  16.566  0.00  0.00    +0.000 OA
ATOM      8  C   UNL     1       5.133   4.555  17.512  0.00  0.00    +0.000 C 
ATOM      9  N   UNL     1       4.178   4.444  18.504  0.00  0.00    +0.000 N 
ATOM     10  H   UNL     1       3.997   5.234  19.110  0.00  0.00    +0.000 HD
BRANCH   9  11
ATOM     11  C   UNL     1       3.236   3.343  18.518  0.00  0.00    +0.000 C 
ATOM     12  C   UNL     1       2.907   2.884  19.934  0.00  0.00    +0.000 C 
ATOM     13  C   UNL     1       1.645   2.051  19.758  0.00  0.00    +0.000 C 
ATOM     14  C   UNL     1       0.923   2.644  18.547  0.00  0.00    +0.000 C 
ATOM     15  C   UNL     1       1.860   3.698  17.958  0.00  0.00    +0.000 C 
ENDBRANCH   9  11
ENDBRANCH   1   8
BRANCH   4  16
ATOM     16  C   UNL     1       8.521   9.025  18.177  0.00  0.00    +0.000 C 
ATOM     17  C   UNL     1       9.142  10.034  18.372  0.00  0.00    +0.000 C 
BRANCH  17  18
ATOM     18  C   UNL     1       9.860  11.252  18.605  0.00  0.00    +0.000 A 
ATOM     19  C   UNL     1      10.635  11.406  19.758  0.00  0.00    +0.000 A 
ATOM     20  C   UNL     1      11.318  12.602  19.988  0.00  0.00    +0.000 A 
ATOM     21  C   UNL     1      11.229  13.645  19.067  0.00  0.00    +0.000 A 
ATOM     22  C   UNL     1      10.460  13.493  17.914  0.00  0.00    +0.000 A 
ATOM     23  C   UNL     1       9.776  12.298  17.682  0.00  0.00    +0.000 A 
ENDBRANCH  17  18
ENDBRANCH   4  16
TORSDOF 4
ENDMDL
MODEL 3
REMARK VINA RESULT:      -7.4      1.122      1.530
REMARK  Name = 
REMARK  4 active torsions:
REMARK  status: ('A' for Active; 'I' for Inactive)
REMARK    1  A    between atoms: C_2  and  C_9
REMARK    2  A    between atoms: N_3  and  C_4
REMARK    3  A    between atoms: C_12  and  C_13
REMARK    4  A    between atoms: C_14  and  C_15
REMARK                            x       y       z     vdW  Elec       q    Type
REMARK                         _______ _______ _______ _____ _____    ______ ____
ROOT
ATOM      1  C   UNL     1       6.748   6.163  17.849  0.00  0.00    +0.000 A 
ATOM      2  C   UNL     1       6.361   7.308  17.149  0.00  0.00    +0.000 A 
ATOM      3  C   UNL     1       7.063   8.499  17.333  0.00  0.00    +0.000 A 
ATOM      4  C   UNL     1       8.141   8.500  18.208  0.00  0.00    +0.000 A 
ATOM      5  N   UNL     1       8.535   7.414  18.911  0.00  0.00    +0.000 NA
ATOM      6  C   UNL     1       7.835   6.267  18.708  0.00  0.00    +0.000 A 
ENDROOT
BRANCH   1   8
ATOM      7  O   UNL     1       6.607   4.061  16.829  0.00  0.00    +0.000 OA
ATOM      8  C   UNL     1       6.073   4.872  17.577  0.00  0.00    +0.000 C 
ATOM      9  N   UNL     1       4.858   4.654  18.197  0.00  0.00    +0.000 N 
ATOM     10  H   UNL     1       4.355   5.436  18.595  0.00  0.00    +0.000 HD
BRANCH   9  11
ATOM     11  C   UNL     1       4.153   3.396  18.044  0.00  0.00    +0.000 C 
ATOM     12  C   UNL     1       3.936   2.691  19.378  0.00  0.00    +0.000 C 
ATOM     13  C   UNL     1       2.862   1.658  19.068  0.00  0.00    +0.000 C 
ATOM     14  C   UNL     1       2.025   2.256  17.937  0.00  0.00    +0.000 C 
ATOM     15  C   UNL     1       2.729   3.546  17.514  0.00  0.00    +0.000 C 
ENDBRANCH   9  11
ENDBRANCH   1   8
BRANCH   4  16
ATOM     16  C   UNL     1       8.956   9.662  18.373  0.00  0.00    +0.000 C 
ATOM     17  C   UNL     1       9.645  10.641  18.471  0.00  0.00    +0.000 C 
BRANCH  17  18
ATOM     18  C   UNL     1      10.482  11.800  18.569  0.00  0.00    +0.000 A 
ATOM     19  C   UNL     1      10.358  12.840  17.643  0.00  0.00    +0.000 A 
ATOM     20  C   UNL     1      11.188  13.960  17.732  0.00  0.00    +0.000 A 
ATOM     21  C   UNL     1      12.143  14.042  18.746  0.00  0.00    +0.000 A 
ATOM     22  C   UNL     1      12.266  13.008  19.673  0.00  0.00    +0.000 A 
ATOM     23  C   UNL     1      11.436  11.888  19.586  0.00  0.00    +0.000 A 
ENDBRANCH  17  18
ENDBRANCH   4  16
TORSDOF 4
ENDMDL
MODEL 4
REMARK VINA RESULT:      -7.4      5.385      7.649
REMARK  Name = 
REMARK  4 active torsions:
REMARK  status: ('A' for Active; 'I' for Inactive)
REMARK    1  A    between atoms: C_2  and  C_9
REMARK    2  A    between atoms: N_3  and  C_4
REMARK    3  A    between atoms: C_12  and  C_13
REMARK    4  A    between atoms: C_14  and  C_15
REMARK                            x       y       z     vdW  Elec       q    Type
REMARK                         _______ _______ _______ _____ _____    ______ ____
ROOT
ATOM      1  C   UNL     1       4.107   5.392  17.401  0.00  0.00    +0.000 A 
ATOM      2  C   UNL     1       3.387   4.876  18.482  0.00  0.00    +0.000 A 
ATOM      3  C   UNL     1       2.653   5.740  19.296  0.00  0.00    +0.000 A 
ATOM      4  C   UNL     1       2.657   7.094  18.992  0.00  0.00    +0.000 A 
ATOM      5  N   UNL     1       3.352   7.628  17.962  0.00  0.00    +0.000 NA
ATOM      6  C   UNL     1       4.053   6.762  17.184  0.00  0.00    +0.000 A 
ENDROOT
BRANCH   1   8
ATOM      7  O   UNL     1       4.816   3.267  16.721  0.00  0.00    +0.000 OA
ATOM      8  C   UNL     1       4.800   4.467  16.473  0.00  0.00    +0.000 C 
ATOM      9  N   UNL     1       5.395   5.024  15.358  0.00  0.00    +0.000 N 
ATOM     10  H   UNL     1       5.565   6.021  15.331  0.00  0.00    +0.000 HD
BRANCH   9  11
ATOM     11  C   UNL     1       6.041   4.195  14.359  0.00  0.00    +0.000 C 
ATOM     12  C   UNL     1       5.076   3.755  13.265  0.00  0.00    +0.000 C 
ATOM     13  C   UNL     1       5.993   3.275  12.148  0.00  0.00    +0.000 C 
ATOM     14  C   UNL     1       7.276   4.096  12.285  0.00  0.00    +0.000 C 
ATOM     15  C   UNL     1       7.132   4.914  13.569  0.00  0.00    +0.000 C 
ENDBRANCH   9  11
ENDBRANCH   1   8
BRANCH   4  16
ATOM     16  C   UNL     1       1.855   8.018  19.730  0.00  0.00    +0.000 C 
ATOM     17  C   UNL     1       1.178   8.768  20.381  0.00  0.00    +0.000 C 
BRANCH  17  18
ATOM     18  C   UNL     1       0.354   9.641  21.163  0.00  0.00    +0.000 A 
ATOM     19  C   UNL     1      -0.086  10.858  20.634  0.00  0.00    +0.000 A 
ATOM     20  C   UNL     1      -0.874  11.713  21.406  0.00  0.00    +0.000 A 
ATOM     21  C   UNL     1      -1.223  11.355  22.709  0.00  0.00    +0.000 A 
ATOM     22  C   UNL     1      -0.788  10.141  23.237  0.00  0.00    +0.000 A 
ATOM     23  C   UNL     1      -0.001   9.283  22.466  0.00  0.00    +0.000 A 
ENDBRANCH  17  18
ENDBRANCH   4  16
TORSDOF 4
ENDMDL
MODEL 5
REMARK VINA RESULT:      -7.4      5.344      7.677
REMARK  Name = 
REMARK  4 active torsions:
REMARK  status: ('A' for Active; 'I' for Inactive)
REMARK    1  A    between atoms: C_2  and  C_9
REMARK    2  A    between atoms: N_3  and  C_4
REMARK    3  A    between atoms: C_12  and  C_13
REMARK    4  A    between atoms: C_14  and  C_15
REMARK                            x       y       z     vdW  Elec       q    Type
REMARK                         _______ _______ _______ _____ _____    ______ ____
ROOT
ATOM      1  C   UNL     1       4.109   5.268  17.430  0.00  0.00    +0.000 A 
ATOM      2  C   UNL     1       3.293   4.715  18.420  0.00  0.00    +0.000 A 
ATOM      3  C   UNL     1       2.546   5.555  19.246  0.00  0.00    +0.000 A 
ATOM      4  C   UNL     1       2.634   6.925  19.044  0.00  0.00    +0.000 A 
ATOM      5  N   UNL     1       3.423   7.495  18.105  0.00  0.00    +0.000 NA
ATOM      6  C   UNL     1       4.136   6.651  17.312  0.00  0.00    +0.000 A 
ENDROOT
BRANCH   1   8
ATOM      7  O   UNL     1       4.887   3.176  16.722  0.00  0.00    +0.000 OA
ATOM      8  C   UNL     1       4.821   4.377  16.483  0.00  0.00    +0.000 C 
ATOM      9  N   UNL     1       5.376   4.964  15.363  0.00  0.00    +0.000 N 
ATOM     10  H   UNL     1       5.507   5.966  15.341  0.00  0.00    +0.000 HD
BRANCH   9  11
ATOM     11  C   UNL     1       6.035   4.167  14.347  0.00  0.00    +0.000 C 
ATOM     12  C   UNL     1       5.078   3.733  13.244  0.00  0.00    +0.000 C 
ATOM     13  C   UNL     1       6.002   3.293  12.117  0.00  0.00    +0.000 C 
ATOM     14  C   UNL     1       7.271   4.133  12.271  0.00  0.00    +0.000 C 
ATOM     15  C   UNL     1       7.114   4.921  13.572  0.00  0.00    +0.000 C 
ENDBRANCH   9  11
ENDBRANCH   1   8
BRANCH   4  16
ATOM     16  C   UNL     1       1.827   7.835  19.795  0.00  0.00    +0.000 C 
ATOM     17  C   UNL     1       1.179   8.627  20.424  0.00  0.00    +0.000 C 
BRANCH  17  18
ATOM     18  C   UNL     1       0.428   9.578  21.190  0.00  0.00    +0.000 A 
ATOM     19  C   UNL     1      -0.002   9.261  22.481  0.00  0.00    +0.000 A 
ATOM     20  C   UNL     1      -0.749  10.184  23.217  0.00  0.00    +0.000 A 
ATOM     21  C   UNL     1      -1.066  11.425  22.663  0.00  0.00    +0.000 A 
ATOM     22  C   UNL     1      -0.635  11.744  21.377  0.00  0.00    +0.000 A 
ATOM     23  C   UNL     1       0.112  10.823  20.640  0.00  0.00    +0.000 A 
ENDBRANCH  17  18
ENDBRANCH   4  16
TORSDOF 4
ENDMDL
MODEL 6
REMARK VINA RESULT:      -7.4      1.024      1.693
REMARK  Name = 
REMARK  4 active torsions:
REMARK  status: ('A' for Active; 'I' for Inactive)
REMARK    1  A    between atoms: C_2  and  C_9
REMARK    2  A    between atoms: N_3  and  C_4
REMARK    3  A    between atoms: C_12  and  C_13
REMARK    4  A    between atoms: C_14  and  C_15
REMARK                            x       y       z     vdW  Elec       q    Type
REMARK                         _______ _______ _______ _____ _____    ______ ____
ROOT
ATOM      1  C   UNL     1       6.493   6.157  17.773  0.00  0.00    +0.000 A 
ATOM      2  C   UNL     1       6.133   7.344  17.129  0.00  0.00    +0.000 A 
ATOM      3  C   UNL     1       6.906   8.490  17.314  0.00  0.00    +0.000 A 
ATOM      4  C   UNL     1       8.024   8.405  18.133  0.00  0.00    +0.000 A 
ATOM      5  N   UNL     1       8.394   7.277  18.781  0.00  0.00    +0.000 NA
ATOM      6  C   UNL     1       7.624   6.176  18.578  0.00  0.00    +0.000 A 
ENDROOT
BRANCH   1   8
ATOM      7  O   UNL     1       6.252   4.037  16.808  0.00  0.00    +0.000 OA
ATOM      8  C   UNL     1       5.737   4.913  17.494  0.00  0.00    +0.000 C 
ATOM      9  N   UNL     1       4.471   4.810  18.038  0.00  0.00    +0.000 N 
ATOM     10  H   UNL     1       4.007   5.642  18.377  0.00  0.00    +0.000 HD
BRANCH   9  11
ATOM     11  C   UNL     1       3.681   3.606  17.876  0.00  0.00    +0.000 C 
ATOM     12  C   UNL     1       3.903   2.614  19.011  0.00  0.00    +0.000 C 
ATOM     13  C   UNL     1       2.727   1.655  18.886  0.00  0.00    +0.000 C 
ATOM     14  C   UNL     1       1.584   2.477  18.288  0.00  0.00    +0.000 C 
ATOM     15  C   UNL     1       2.173   3.843  17.935  0.00  0.00    +0.000 C 
ENDBRANCH   9  11
ENDBRANCH   1   8
BRANCH   4  16
ATOM     16  C   UNL     1       8.908   9.517  18.293  0.00  0.00    +0.000 C 
ATOM     17  C   UNL     1       9.645  10.461  18.388  0.00  0.00    +0.000 C 
BRANCH  17  18
ATOM     18  C   UNL     1      10.534  11.581  18.478  0.00  0.00    +0.000 A 
ATOM     19  C   UNL     1      11.471  11.656  19.512  0.00  0.00    +0.000 A 
ATOM     20  C   UNL     1      12.324  12.758  19.605  0.00  0.00    +0.000 A 
ATOM     21  C   UNL     1      12.243  13.786  18.665  0.00  0.00    +0.000 A 
ATOM     22  C   UNL     1      11.312  13.711  17.630  0.00  0.00    +0.000 A 
ATOM     23  C   UNL     1      10.458  12.609  17.535  0.00  0.00    +0.000 A 
ENDBRANCH  17  18
ENDBRANCH   4  16
TORSDOF 4
ENDMDL
MODEL 7
REMARK VINA RESULT:      -7.3      0.997      1.335
REMARK  Name = 
REMARK  4 active torsions:
REMARK  status: ('A' for Active; 'I' for Inactive)
REMARK    1  A    between atoms: C_2  and  C_9
REMARK    2  A    between atoms: N_3  and  C_4
REMARK    3  A    between atoms: C_12  and  C_13
REMARK    4  A    between atoms: C_14  and  C_15
REMARK                            x       y       z     vdW  Elec       q    Type
REMARK                         _______ _______ _______ _____ _____    ______ ____
ROOT
ATOM      1  C   UNL     1       6.460   6.083  17.868  0.00  0.00    +0.000 A 
ATOM      2  C   UNL     1       7.530   6.060  18.767  0.00  0.00    +0.000 A 
ATOM      3  C   UNL     1       8.364   7.174  18.874  0.00  0.00    +0.000 A 
ATOM      4  C   UNL     1       8.090   8.280  18.082  0.00  0.00    +0.000 A 
ATOM      5  N   UNL     1       7.072   8.332  17.194  0.00  0.00    +0.000 NA
ATOM      6  C   UNL     1       6.274   7.235  17.115  0.00  0.00    +0.000 A 
ENDROOT
BRANCH   1   8
ATOM      7  O   UNL     1       5.671   4.058  16.999  0.00  0.00    +0.000 OA
ATOM      8  C   UNL     1       5.511   4.946  17.829  0.00  0.00    +0.000 C 
ATOM      9  N   UNL     1       4.482   4.953  18.750  0.00  0.00    +0.000 N 
ATOM     10  H   UNL     1       4.254   5.812  19.234  0.00  0.00    +0.000 HD
BRANCH   9  11
ATOM     11  C   UNL     1       3.540   3.854  18.832  0.00  0.00    +0.000 C 
ATOM     12  C   UNL     1       2.830   3.603  17.507  0.00  0.00    +0.000 C 
ATOM     13  C   UNL     1       2.232   2.213  17.676  0.00  0.00    +0.000 C 
ATOM     14  C   UNL     1       3.168   1.474  18.634  0.00  0.00    +0.000 C 
ATOM     15  C   UNL     1       4.191   2.502  19.119  0.00  0.00    +0.000 C 
ENDBRANCH   9  11
ENDBRANCH   1   8
BRANCH   4  16
ATOM     16  C   UNL     1       8.851   9.484  18.208  0.00  0.00    +0.000 C 
ATOM     17  C   UNL     1       9.464  10.508  18.343  0.00  0.00    +0.000 C 
BRANCH  17  18
ATOM     18  C   UNL     1      10.171  11.744  18.504  0.00  0.00    +0.000 A 
ATOM     19  C   UNL     1       9.800  12.871  17.766  0.00  0.00    +0.000 A 
ATOM     20  C   UNL     1      10.504  14.068  17.914  0.00  0.00    +0.000 A 
ATOM     21  C   UNL     1      11.580  14.141  18.800  0.00  0.00    +0.000 A 
ATOM     22  C   UNL     1      11.949  13.019  19.540  0.00  0.00    +0.000 A 
ATOM     23  C   UNL     1      11.246  11.821  19.394  0.00  0.00    +0.000 A 
ENDBRANCH  17  18
ENDBRANCH   4  16
TORSDOF 4
ENDMDL
MODEL 8
REMARK VINA RESULT:      -7.1      5.278      7.718
REMARK  Name = 
REMARK  4 active torsions:
REMARK  status: ('A' for Active; 'I' for Inactive)
REMARK    1  A    between atoms: C_2  and  C_9
REMARK    2  A    between atoms: N_3  and  C_4
REMARK    3  A    between atoms: C_12  and  C_13
REMARK    4  A    between atoms: C_14  and  C_15
REMARK                            x       y       z     vdW  Elec       q    Type
REMARK                         _______ _______ _______ _____ _____    ______ ____
ROOT
ATOM      1  C   UNL     1       4.261   5.616  17.053  0.00  0.00    +0.000 A 
ATOM      2  C   UNL     1       4.221   6.997  16.849  0.00  0.00    +0.000 A 
ATOM      3  C   UNL     1       3.406   7.790  17.658  0.00  0.00    +0.000 A 
ATOM      4  C   UNL     1       2.665   7.170  18.654  0.00  0.00    +0.000 A 
ATOM      5  N   UNL     1       2.669   5.836  18.871  0.00  0.00    +0.000 NA
ATOM      6  C   UNL     1       3.476   5.090  18.071  0.00  0.00    +0.000 A 
ENDROOT
BRANCH   1   8
ATOM      7  O   UNL     1       5.960   4.018  16.854  0.00  0.00    +0.000 OA
ATOM      8  C   UNL     1       5.204   4.785  16.268  0.00  0.00    +0.000 C 
ATOM      9  N   UNL     1       5.173   4.925  14.894  0.00  0.00    +0.000 N 
ATOM     10  H   UNL     1       4.720   5.732  14.487  0.00  0.00    +0.000 HD
BRANCH   9  11
ATOM     11  C   UNL     1       6.012   4.109  14.038  0.00  0.00    +0.000 C 
ATOM     12  C   UNL     1       5.240   3.529  12.858  0.00  0.00    +0.000 C 
ATOM     13  C   UNL     1       6.332   3.080  11.899  0.00  0.00    +0.000 C 
ATOM     14  C   UNL     1       7.513   4.020  12.146  0.00  0.00    +0.000 C 
ATOM     15  C   UNL     1       7.134   4.884  13.349  0.00  0.00    +0.000 C 
ENDBRANCH   9  11
ENDBRANCH   1   8
BRANCH   4  16
ATOM     16  C   UNL     1       1.880   7.934  19.573  0.00  0.00    +0.000 C 
ATOM     17  C   UNL     1       1.221   8.606  20.319  0.00  0.00    +0.000 C 
BRANCH  17  18
ATOM     18  C   UNL     1       0.451   9.430  21.203  0.00  0.00    +0.000 A 
ATOM     19  C   UNL     1      -0.086  10.639  20.752  0.00  0.00    +0.000 A 
ATOM     20  C   UNL     1      -0.821  11.447  21.622  0.00  0.00    +0.000 A 
ATOM     21  C   UNL     1      -1.022  11.047  22.944  0.00  0.00    +0.000 A 
ATOM     22  C   UNL     1      -0.492   9.839  23.394  0.00  0.00    +0.000 A 
ATOM     23  C   UNL     1       0.244   9.030  22.526  0.00  0.00    +0.000 A 
ENDBRANCH  17  18
ENDBRANCH   4  16
TORSDOF 4
ENDMDL
MODEL 9
REMARK VINA RESULT:      -7.1      0.964      1.445
REMARK  Name = 
REMARK  4 active torsions:
REMARK  status: ('A' for Active; 'I' for Inactive)
REMARK    1  A    between atoms: C_2  and  C_9
REMARK    2  A    between atoms: N_3  and  C_4
REMARK    3  A    between atoms: C_12  and  C_13
REMARK    4  A    between atoms: C_14  and  C_15
REMARK                            x       y       z     vdW  Elec       q    Type
REMARK                         _______ _______ _______ _____ _____    ______ ____
ROOT
ATOM      1  C   UNL     1       6.101   5.860  17.873  0.00  0.00    +0.000 A 
ATOM      2  C   UNL     1       7.204   5.864  18.730  0.00  0.00    +0.000 A 
ATOM      3  C   UNL     1       8.061   6.965  18.745  0.00  0.00    +0.000 A 
ATOM      4  C   UNL     1       7.776   8.033  17.905  0.00  0.00    +0.000 A 
ATOM      5  N   UNL     1       6.726   8.057  17.054  0.00  0.00    +0.000 NA
ATOM      6  C   UNL     1       5.906   6.973  17.065  0.00  0.00    +0.000 A 
ENDROOT
BRANCH   1   8
ATOM      7  O   UNL     1       5.086   3.936  17.008  0.00  0.00    +0.000 OA
ATOM      8  C   UNL     1       5.131   4.741  17.932  0.00  0.00    +0.000 C 
ATOM      9  N   UNL     1       4.320   4.669  19.047  0.00  0.00    +0.000 N 
ATOM     10  H   UNL     1       4.225   5.479  19.646  0.00  0.00    +0.000 HD
BRANCH   9  11
ATOM     11  C   UNL     1       3.385   3.576  19.226  0.00  0.00    +0.000 C 
ATOM     12  C   UNL     1       2.017   3.883  18.627  0.00  0.00    +0.000 C 
ATOM     13  C   UNL     1       1.345   2.520  18.546  0.00  0.00    +0.000 C 
ATOM     14  C   UNL     1       2.479   1.510  18.360  0.00  0.00    +0.000 C 
ATOM     15  C   UNL     1       3.784   2.294  18.498  0.00  0.00    +0.000 C 
ENDBRANCH   9  11
ENDBRANCH   1   8
BRANCH   4  16
ATOM     16  C   UNL     1       8.562   9.227  17.936  0.00  0.00    +0.000 C 
ATOM     17  C   UNL     1       9.192  10.249  17.981  0.00  0.00    +0.000 C 
BRANCH  17  18
ATOM     18  C   UNL     1       9.920  11.482  18.027  0.00  0.00    +0.000 A 
ATOM     19  C   UNL     1      11.282  11.485  18.340  0.00  0.00    +0.000 A 
ATOM     20  C   UNL     1      11.984  12.691  18.401  0.00  0.00    +0.000 A 
ATOM     21  C   UNL     1      11.326  13.895  18.148  0.00  0.00    +0.000 A 
ATOM     22  C   UNL     1       9.968  13.894  17.831  0.00  0.00    +0.000 A 
ATOM     23  C   UNL     1       9.265  12.689  17.770  0.00  0.00    +0.000 A 
ENDBRANCH  17  18
ENDBRANCH   4  16
TORSDOF 4
ENDMDL
