MODEL 1
REMARK VINA RESULT:      -7.6      0.000      0.000
REMARK  Name = 
REMARK  3 active torsions:
REMARK  status: ('A' for Active; 'I' for Inactive)
REMARK    1  A    between atoms: C_1  and  C_2
REMARK    2  A    between atoms: C_4  and  C_5
REMARK    3  A    between atoms: N_17  and  C_18
REMARK                            x       y       z     vdW  Elec       q    Type
REMARK                         _______ _______ _______ _____ _____    ______ ____
ROOT
ATOM      1  C   UNL     1       0.348   9.465  23.429  0.00  0.00    +0.000 C 
ATOM      2  C   UNL     1       0.434   9.378  21.957  0.00  0.00    +0.000 A 
ATOM      3  C   UNL     1       0.284  10.425  21.034  0.00  0.00    +0.000 A 
ATOM      4  C   UNL     1       0.597   9.883  19.812  0.00  0.00    +0.000 A 
ATOM      5  C   UNL     1       0.632  10.571  18.489  0.00  0.00    +0.000 C 
ATOM      6  N   UNL     1       1.015   8.565  20.074  0.00  0.00    +0.000 N 
ATOM      7  C   UNL     1       1.864   7.746  19.248  0.00  0.00    +0.000 A 
ATOM      8  N   UNL     1       2.390   8.454  18.211  0.00  0.00    +0.000 NA
ATOM      9  N   UNL     1       3.434   8.022  17.587  0.00  0.00    +0.000 NA
ATOM     10  C   UNL     1       3.873   6.796  17.913  0.00  0.00    +0.000 A 
ATOM     11  C   UNL     1       4.935   6.084  17.358  0.00  0.00    +0.000 A 
ATOM     12  C   UNL     1       5.812   6.400  16.304  0.00  0.00    +0.000 A 
ATOM     13  C   UNL     1       5.512   5.571  15.241  0.00  0.00    +0.000 A 
ATOM     14  C   UNL     1       5.302   4.213  15.476  0.00  0.00    +0.000 A 
ATOM     15  C   UNL     1       5.034   3.738  16.774  0.00  0.00    +0.000 A 
ATOM     16  C   UNL     1       4.655   4.753  17.655  0.00  0.00    +0.000 A 
ATOM     17  N   UNL     1       3.864   4.781  18.813  0.00  0.00    +0.000 N 
ATOM     18  C   UNL     1       3.619   3.645  19.668  0.00  0.00    +0.000 C 
ATOM     19  C   UNL     1       3.244   6.021  18.874  0.00  0.00    +0.000 A 
ATOM     20  N   UNL     1       2.224   6.470  19.644  0.00  0.00    +0.000 NA
ATOM     21  N   UNL     1       0.721   8.218  21.359  0.00  0.00    +0.000 NA
ENDROOT
TORSDOF 0
ENDMDL
MODEL 2
REMARK VINA RESULT:      -7.5      1.750      6.743
REMARK  Name = 
REMARK  3 active torsions:
REMARK  status: ('A' for Active; 'I' for Inactive)
REMARK    1  A    between atoms: C_1  and  C_2
REMARK    2  A    between atoms: C_4  and  C_5
REMARK    3  A    between atoms: N_17  and  C_18
REMARK                            x       y       z     vdW  Elec       q    Type
REMARK                         _______ _______ _______ _____ _____    ______ ____
ROOT
ATOM      1  C   UNL     1       1.266   2.890  20.615  0.00  0.00    +0.000 C 
ATOM      2  C   UNL     1       1.931   4.117  20.132  0.00  0.00    +0.000 A 
ATOM      3  C   UNL     1       2.672   4.271  18.950  0.00  0.00    +0.000 A 
ATOM      4  C   UNL     1       2.955   5.612  18.869  0.00  0.00    +0.000 A 
ATOM      5  C   UNL     1       3.693   6.327  17.788  0.00  0.00    +0.000 C 
ATOM      6  N   UNL     1       2.287   6.211  19.953  0.00  0.00    +0.000 N 
ATOM      7  C   UNL     1       1.875   7.587  20.064  0.00  0.00    +0.000 A 
ATOM      8  N   UNL     1       2.052   8.260  18.894  0.00  0.00    +0.000 NA
ATOM      9  N   UNL     1       1.425   9.366  18.674  0.00  0.00    +0.000 NA
ATOM     10  C   UNL     1       0.719   9.877  19.694  0.00  0.00    +0.000 A 
ATOM     11  C   UNL     1       0.002  11.073  19.734  0.00  0.00    +0.000 A 
ATOM     12  C   UNL     1      -0.162  12.086  18.773  0.00  0.00    +0.000 A 
ATOM     13  C   UNL     1       0.521  13.203  19.213  0.00  0.00    +0.000 A 
ATOM     14  C   UNL     1       0.395  13.595  20.545  0.00  0.00    +0.000 A 
ATOM     15  C   UNL     1      -0.104  12.706  21.516  0.00  0.00    +0.000 A 
ATOM     16  C   UNL     1      -0.092  11.376  21.090  0.00  0.00    +0.000 A 
ATOM     17  N   UNL     1      -0.007  10.148  21.761  0.00  0.00    +0.000 N 
ATOM     18  C   UNL     1      -0.390   9.934  23.135  0.00  0.00    +0.000 C 
ATOM     19  C   UNL     1       0.657   9.256  20.931  0.00  0.00    +0.000 A 
ATOM     20  N   UNL     1       1.193   8.036  21.180  0.00  0.00    +0.000 NA
ATOM     21  N   UNL     1       1.834   5.260  20.818  0.00  0.00    +0.000 NA
ENDROOT
TORSDOF 0
ENDMDL
MODEL 3
REMARK VINA RESULT:      -7.3      1.454      3.506
REMARK  Name = 
REMARK  3 active torsions:
REMARK  status: ('A' for Active; 'I' for Inactive)
REMARK    1  A    between atoms: C_1  and  C_2
REMARK    2  A    between atoms: C_4  and  C_5
REMARK    3  A    between atoms: N_17  and  C_18
REMARK                            x       y       z     vdW  Elec       q    Type
REMARK                         _______ _______ _______ _____ _____    ______ ____
ROOT
ATOM      1  C   UNL     1      -0.510  12.113  18.514  0.00  0.00    +0.000 C 
ATOM      2  C   UNL     1       0.003  11.192  19.548  0.00  0.00    +0.000 A 
ATOM      3  C   UNL     1      -0.521  10.983  20.834  0.00  0.00    +0.000 A 
ATOM      4  C   UNL     1       0.199   9.937  21.356  0.00  0.00    +0.000 A 
ATOM      5  C   UNL     1       0.030   9.286  22.687  0.00  0.00    +0.000 C 
ATOM      6  N   UNL     1       1.052   9.506  20.323  0.00  0.00    +0.000 N 
ATOM      7  C   UNL     1       1.652   8.204  20.182  0.00  0.00    +0.000 A 
ATOM      8  N   UNL     1       1.164   7.325  21.099  0.00  0.00    +0.000 NA
ATOM      9  N   UNL     1       1.288   6.053  20.917  0.00  0.00    +0.000 NA
ATOM     10  C   UNL     1       2.033   5.659  19.873  0.00  0.00    +0.000 A 
ATOM     11  C   UNL     1       2.364   4.359  19.490  0.00  0.00    +0.000 A 
ATOM     12  C   UNL     1       2.066   3.117  20.077  0.00  0.00    +0.000 A 
ATOM     13  C   UNL     1       3.237   2.599  20.593  0.00  0.00    +0.000 A 
ATOM     14  C   UNL     1       4.399   2.650  19.825  0.00  0.00    +0.000 A 
ATOM     15  C   UNL     1       4.495   3.514  18.717  0.00  0.00    +0.000 A 
ATOM     16  C   UNL     1       3.513   4.506  18.717  0.00  0.00    +0.000 A 
ATOM     17  N   UNL     1       3.451   5.803  18.187  0.00  0.00    +0.000 N 
ATOM     18  C   UNL     1       4.239   6.275  17.074  0.00  0.00    +0.000 C 
ATOM     19  C   UNL     1       2.645   6.565  19.022  0.00  0.00    +0.000 A 
ATOM     20  N   UNL     1       2.450   7.904  19.092  0.00  0.00    +0.000 NA
ATOM     21  N   UNL     1       1.055  10.407  19.300  0.00  0.00    +0.000 NA
ENDROOT
TORSDOF 0
ENDMDL
MODEL 4
REMARK VINA RESULT:      -7.1      1.321      6.998
REMARK  Name = 
REMARK  3 active torsions:
REMARK  status: ('A' for Active; 'I' for Inactive)
REMARK    1  A    between atoms: C_1  and  C_2
REMARK    2  A    between atoms: C_4  and  C_5
REMARK    3  A    between atoms: N_17  and  C_18
REMARK                            x       y       z     vdW  Elec       q    Type
REMARK                         _______ _______ _______ _____ _____    ______ ____
ROOT
ATOM      1  C   UNL     1       5.872   4.140  16.365  0.00  0.00    +0.000 C 
ATOM      2  C   UNL     1       4.644   4.126  17.186  0.00  0.00    +0.000 A 
ATOM      3  C   UNL     1       4.226   3.118  18.069  0.00  0.00    +0.000 A 
ATOM      4  C   UNL     1       3.118   3.625  18.703  0.00  0.00    +0.000 A 
ATOM      5  C   UNL     1       2.298   2.979  19.767  0.00  0.00    +0.000 C 
ATOM      6  N   UNL     1       2.985   4.948  18.242  0.00  0.00    +0.000 N 
ATOM      7  C   UNL     1       2.309   6.033  18.905  0.00  0.00    +0.000 A 
ATOM      8  N   UNL     1       1.927   5.691  20.166  0.00  0.00    +0.000 NA
ATOM      9  N   UNL     1       1.647   6.602  21.036  0.00  0.00    +0.000 NA
ATOM     10  C   UNL     1       1.612   7.870  20.597  0.00  0.00    +0.000 A 
ATOM     11  C   UNL     1       1.286   9.022  21.312  0.00  0.00    +0.000 A 
ATOM     12  C   UNL     1       0.874   9.199  22.644  0.00  0.00    +0.000 A 
ATOM     13  C   UNL     1      -0.452   9.582  22.630  0.00  0.00    +0.000 A 
ATOM     14  C   UNL     1      -0.869  10.558  21.726  0.00  0.00    +0.000 A 
ATOM     15  C   UNL     1      -0.077  10.894  20.611  0.00  0.00    +0.000 A 
ATOM     16  C   UNL     1       0.905   9.940  20.336  0.00  0.00    +0.000 A 
ATOM     17  N   UNL     1       1.571   9.550  19.166  0.00  0.00    +0.000 N 
ATOM     18  C   UNL     1       1.745  10.385  18.002  0.00  0.00    +0.000 C 
ATOM     19  C   UNL     1       1.864   8.198  19.275  0.00  0.00    +0.000 A 
ATOM     20  N   UNL     1       2.282   7.300  18.350  0.00  0.00    +0.000 NA
ATOM     21  N   UNL     1       3.805   5.166  17.176  0.00  0.00    +0.000 NA
ENDROOT
TORSDOF 0
ENDMDL
MODEL 5
REMARK VINA RESULT:      -7.0      1.398      6.570
REMARK  Name = 
REMARK  3 active torsions:
REMARK  status: ('A' for Active; 'I' for Inactive)
REMARK    1  A    between atoms: C_1  and  C_2
REMARK    2  A    between atoms: C_4  and  C_5
REMARK    3  A    between atoms: N_17  and  C_18
REMARK                            x       y       z     vdW  Elec       q    Type
REMARK                         _______ _______ _______ _____ _____    ______ ____
ROOT
ATOM      1  C   UNL     1       1.989   2.536  18.948  0.00  0.00    +0.000 C 
ATOM      2  C   UNL     1       2.632   3.848  18.730  0.00  0.00    +0.000 A 
ATOM      3  C   UNL     1       3.448   4.225  17.652  0.00  0.00    +0.000 A 
ATOM      4  C   UNL     1       3.676   5.569  17.819  0.00  0.00    +0.000 A 
ATOM      5  C   UNL     1       4.457   6.480  16.934  0.00  0.00    +0.000 C 
ATOM      6  N   UNL     1       2.905   5.952  18.932  0.00  0.00    +0.000 N 
ATOM      7  C   UNL     1       2.424   7.275  19.238  0.00  0.00    +0.000 A 
ATOM      8  N   UNL     1       2.655   8.143  18.215  0.00  0.00    +0.000 NA
ATOM      9  N   UNL     1       1.996   9.250  18.134  0.00  0.00    +0.000 NA
ATOM     10  C   UNL     1       1.196   9.557  19.167  0.00  0.00    +0.000 A 
ATOM     11  C   UNL     1       0.426  10.705  19.349  0.00  0.00    +0.000 A 
ATOM     12  C   UNL     1       0.286  11.861  18.561  0.00  0.00    +0.000 A 
ATOM     13  C   UNL     1       0.884  12.908  19.234  0.00  0.00    +0.000 A 
ATOM     14  C   UNL     1       0.645  13.064  20.599  0.00  0.00    +0.000 A 
ATOM     15  C   UNL     1       0.119  12.007  21.365  0.00  0.00    +0.000 A 
ATOM     16  C   UNL     1       0.220  10.770  20.725  0.00  0.00    +0.000 A 
ATOM     17  N   UNL     1       0.313   9.449  21.186  0.00  0.00    +0.000 N 
ATOM     18  C   UNL     1      -0.159   8.993  22.471  0.00  0.00    +0.000 C 
ATOM     19  C   UNL     1       1.074   8.733  20.274  0.00  0.00    +0.000 A 
ATOM     20  N   UNL     1       1.645   7.506  20.357  0.00  0.00    +0.000 NA
ATOM     21  N   UNL     1       2.434   4.854  19.588  0.00  0.00    +0.000 NA
ENDROOT
TORSDOF 0
ENDMDL
MODEL 6
REMARK VINA RESULT:      -6.6      1.237      7.192
REMARK  Name = 
REMARK  3 active torsions:
REMARK  status: ('A' for Active; 'I' for Inactive)
REMARK    1  A    between atoms: C_1  and  C_2
REMARK    2  A    between atoms: C_4  and  C_5
REMARK    3  A    between atoms: N_17  and  C_18
REMARK                            x       y       z     vdW  Elec       q    Type
REMARK                         _______ _______ _______ _____ _____    ______ ____
ROOT
ATOM      1  C   UNL     1       5.868   6.111  16.306  0.00  0.00    +0.000 C 
ATOM      2  C   UNL     1       4.594   5.904  17.024  0.00  0.00    +0.000 A 
ATOM      3  C   UNL     1       4.151   4.724  17.643  0.00  0.00    +0.000 A 
ATOM      4  C   UNL     1       2.993   5.067  18.297  0.00  0.00    +0.000 A 
ATOM      5  C   UNL     1       2.129   4.195  19.143  0.00  0.00    +0.000 C 
ATOM      6  N   UNL     1       2.852   6.456  18.121  0.00  0.00    +0.000 N 
ATOM      7  C   UNL     1       2.107   7.364  18.955  0.00  0.00    +0.000 A 
ATOM      8  N   UNL     1       1.659   6.753  20.086  0.00  0.00    +0.000 NA
ATOM      9  N   UNL     1       1.301   7.452  21.111  0.00  0.00    +0.000 NA
ATOM     10  C   UNL     1       1.257   8.784  20.951  0.00  0.00    +0.000 A 
ATOM     11  C   UNL     1       0.857   9.751  21.872  0.00  0.00    +0.000 A 
ATOM     12  C   UNL     1       0.361   9.632  23.182  0.00  0.00    +0.000 A 
ATOM     13  C   UNL     1      -0.973   9.990  23.164  0.00  0.00    +0.000 A 
ATOM     14  C   UNL     1      -1.361  11.131  22.464  0.00  0.00    +0.000 A 
ATOM     15  C   UNL     1      -0.513  11.710  21.500  0.00  0.00    +0.000 A 
ATOM     16  C   UNL     1       0.510  10.852  21.093  0.00  0.00    +0.000 A 
ATOM     17  N   UNL     1       1.256  10.731  19.912  0.00  0.00    +0.000 N 
ATOM     18  C   UNL     1       1.477  11.800  18.967  0.00  0.00    +0.000 C 
ATOM     19  C   UNL     1       1.580   9.392  19.748  0.00  0.00    +0.000 A 
ATOM     20  N   UNL     1       2.078   8.719  18.682  0.00  0.00    +0.000 NA
ATOM     21  N   UNL     1       3.729   6.910  17.181  0.00  0.00    +0.000 NA
ENDROOT
TORSDOF 0
ENDMDL
MODEL 7
REMARK VINA RESULT:      -6.5      1.342      1.755
REMARK  Name = 
REMARK  3 active torsions:
REMARK  status: ('A' for Active; 'I' for Inactive)
REMARK    1  A    between atoms: C_1  and  C_2
REMARK    2  A    between atoms: C_4  and  C_5
REMARK    3  A    between atoms: N_17  and  C_18
REMARK                            x       y       z     vdW  Elec       q    Type
REMARK                         _______ _______ _______ _____ _____    ______ ____
ROOT
ATOM      1  C   UNL     1      -0.486  10.280  23.445  0.00  0.00    +0.000 C 
ATOM      2  C   UNL     1      -0.146   9.897  22.060  0.00  0.00    +0.000 A 
ATOM      3  C   UNL     1       0.130  10.756  20.985  0.00  0.00    +0.000 A 
ATOM      4  C   UNL     1       0.533   9.938  19.958  0.00  0.00    +0.000 A 
ATOM      5  C   UNL     1       0.977  10.338  18.592  0.00  0.00    +0.000 C 
ATOM      6  N   UNL     1       0.574   8.639  20.497  0.00  0.00    +0.000 N 
ATOM      7  C   UNL     1       1.348   7.525  20.013  0.00  0.00    +0.000 A 
ATOM      8  N   UNL     1       2.212   7.902  19.031  0.00  0.00    +0.000 NA
ATOM      9  N   UNL     1       3.225   7.161  18.730  0.00  0.00    +0.000 NA
ATOM     10  C   UNL     1       3.295   5.959  19.322  0.00  0.00    +0.000 A 
ATOM     11  C   UNL     1       4.247   4.958  19.132  0.00  0.00    +0.000 A 
ATOM     12  C   UNL     1       5.356   4.886  18.270  0.00  0.00    +0.000 A 
ATOM     13  C   UNL     1       5.078   3.944  17.299  0.00  0.00    +0.000 A 
ATOM     14  C   UNL     1       4.515   2.725  17.675  0.00  0.00    +0.000 A 
ATOM     15  C   UNL     1       3.902   2.571  18.934  0.00  0.00    +0.000 A 
ATOM     16  C   UNL     1       3.612   3.791  19.549  0.00  0.00    +0.000 A 
ATOM     17  N   UNL     1       2.645   4.196  20.480  0.00  0.00    +0.000 N 
ATOM     18  C   UNL     1       1.984   3.317  21.414  0.00  0.00    +0.000 C 
ATOM     19  C   UNL     1       2.333   5.522  20.217  0.00  0.00    +0.000 A 
ATOM     20  N   UNL     1       1.318   6.304  20.663  0.00  0.00    +0.000 NA
ATOM     21  N   UNL     1      -0.030   8.610  21.718  0.00  0.00    +0.000 NA
ENDROOT
TORSDOF 0
ENDMDL
MODEL 8
REMARK VINA RESULT:      -6.3      1.762      7.561
REMARK  Name = 
REMARK  3 active torsions:
REMARK  status: ('A' for Active; 'I' for Inactive)
REMARK    1  A    between atoms: C_1  and  C_2
REMARK    2  A    between atoms: C_4  and  C_5
REMARK    3  A    between atoms: N_17  and  C_18
REMARK                            x       y       z     vdW  Elec       q    Type
REMARK                         _______ _______ _______ _____ _____    ______ ____
ROOT
ATOM      1  C   UNL     1       5.518   6.851  17.149  0.00  0.00    +0.000 C 
ATOM      2  C   UNL     1       4.239   6.686  17.869  0.00  0.00    +0.000 A 
ATOM      3  C   UNL     1       3.874   5.632  18.721  0.00  0.00    +0.000 A 
ATOM      4  C   UNL     1       2.666   5.999  19.261  0.00  0.00    +0.000 A 
ATOM      5  C   UNL     1       1.847   5.254  20.259  0.00  0.00    +0.000 C 
ATOM      6  N   UNL     1       2.412   7.298  18.783  0.00  0.00    +0.000 N 
ATOM      7  C   UNL     1       1.559   8.291  19.383  0.00  0.00    +0.000 A 
ATOM      8  N   UNL     1       1.121   7.900  20.611  0.00  0.00    +0.000 NA
ATOM      9  N   UNL     1       0.664   8.767  21.450  0.00  0.00    +0.000 NA
ATOM     10  C   UNL     1       0.512  10.023  21.002  0.00  0.00    +0.000 A 
ATOM     11  C   UNL     1      -0.007  11.125  21.682  0.00  0.00    +0.000 A 
ATOM     12  C   UNL     1      -0.543  11.246  22.976  0.00  0.00    +0.000 A 
ATOM     13  C   UNL     1      -1.901  11.466  22.854  0.00  0.00    +0.000 A 
ATOM     14  C   UNL     1      -2.358  12.388  21.913  0.00  0.00    +0.000 A 
ATOM     15  C   UNL     1      -1.525  12.821  20.863  0.00  0.00    +0.000 A 
ATOM     16  C   UNL     1      -0.416  11.994  20.674  0.00  0.00    +0.000 A 
ATOM     17  N   UNL     1       0.384  11.692  19.563  0.00  0.00    +0.000 N 
ATOM     18  C   UNL     1       0.550  12.547  18.413  0.00  0.00    +0.000 C 
ATOM     19  C   UNL     1       0.828  10.385  19.703  0.00  0.00    +0.000 A 
ATOM     20  N   UNL     1       1.425   9.547  18.820  0.00  0.00    +0.000 NA
ATOM     21  N   UNL     1       3.284   7.618  17.785  0.00  0.00    +0.000 NA
ENDROOT
TORSDOF 0
ENDMDL
MODEL 9
REMARK VINA RESULT:      -6.1      1.643      7.064
REMARK  Name = 
REMARK  3 active torsions:
REMARK  status: ('A' for Active; 'I' for Inactive)
REMARK    1  A    between atoms: C_1  and  C_2
REMARK    2  A    between atoms: C_4  and  C_5
REMARK    3  A    between atoms: N_17  and  C_18
REMARK                            x       y       z     vdW  Elec       q    Type
REMARK                         _______ _______ _______ _____ _____    ______ ____
ROOT
ATOM      1  C   UNL     1       6.096   4.762  18.132  0.00  0.00    +0.000 C 
ATOM      2  C   UNL     1       4.717   4.858  18.653  0.00  0.00    +0.000 A 
ATOM      3  C   UNL     1       4.081   3.976  19.540  0.00  0.00    +0.000 A 
ATOM      4  C   UNL     1       2.877   4.563  19.840  0.00  0.00    +0.000 A 
ATOM      5  C   UNL     1       1.821   4.063  20.766  0.00  0.00    +0.000 C 
ATOM      6  N   UNL     1       2.891   5.815  19.196  0.00  0.00    +0.000 N 
ATOM      7  C   UNL     1       2.119   6.979  19.548  0.00  0.00    +0.000 A 
ATOM      8  N   UNL     1       1.456   6.805  20.724  0.00  0.00    +0.000 NA
ATOM      9  N   UNL     1       1.018   7.823  21.386  0.00  0.00    +0.000 NA
ATOM     10  C   UNL     1       1.121   9.022  20.792  0.00  0.00    +0.000 A 
ATOM     11  C   UNL     1       0.682  10.259  21.264  0.00  0.00    +0.000 A 
ATOM     12  C   UNL     1      -0.010  10.610  22.437  0.00  0.00    +0.000 A 
ATOM     13  C   UNL     1      -1.288  10.990  22.077  0.00  0.00    +0.000 A 
ATOM     14  C   UNL     1      -1.463  11.840  20.986  0.00  0.00    +0.000 A 
ATOM     15  C   UNL     1      -0.433  12.025  20.043  0.00  0.00    +0.000 A 
ATOM     16  C   UNL     1       0.555  11.042  20.119  0.00  0.00    +0.000 A 
ATOM     17  N   UNL     1       1.452  10.501  19.187  0.00  0.00    +0.000 N 
ATOM     18  C   UNL     1       1.906  11.176  17.996  0.00  0.00    +0.000 C 
ATOM     19  C   UNL     1       1.671   9.174  19.530  0.00  0.00    +0.000 A 
ATOM     20  N   UNL     1       2.256   8.162  18.844  0.00  0.00    +0.000 NA
ATOM     21  N   UNL     1       3.934   5.890  18.322  0.00  0.00    +0.000 NA
ENDROOT
TORSDOF 0
ENDMDL
