MODEL 1
REMARK VINA RESULT:      -5.7      0.000      0.000
REMARK  Name = 
REMARK  4 active torsions:
REMARK  status: ('A' for Active; 'I' for Inactive)
REMARK    1  A    between atoms: C_2  and  O_3
REMARK    2  A    between atoms: C_2  and  C_4
REMARK    3  A    between atoms: C_4  and  C_5
REMARK    4  A    between atoms: C_5  and  C_7
REMARK                            x       y       z     vdW  Elec       q    Type
REMARK                         _______ _______ _______ _____ _____    ______ ____
ROOT
ATOM      1  C   UNL     1       4.860   4.713  16.782  0.00  0.00    +0.000 C 
ATOM      2  O   UNL     1       5.139   5.836  17.201  0.00  0.00    +0.000 OA
ENDROOT
BRANCH   1   3
ATOM      3  C   UNL     1       3.698   3.972  17.354  0.00  0.00    +0.000 A 
ATOM      4  C   UNL     1       2.549   4.705  17.685  0.00  0.00    +0.000 A 
ATOM      5  C   UNL     1       1.457   4.069  18.278  0.00  0.00    +0.000 A 
ATOM      6  C   UNL     1       1.501   2.700  18.529  0.00  0.00    +0.000 A 
ATOM      7  C   UNL     1       2.634   1.963  18.185  0.00  0.00    +0.000 A 
ATOM      8  C   UNL     1       3.734   2.596  17.599  0.00  0.00    +0.000 A 
ENDBRANCH   1   3
BRANCH   1   9
ATOM      9  C   UNL     1       5.745   4.041  15.773  0.00  0.00    +0.000 C 
BRANCH   9  11
ATOM     10  O   UNL     1       7.501   5.317  14.755  0.00  0.00    +0.000 OA
ATOM     11  C   UNL     1       7.107   4.657  15.707  0.00  0.00    +0.000 C 
BRANCH  11  12
ATOM     12  O   UNL     1       7.869   4.427  16.799  0.00  0.00    +0.000 OA
ATOM     13  H   UNL     1       8.078   5.225  17.328  0.00  0.00    +0.000 HD
ENDBRANCH  11  12
ENDBRANCH   9  11
ENDBRANCH   1   9
TORSDOF 4
ENDMDL
MODEL 2
REMARK VINA RESULT:      -5.7      2.172      2.775
REMARK  Name = 
REMARK  4 active torsions:
REMARK  status: ('A' for Active; 'I' for Inactive)
REMARK    1  A    between atoms: C_2  and  O_3
REMARK    2  A    between atoms: C_2  and  C_4
REMARK    3  A    between atoms: C_4  and  C_5
REMARK    4  A    between atoms: C_5  and  C_7
REMARK                            x       y       z     vdW  Elec       q    Type
REMARK                         _______ _______ _______ _____ _____    ______ ____
ROOT
ATOM      1  C   UNL     1       6.280   5.748  17.131  0.00  0.00    +0.000 C 
ATOM      2  O   UNL     1       6.519   6.736  16.436  0.00  0.00    +0.000 OA
ENDROOT
BRANCH   1   3
ATOM      3  C   UNL     1       4.873   5.290  17.316  0.00  0.00    +0.000 A 
ATOM      4  C   UNL     1       3.956   6.190  17.877  0.00  0.00    +0.000 A 
ATOM      5  C   UNL     1       2.642   5.792  18.126  0.00  0.00    +0.000 A 
ATOM      6  C   UNL     1       2.234   4.499  17.803  0.00  0.00    +0.000 A 
ATOM      7  C   UNL     1       3.136   3.605  17.227  0.00  0.00    +0.000 A 
ATOM      8  C   UNL     1       4.456   3.997  16.984  0.00  0.00    +0.000 A 
ENDBRANCH   1   3
BRANCH   1   9
ATOM      9  C   UNL     1       7.388   5.065  17.879  0.00  0.00    +0.000 C 
BRANCH   9  11
ATOM     10  O   UNL     1       7.580   5.351  20.252  0.00  0.00    +0.000 OA
ATOM     11  C   UNL     1       7.769   5.796  19.128  0.00  0.00    +0.000 C 
BRANCH  11  12
ATOM     12  O   UNL     1       8.351   6.995  18.909  0.00  0.00    +0.000 OA
ATOM     13  H   UNL     1       8.370   7.276  17.969  0.00  0.00    +0.000 HD
ENDBRANCH  11  12
ENDBRANCH   9  11
ENDBRANCH   1   9
TORSDOF 4
ENDMDL
MODEL 3
REMARK VINA RESULT:      -5.7      1.521      1.981
REMARK  Name = 
REMARK  4 active torsions:
REMARK  status: ('A' for Active; 'I' for Inactive)
REMARK    1  A    between atoms: C_2  and  O_3
REMARK    2  A    between atoms: C_2  and  C_4
REMARK    3  A    between atoms: C_4  and  C_5
REMARK    4  A    between atoms: C_5  and  C_7
REMARK                            x       y       z     vdW  Elec       q    Type
REMARK                         _______ _______ _______ _____ _____    ______ ____
ROOT
ATOM      1  C   UNL     1       5.725   4.964  18.635  0.00  0.00    +0.000 C 
ATOM      2  O   UNL     1       6.249   5.067  19.744  0.00  0.00    +0.000 OA
ENDROOT
BRANCH   1   3
ATOM      3  C   UNL     1       4.551   4.063  18.447  0.00  0.00    +0.000 A 
ATOM      4  C   UNL     1       4.391   2.995  19.340  0.00  0.00    +0.000 A 
ATOM      5  C   UNL     1       3.343   2.089  19.172  0.00  0.00    +0.000 A 
ATOM      6  C   UNL     1       2.443   2.254  18.121  0.00  0.00    +0.000 A 
ATOM      7  C   UNL     1       2.586   3.325  17.240  0.00  0.00    +0.000 A 
ATOM      8  C   UNL     1       3.639   4.231  17.400  0.00  0.00    +0.000 A 
ENDBRANCH   1   3
BRANCH   1   9
ATOM      9  C   UNL     1       6.327   5.657  17.448  0.00  0.00    +0.000 C 
BRANCH   9  11
ATOM     10  O   UNL     1       7.459   4.778  15.526  0.00  0.00    +0.000 OA
ATOM     11  C   UNL     1       7.339   4.809  16.743  0.00  0.00    +0.000 C 
BRANCH  11  12
ATOM     12  O   UNL     1       8.120   4.082  17.571  0.00  0.00    +0.000 OA
ATOM     13  H   UNL     1       9.057   4.008  17.292  0.00  0.00    +0.000 HD
ENDBRANCH  11  12
ENDBRANCH   9  11
ENDBRANCH   1   9
TORSDOF 4
ENDMDL
MODEL 4
REMARK VINA RESULT:      -5.7      0.856      1.758
REMARK  Name = 
REMARK  4 active torsions:
REMARK  status: ('A' for Active; 'I' for Inactive)
REMARK    1  A    between atoms: C_2  and  O_3
REMARK    2  A    between atoms: C_2  and  C_4
REMARK    3  A    between atoms: C_4  and  C_5
REMARK    4  A    between atoms: C_5  and  C_7
REMARK                            x       y       z     vdW  Elec       q    Type
REMARK                         _______ _______ _______ _____ _____    ______ ____
ROOT
ATOM      1  C   UNL     1       4.687   5.428  17.073  0.00  0.00    +0.000 C 
ATOM      2  O   UNL     1       4.783   6.511  17.649  0.00  0.00    +0.000 OA
ENDROOT
BRANCH   1   3
ATOM      3  C   UNL     1       3.663   4.437  17.514  0.00  0.00    +0.000 A 
ATOM      4  C   UNL     1       4.038   3.087  17.577  0.00  0.00    +0.000 A 
ATOM      5  C   UNL     1       3.101   2.114  17.927  0.00  0.00    +0.000 A 
ATOM      6  C   UNL     1       1.792   2.484  18.229  0.00  0.00    +0.000 A 
ATOM      7  C   UNL     1       1.419   3.827  18.186  0.00  0.00    +0.000 A 
ATOM      8  C   UNL     1       2.351   4.805  17.828  0.00  0.00    +0.000 A 
ENDBRANCH   1   3
BRANCH   1   9
ATOM      9  C   UNL     1       5.666   5.055  15.997  0.00  0.00    +0.000 C 
BRANCH   9  11
ATOM     10  O   UNL     1       7.830   4.363  16.763  0.00  0.00    +0.000 OA
ATOM     11  C   UNL     1       7.086   5.270  16.417  0.00  0.00    +0.000 C 
BRANCH  11  12
ATOM     12  O   UNL     1       7.483   6.561  16.374  0.00  0.00    +0.000 OA
ATOM     13  H   UNL     1       7.985   6.809  15.569  0.00  0.00    +0.000 HD
ENDBRANCH  11  12
ENDBRANCH   9  11
ENDBRANCH   1   9
TORSDOF 4
ENDMDL
MODEL 5
REMARK VINA RESULT:      -5.7      1.490      1.536
REMARK  Name = 
REMARK  4 active torsions:
REMARK  status: ('A' for Active; 'I' for Inactive)
REMARK    1  A    between atoms: C_2  and  O_3
REMARK    2  A    between atoms: C_2  and  C_4
REMARK    3  A    between atoms: C_4  and  C_5
REMARK    4  A    between atoms: C_5  and  C_7
REMARK                            x       y       z     vdW  Elec       q    Type
REMARK                         _______ _______ _______ _____ _____    ______ ____
ROOT
ATOM      1  C   UNL     1       5.264   4.349  18.290  0.00  0.00    +0.000 C 
ATOM      2  O   UNL     1       6.066   4.478  19.215  0.00  0.00    +0.000 OA
ENDROOT
BRANCH   1   3
ATOM      3  C   UNL     1       3.844   3.996  18.578  0.00  0.00    +0.000 A 
ATOM      4  C   UNL     1       3.267   4.497  19.754  0.00  0.00    +0.000 A 
ATOM      5  C   UNL     1       1.961   4.148  20.100  0.00  0.00    +0.000 A 
ATOM      6  C   UNL     1       1.221   3.309  19.269  0.00  0.00    +0.000 A 
ATOM      7  C   UNL     1       1.784   2.822  18.089  0.00  0.00    +0.000 A 
ATOM      8  C   UNL     1       3.095   3.162  17.742  0.00  0.00    +0.000 A 
ENDBRANCH   1   3
BRANCH   1   9
ATOM      9  C   UNL     1       5.732   4.442  16.866  0.00  0.00    +0.000 C 
BRANCH   9  11
ATOM     10  O   UNL     1       7.411   6.061  16.311  0.00  0.00    +0.000 OA
ATOM     11  C   UNL     1       7.133   4.956  16.757  0.00  0.00    +0.000 C 
BRANCH  11  12
ATOM     12  O   UNL     1       8.072   4.093  17.203  0.00  0.00    +0.000 OA
ATOM     13  H   UNL     1       7.893   3.151  17.000  0.00  0.00    +0.000 HD
ENDBRANCH  11  12
ENDBRANCH   9  11
ENDBRANCH   1   9
TORSDOF 4
ENDMDL
MODEL 6
REMARK VINA RESULT:      -5.6      1.604      2.577
REMARK  Name = 
REMARK  4 active torsions:
REMARK  status: ('A' for Active; 'I' for Inactive)
REMARK    1  A    between atoms: C_2  and  O_3
REMARK    2  A    between atoms: C_2  and  C_4
REMARK    3  A    between atoms: C_4  and  C_5
REMARK    4  A    between atoms: C_5  and  C_7
REMARK                            x       y       z     vdW  Elec       q    Type
REMARK                         _______ _______ _______ _____ _____    ______ ____
ROOT
ATOM      1  C   UNL     1       5.683   5.930  16.625  0.00  0.00    +0.000 C 
ATOM      2  O   UNL     1       5.849   6.155  15.426  0.00  0.00    +0.000 OA
ENDROOT
BRANCH   1   3
ATOM      3  C   UNL     1       4.395   5.350  17.103  0.00  0.00    +0.000 A 
ATOM      4  C   UNL     1       4.144   3.997  16.837  0.00  0.00    +0.000 A 
ATOM      5  C   UNL     1       2.928   3.421  17.210  0.00  0.00    +0.000 A 
ATOM      6  C   UNL     1       1.965   4.189  17.861  0.00  0.00    +0.000 A 
ATOM      7  C   UNL     1       2.217   5.531  18.145  0.00  0.00    +0.000 A 
ATOM      8  C   UNL     1       3.429   6.115  17.766  0.00  0.00    +0.000 A 
ENDBRANCH   1   3
BRANCH   1   9
ATOM      9  C   UNL     1       6.731   6.334  17.622  0.00  0.00    +0.000 C 
BRANCH   9  11
ATOM     10  O   UNL     1       7.978   5.002  19.178  0.00  0.00    +0.000 OA
ATOM     11  C   UNL     1       7.605   5.189  18.027  0.00  0.00    +0.000 C 
BRANCH  11  12
ATOM     12  O   UNL     1       7.945   4.368  17.009  0.00  0.00    +0.000 OA
ATOM     13  H   UNL     1       8.851   4.503  16.659  0.00  0.00    +0.000 HD
ENDBRANCH  11  12
ENDBRANCH   9  11
ENDBRANCH   1   9
TORSDOF 4
ENDMDL
MODEL 7
REMARK VINA RESULT:      -5.6      1.111      1.436
REMARK  Name = 
REMARK  4 active torsions:
REMARK  status: ('A' for Active; 'I' for Inactive)
REMARK    1  A    between atoms: C_2  and  O_3
REMARK    2  A    between atoms: C_2  and  C_4
REMARK    3  A    between atoms: C_4  and  C_5
REMARK    4  A    between atoms: C_5  and  C_7
REMARK                            x       y       z     vdW  Elec       q    Type
REMARK                         _______ _______ _______ _____ _____    ______ ____
ROOT
ATOM      1  C   UNL     1       4.873   5.571  17.398  0.00  0.00    +0.000 C 
ATOM      2  O   UNL     1       4.634   6.571  16.720  0.00  0.00    +0.000 OA
ENDROOT
BRANCH   1   3
ATOM      3  C   UNL     1       3.812   4.545  17.612  0.00  0.00    +0.000 A 
ATOM      4  C   UNL     1       2.507   4.991  17.866  0.00  0.00    +0.000 A 
ATOM      5  C   UNL     1       1.490   4.073  18.131  0.00  0.00    +0.000 A 
ATOM      6  C   UNL     1       1.767   2.708  18.130  0.00  0.00    +0.000 A 
ATOM      7  C   UNL     1       3.059   2.258  17.859  0.00  0.00    +0.000 A 
ATOM      8  C   UNL     1       4.083   3.173  17.601  0.00  0.00    +0.000 A 
ENDBRANCH   1   3
BRANCH   1   9
ATOM      9  C   UNL     1       6.194   5.431  18.098  0.00  0.00    +0.000 C 
BRANCH   9  11
ATOM     10  O   UNL     1       8.069   4.222  17.219  0.00  0.00    +0.000 OA
ATOM     11  C   UNL     1       7.323   5.189  17.146  0.00  0.00    +0.000 C 
BRANCH  11  12
ATOM     12  O   UNL     1       7.445   6.132  16.186  0.00  0.00    +0.000 OA
ATOM     13  H   UNL     1       7.971   5.857  15.405  0.00  0.00    +0.000 HD
ENDBRANCH  11  12
ENDBRANCH   9  11
ENDBRANCH   1   9
TORSDOF 4
ENDMDL
MODEL 8
REMARK VINA RESULT:      -5.6      1.968      2.546
REMARK  Name = 
REMARK  4 active torsions:
REMARK  status: ('A' for Active; 'I' for Inactive)
REMARK    1  A    between atoms: C_2  and  O_3
REMARK    2  A    between atoms: C_2  and  C_4
REMARK    3  A    between atoms: C_4  and  C_5
REMARK    4  A    between atoms: C_5  and  C_7
REMARK                            x       y       z     vdW  Elec       q    Type
REMARK                         _______ _______ _______ _____ _____    ______ ____
ROOT
ATOM      1  C   UNL     1       4.172   4.646  17.730  0.00  0.00    +0.000 C 
ATOM      2  O   UNL     1       4.325   4.168  16.606  0.00  0.00    +0.000 OA
ENDROOT
BRANCH   1   3
ATOM      3  C   UNL     1       2.977   4.275  18.541  0.00  0.00    +0.000 A 
ATOM      4  C   UNL     1       2.798   4.911  19.778  0.00  0.00    +0.000 A 
ATOM      5  C   UNL     1       1.729   4.557  20.602  0.00  0.00    +0.000 A 
ATOM      6  C   UNL     1       0.827   3.578  20.190  0.00  0.00    +0.000 A 
ATOM      7  C   UNL     1       0.989   2.956  18.953  0.00  0.00    +0.000 A 
ATOM      8  C   UNL     1       2.063   3.300  18.127  0.00  0.00    +0.000 A 
ENDBRANCH   1   3
BRANCH   1   9
ATOM      9  C   UNL     1       5.128   5.682  18.247  0.00  0.00    +0.000 C 
BRANCH   9  11
ATOM     10  O   UNL     1       6.884   5.433  19.860  0.00  0.00    +0.000 OA
ATOM     11  C   UNL     1       6.379   5.078  18.804  0.00  0.00    +0.000 C 
BRANCH  11  12
ATOM     12  O   UNL     1       6.903   4.094  18.040  0.00  0.00    +0.000 OA
ATOM     13  H   UNL     1       6.301   3.338  17.875  0.00  0.00    +0.000 HD
ENDBRANCH  11  12
ENDBRANCH   9  11
ENDBRANCH   1   9
TORSDOF 4
ENDMDL
MODEL 9
REMARK VINA RESULT:      -5.6      2.103      2.800
REMARK  Name = 
REMARK  4 active torsions:
REMARK  status: ('A' for Active; 'I' for Inactive)
REMARK    1  A    between atoms: C_2  and  O_3
REMARK    2  A    between atoms: C_2  and  C_4
REMARK    3  A    between atoms: C_4  and  C_5
REMARK    4  A    between atoms: C_5  and  C_7
REMARK                            x       y       z     vdW  Elec       q    Type
REMARK                         _______ _______ _______ _____ _____    ______ ____
ROOT
ATOM      1  C   UNL     1       4.042   4.805  18.034  0.00  0.00    +0.000 C 
ATOM      2  O   UNL     1       4.159   4.627  16.822  0.00  0.00    +0.000 OA
ENDROOT
BRANCH   1   3
ATOM      3  C   UNL     1       2.895   4.199  18.769  0.00  0.00    +0.000 A 
ATOM      4  C   UNL     1       2.140   3.215  18.114  0.00  0.00    +0.000 A 
ATOM      5  C   UNL     1       1.020   2.659  18.734  0.00  0.00    +0.000 A 
ATOM      6  C   UNL     1       0.658   3.071  20.015  0.00  0.00    +0.000 A 
ATOM      7  C   UNL     1       1.416   4.035  20.679  0.00  0.00    +0.000 A 
ATOM      8  C   UNL     1       2.534   4.601  20.058  0.00  0.00    +0.000 A 
ENDBRANCH   1   3
BRANCH   1   9
ATOM      9  C   UNL     1       4.991   5.715  18.759  0.00  0.00    +0.000 C 
BRANCH   9  11
ATOM     10  O   UNL     1       7.062   5.427  19.933  0.00  0.00    +0.000 OA
ATOM     11  C   UNL     1       6.307   5.062  19.041  0.00  0.00    +0.000 C 
BRANCH  11  12
ATOM     12  O   UNL     1       6.591   4.021  18.228  0.00  0.00    +0.000 OA
ATOM     13  H   UNL     1       7.505   3.675  18.308  0.00  0.00    +0.000 HD
ENDBRANCH  11  12
ENDBRANCH   9  11
ENDBRANCH   1   9
TORSDOF 4
ENDMDL
