MODEL 1
REMARK VINA RESULT:      -7.3      0.000      0.000
REMARK  Name = 
REMARK  7 active torsions:
REMARK  status: ('A' for Active; 'I' for Inactive)
REMARK    1  A    between atoms: C_1  and  C_2
REMARK    2  A    between atoms: C_2  and  N_3
REMARK    3  A    between atoms: N_10  and  C_11
REMARK    4  A    between atoms: C_11  and  C_12
REMARK    5  A    between atoms: C_12  and  O_13
REMARK    6  A    between atoms: O_13  and  C_14
REMARK    7  A    between atoms: C_17  and  C_18
REMARK                            x       y       z     vdW  Elec       q    Type
REMARK                         _______ _______ _______ _____ _____    ______ ____
ROOT
ATOM      1  N   UNL     1       3.697   5.357  17.754  0.00  0.00    +0.000 N 
ATOM      2  C   UNL     1       4.846   5.388  16.978  0.00  0.00    +0.000 A 
ATOM      3  N   UNL     1       4.982   4.541  15.972  0.00  0.00    +0.000 NA
ATOM      4  C   UNL     1       6.100   4.706  15.292  0.00  0.00    +0.000 A 
ATOM      5 CL   UNL     1       6.318   3.669  13.949  0.00  0.00    +0.000 Cl
ATOM      6  N   UNL     1       7.065   5.588  15.505  0.00  0.00    +0.000 NA
ATOM      7  C   UNL     1       6.833   6.384  16.534  0.00  0.00    +0.000 A 
ATOM      8  N   UNL     1       7.804   7.348  16.747  0.00  0.00    +0.000 N 
ATOM      9  N   UNL     1       5.751   6.309  17.303  0.00  0.00    +0.000 NA
ATOM     10  H   UNL     1       3.905   5.838  18.623  0.00  0.00    +0.000 HD
ATOM     11  H   UNL     1       8.614   7.118  16.186  0.00  0.00    +0.000 HD
ENDROOT
BRANCH   1  13
ATOM     12  C   UNL     1       3.523   3.379  19.156  0.00  0.00    +0.000 C 
ATOM     13  C   UNL     1       3.053   4.061  17.881  0.00  0.00    +0.000 C 
ENDBRANCH   1  13
BRANCH   8  14
ATOM     14  C   UNL     1       8.026   7.816  18.108  0.00  0.00    +0.000 C 
BRANCH  14  15
ATOM     15  C   UNL     1       8.267   9.335  18.140  0.00  0.00    +0.000 C 
BRANCH  15  16
ATOM     16  O   UNL     1       9.067   9.653  19.282  0.00  0.00    +0.000 OA
BRANCH  16  17
ATOM     17  C   UNL     1       9.856  10.770  19.204  0.00  0.00    +0.000 A 
ATOM     18  C   UNL     1      10.373  11.329  18.036  0.00  0.00    +0.000 A 
ATOM     19  C   UNL     1      11.155  12.489  18.092  0.00  0.00    +0.000 A 
ATOM     20  C   UNL     1      11.431  13.106  19.316  0.00  0.00    +0.000 A 
ATOM     21  C   UNL     1      12.252  14.359  19.384  0.00  0.00    +0.000 C 
ATOM     22  C   UNL     1      10.922  12.537  20.488  0.00  0.00    +0.000 A 
ATOM     23  C   UNL     1      10.143  11.378  20.429  0.00  0.00    +0.000 A 
ENDBRANCH  16  17
ENDBRANCH  15  16
ENDBRANCH  14  15
ENDBRANCH   8  14
TORSDOF 5
ENDMDL
MODEL 2
REMARK VINA RESULT:      -7.2      0.644      1.229
REMARK  Name = 
REMARK  7 active torsions:
REMARK  status: ('A' for Active; 'I' for Inactive)
REMARK    1  A    between atoms: C_1  and  C_2
REMARK    2  A    between atoms: C_2  and  N_3
REMARK    3  A    between atoms: N_10  and  C_11
REMARK    4  A    between atoms: C_11  and  C_12
REMARK    5  A    between atoms: C_12  and  O_13
REMARK    6  A    between atoms: O_13  and  C_14
REMARK    7  A    between atoms: C_17  and  C_18
REMARK                            x       y       z     vdW  Elec       q    Type
REMARK                         _______ _______ _______ _____ _____    ______ ____
ROOT
ATOM      1  N   UNL     1       4.333   4.550  18.349  0.00  0.00    +0.000 N 
ATOM      2  C   UNL     1       5.270   4.877  17.380  0.00  0.00    +0.000 A 
ATOM      3  N   UNL     1       5.342   4.164  16.269  0.00  0.00    +0.000 NA
ATOM      4  C   UNL     1       6.246   4.607  15.417  0.00  0.00    +0.000 A 
ATOM      5 CL   UNL     1       6.359   3.754  13.938  0.00  0.00    +0.000 Cl
ATOM      6  N   UNL     1       7.062   5.641  15.553  0.00  0.00    +0.000 NA
ATOM      7  C   UNL     1       6.912   6.283  16.699  0.00  0.00    +0.000 A 
ATOM      8  N   UNL     1       7.718   7.398  16.844  0.00  0.00    +0.000 N 
ATOM      9  N   UNL     1       6.045   5.927  17.642  0.00  0.00    +0.000 NA
ATOM     10  H   UNL     1       4.629   4.985  19.216  0.00  0.00    +0.000 HD
ATOM     11  H   UNL     1       8.422   7.384  16.116  0.00  0.00    +0.000 HD
ENDROOT
BRANCH   1  13
ATOM     12  C   UNL     1       3.110   2.911  19.663  0.00  0.00    +0.000 C 
ATOM     13  C   UNL     1       3.970   3.145  18.432  0.00  0.00    +0.000 C 
ENDBRANCH   1  13
BRANCH   8  14
ATOM     14  C   UNL     1       8.133   7.782  18.186  0.00  0.00    +0.000 C 
BRANCH  14  15
ATOM     15  C   UNL     1       8.438   9.288  18.264  0.00  0.00    +0.000 C 
BRANCH  15  16
ATOM     16  O   UNL     1       9.358   9.519  19.335  0.00  0.00    +0.000 OA
BRANCH  16  17
ATOM     17  C   UNL     1       9.796  10.804  19.518  0.00  0.00    +0.000 A 
ATOM     18  C   UNL     1       9.790  11.509  20.721  0.00  0.00    +0.000 A 
ATOM     19  C   UNL     1      10.287  12.817  20.777  0.00  0.00    +0.000 A 
ATOM     20  C   UNL     1      10.796  13.438  19.633  0.00  0.00    +0.000 A 
ATOM     21  C   UNL     1      11.347  14.832  19.688  0.00  0.00    +0.000 C 
ATOM     22  C   UNL     1      10.790  12.733  18.425  0.00  0.00    +0.000 A 
ATOM     23  C   UNL     1      10.292  11.428  18.371  0.00  0.00    +0.000 A 
ENDBRANCH  16  17
ENDBRANCH  15  16
ENDBRANCH  14  15
ENDBRANCH   8  14
TORSDOF 5
ENDMDL
MODEL 3
REMARK VINA RESULT:      -7.2      3.523      7.081
REMARK  Name = 
REMARK  7 active torsions:
REMARK  status: ('A' for Active; 'I' for Inactive)
REMARK    1  A    between atoms: C_1  and  C_2
REMARK    2  A    between atoms: C_2  and  N_3
REMARK    3  A    between atoms: N_10  and  C_11
REMARK    4  A    between atoms: C_11  and  C_12
REMARK    5  A    between atoms: C_12  and  O_13
REMARK    6  A    between atoms: O_13  and  C_14
REMARK    7  A    between atoms: C_17  and  C_18
REMARK                            x       y       z     vdW  Elec       q    Type
REMARK                         _______ _______ _______ _____ _____    ______ ____
ROOT
ATOM      1  N   UNL     1       7.461   6.840  18.086  0.00  0.00    +0.000 N 
ATOM      2  C   UNL     1       6.742   5.877  17.393  0.00  0.00    +0.000 A 
ATOM      3  N   UNL     1       6.919   5.737  16.090  0.00  0.00    +0.000 NA
ATOM      4  C   UNL     1       6.206   4.759  15.565  0.00  0.00    +0.000 A 
ATOM      5 CL   UNL     1       6.422   4.495  13.889  0.00  0.00    +0.000 Cl
ATOM      6  N   UNL     1       5.361   3.942  16.176  0.00  0.00    +0.000 NA
ATOM      7  C   UNL     1       5.256   4.168  17.474  0.00  0.00    +0.000 A 
ATOM      8  N   UNL     1       4.417   3.294  18.144  0.00  0.00    +0.000 N 
ATOM      9  N   UNL     1       5.911   5.129  18.116  0.00  0.00    +0.000 NA
ATOM     10  H   UNL     1       6.982   7.001  18.966  0.00  0.00    +0.000 HD
ATOM     11  H   UNL     1       3.883   2.772  17.460  0.00  0.00    +0.000 HD
ENDROOT
BRANCH   1  13
ATOM     12  C   UNL     1       8.322   9.105  18.277  0.00  0.00    +0.000 C 
ATOM     13  C   UNL     1       7.823   8.026  17.329  0.00  0.00    +0.000 C 
ENDBRANCH   1  13
BRANCH   8  14
ATOM     14  C   UNL     1       3.723   3.775  19.330  0.00  0.00    +0.000 C 
BRANCH  14  15
ATOM     15  C   UNL     1       2.750   4.915  18.981  0.00  0.00    +0.000 C 
BRANCH  15  16
ATOM     16  O   UNL     1       3.194   6.115  19.621  0.00  0.00    +0.000 OA
BRANCH  16  17
ATOM     17  C   UNL     1       2.419   7.233  19.464  0.00  0.00    +0.000 A 
ATOM     18  C   UNL     1       1.738   7.907  20.477  0.00  0.00    +0.000 A 
ATOM     19  C   UNL     1       0.991   9.055  20.184  0.00  0.00    +0.000 A 
ATOM     20  C   UNL     1       0.914   9.544  18.877  0.00  0.00    +0.000 A 
ATOM     21  C   UNL     1       0.131  10.783  18.558  0.00  0.00    +0.000 C 
ATOM     22  C   UNL     1       1.587   8.858  17.860  0.00  0.00    +0.000 A 
ATOM     23  C   UNL     1       2.331   7.712  18.155  0.00  0.00    +0.000 A 
ENDBRANCH  16  17
ENDBRANCH  15  16
ENDBRANCH  14  15
ENDBRANCH   8  14
TORSDOF 5
ENDMDL
MODEL 4
REMARK VINA RESULT:      -7.2      1.818      2.941
REMARK  Name = 
REMARK  7 active torsions:
REMARK  status: ('A' for Active; 'I' for Inactive)
REMARK    1  A    between atoms: C_1  and  C_2
REMARK    2  A    between atoms: C_2  and  N_3
REMARK    3  A    between atoms: N_10  and  C_11
REMARK    4  A    between atoms: C_11  and  C_12
REMARK    5  A    between atoms: C_12  and  O_13
REMARK    6  A    between atoms: O_13  and  C_14
REMARK    7  A    between atoms: C_17  and  C_18
REMARK                            x       y       z     vdW  Elec       q    Type
REMARK                         _______ _______ _______ _____ _____    ______ ____
ROOT
ATOM      1  N   UNL     1       6.911   4.702  14.469  0.00  0.00    +0.000 N 
ATOM      2  C   UNL     1       6.646   4.940  15.810  0.00  0.00    +0.000 A 
ATOM      3  N   UNL     1       5.814   4.147  16.465  0.00  0.00    +0.000 NA
ATOM      4  C   UNL     1       5.685   4.459  17.739  0.00  0.00    +0.000 A 
ATOM      5 CL   UNL     1       4.656   3.445  18.656  0.00  0.00    +0.000 Cl
ATOM      6  N   UNL     1       6.267   5.446  18.404  0.00  0.00    +0.000 NA
ATOM      7  C   UNL     1       7.074   6.179  17.658  0.00  0.00    +0.000 A 
ATOM      8  N   UNL     1       7.734   7.186  18.341  0.00  0.00    +0.000 N 
ATOM      9  N   UNL     1       7.279   5.973  16.360  0.00  0.00    +0.000 NA
ATOM     10  H   UNL     1       7.299   5.555  14.081  0.00  0.00    +0.000 HD
ATOM     11  H   UNL     1       7.305   7.293  19.251  0.00  0.00    +0.000 HD
ENDROOT
BRANCH   1  13
ATOM     12  C   UNL     1       6.387   3.511  12.416  0.00  0.00    +0.000 C 
ATOM     13  C   UNL     1       5.835   4.087  13.710  0.00  0.00    +0.000 C 
ENDBRANCH   1  13
BRANCH   8  14
ATOM     14  C   UNL     1       8.096   8.394  17.612  0.00  0.00    +0.000 C 
BRANCH  14  15
ATOM     15  C   UNL     1       8.673   9.462  18.557  0.00  0.00    +0.000 C 
BRANCH  15  16
ATOM     16  O   UNL     1       8.770  10.702  17.851  0.00  0.00    +0.000 OA
BRANCH  16  17
ATOM     17  C   UNL     1       9.645  11.635  18.340  0.00  0.00    +0.000 A 
ATOM     18  C   UNL     1      10.644  11.406  19.285  0.00  0.00    +0.000 A 
ATOM     19  C   UNL     1      11.488  12.448  19.689  0.00  0.00    +0.000 A 
ATOM     20  C   UNL     1      11.346  13.732  19.154  0.00  0.00    +0.000 A 
ATOM     21  C   UNL     1      12.258  14.849  19.567  0.00  0.00    +0.000 C 
ATOM     22  C   UNL     1      10.335  13.962  18.214  0.00  0.00    +0.000 A 
ATOM     23  C   UNL     1       9.493  12.920  17.814  0.00  0.00    +0.000 A 
ENDBRANCH  16  17
ENDBRANCH  15  16
ENDBRANCH  14  15
ENDBRANCH   8  14
TORSDOF 5
ENDMDL
MODEL 5
REMARK VINA RESULT:      -7.1      3.684      7.048
REMARK  Name = 
REMARK  7 active torsions:
REMARK  status: ('A' for Active; 'I' for Inactive)
REMARK    1  A    between atoms: C_1  and  C_2
REMARK    2  A    between atoms: C_2  and  N_3
REMARK    3  A    between atoms: N_10  and  C_11
REMARK    4  A    between atoms: C_11  and  C_12
REMARK    5  A    between atoms: C_12  and  O_13
REMARK    6  A    between atoms: O_13  and  C_14
REMARK    7  A    between atoms: C_17  and  C_18
REMARK                            x       y       z     vdW  Elec       q    Type
REMARK                         _______ _______ _______ _____ _____    ______ ____
ROOT
ATOM      1  N   UNL     1       7.329   6.561  18.172  0.00  0.00    +0.000 N 
ATOM      2  C   UNL     1       6.478   5.660  17.550  0.00  0.00    +0.000 A 
ATOM      3  N   UNL     1       6.553   5.482  16.241  0.00  0.00    +0.000 NA
ATOM      4  C   UNL     1       5.718   4.568  15.786  0.00  0.00    +0.000 A 
ATOM      5 CL   UNL     1       5.795   4.257  14.106  0.00  0.00    +0.000 Cl
ATOM      6  N   UNL     1       4.842   3.846  16.469  0.00  0.00    +0.000 NA
ATOM      7  C   UNL     1       4.845   4.102  17.765  0.00  0.00    +0.000 A 
ATOM      8  N   UNL     1       3.974   3.324  18.508  0.00  0.00    +0.000 N 
ATOM      9  N   UNL     1       5.630   5.008  18.342  0.00  0.00    +0.000 NA
ATOM     10  H   UNL     1       6.926   6.783  19.077  0.00  0.00    +0.000 HD
ATOM     11  H   UNL     1       3.349   2.845  17.873  0.00  0.00    +0.000 HD
ENDROOT
BRANCH   1  13
ATOM     12  C   UNL     1       8.317   8.779  18.267  0.00  0.00    +0.000 C 
ATOM     13  C   UNL     1       7.750   7.694  17.366  0.00  0.00    +0.000 C 
ENDBRANCH   1  13
BRANCH   8  14
ATOM     14  C   UNL     1       3.409   3.889  19.726  0.00  0.00    +0.000 C 
BRANCH  14  15
ATOM     15  C   UNL     1       2.403   5.008  19.405  0.00  0.00    +0.000 C 
BRANCH  15  16
ATOM     16  O   UNL     1       2.913   6.247  19.905  0.00  0.00    +0.000 OA
BRANCH  16  17
ATOM     17  C   UNL     1       2.270   7.392  19.517  0.00  0.00    +0.000 A 
ATOM     18  C   UNL     1       2.269   7.937  18.233  0.00  0.00    +0.000 A 
ATOM     19  C   UNL     1       1.552   9.109  17.962  0.00  0.00    +0.000 A 
ATOM     20  C   UNL     1       0.828   9.753  18.970  0.00  0.00    +0.000 A 
ATOM     21  C   UNL     1       0.042  10.998  18.685  0.00  0.00    +0.000 C 
ATOM     22  C   UNL     1       0.840   9.211  20.260  0.00  0.00    +0.000 A 
ATOM     23  C   UNL     1       1.557   8.042  20.528  0.00  0.00    +0.000 A 
ENDBRANCH  16  17
ENDBRANCH  15  16
ENDBRANCH  14  15
ENDBRANCH   8  14
TORSDOF 5
ENDMDL
MODEL 6
REMARK VINA RESULT:      -7.1      5.765      7.586
REMARK  Name = 
REMARK  7 active torsions:
REMARK  status: ('A' for Active; 'I' for Inactive)
REMARK    1  A    between atoms: C_1  and  C_2
REMARK    2  A    between atoms: C_2  and  N_3
REMARK    3  A    between atoms: N_10  and  C_11
REMARK    4  A    between atoms: C_11  and  C_12
REMARK    5  A    between atoms: C_12  and  O_13
REMARK    6  A    between atoms: O_13  and  C_14
REMARK    7  A    between atoms: C_17  and  C_18
REMARK                            x       y       z     vdW  Elec       q    Type
REMARK                         _______ _______ _______ _____ _____    ______ ____
ROOT
ATOM      1  N   UNL     1       2.894   7.615  18.241  0.00  0.00    +0.000 N 
ATOM      2  C   UNL     1       3.107   6.375  18.825  0.00  0.00    +0.000 A 
ATOM      3  N   UNL     1       2.108   5.754  19.431  0.00  0.00    +0.000 NA
ATOM      4  C   UNL     1       2.436   4.568  19.904  0.00  0.00    +0.000 A 
ATOM      5 CL   UNL     1       1.177   3.693  20.663  0.00  0.00    +0.000 Cl
ATOM      6  N   UNL     1       3.611   3.959  19.848  0.00  0.00    +0.000 NA
ATOM      7  C   UNL     1       4.539   4.665  19.225  0.00  0.00    +0.000 A 
ATOM      8  N   UNL     1       5.763   4.029  19.107  0.00  0.00    +0.000 N 
ATOM      9  N   UNL     1       4.336   5.876  18.716  0.00  0.00    +0.000 NA
ATOM     10  H   UNL     1       3.802   8.049  18.114  0.00  0.00    +0.000 HD
ATOM     11  H   UNL     1       5.764   3.217  19.712  0.00  0.00    +0.000 HD
ENDROOT
BRANCH   1  13
ATOM     12  C   UNL     1       1.317   9.421  17.843  0.00  0.00    +0.000 C 
ATOM     13  C   UNL     1       1.873   8.441  18.863  0.00  0.00    +0.000 C 
ENDBRANCH   1  13
BRANCH   8  14
ATOM     14  C   UNL     1       6.967   4.849  19.063  0.00  0.00    +0.000 C 
BRANCH  14  15
ATOM     15  C   UNL     1       7.685   4.709  17.710  0.00  0.00    +0.000 C 
BRANCH  15  16
ATOM     16  O   UNL     1       7.034   5.548  16.752  0.00  0.00    +0.000 OA
BRANCH  16  17
ATOM     17  C   UNL     1       6.552   4.948  15.618  0.00  0.00    +0.000 A 
ATOM     18  C   UNL     1       5.304   4.342  15.478  0.00  0.00    +0.000 A 
ATOM     19  C   UNL     1       4.924   3.779  14.254  0.00  0.00    +0.000 A 
ATOM     20  C   UNL     1       5.786   3.814  13.153  0.00  0.00    +0.000 A 
ATOM     21  C   UNL     1       5.379   3.230  11.833  0.00  0.00    +0.000 C 
ATOM     22  C   UNL     1       7.042   4.411  13.299  0.00  0.00    +0.000 A 
ATOM     23  C   UNL     1       7.419   4.972  14.523  0.00  0.00    +0.000 A 
ENDBRANCH  16  17
ENDBRANCH  15  16
ENDBRANCH  14  15
ENDBRANCH   8  14
TORSDOF 5
ENDMDL
MODEL 7
REMARK VINA RESULT:      -7.0      5.497      7.694
REMARK  Name = 
REMARK  7 active torsions:
REMARK  status: ('A' for Active; 'I' for Inactive)
REMARK    1  A    between atoms: C_1  and  C_2
REMARK    2  A    between atoms: C_2  and  N_3
REMARK    3  A    between atoms: N_10  and  C_11
REMARK    4  A    between atoms: C_11  and  C_12
REMARK    5  A    between atoms: C_12  and  O_13
REMARK    6  A    between atoms: O_13  and  C_14
REMARK    7  A    between atoms: C_17  and  C_18
REMARK                            x       y       z     vdW  Elec       q    Type
REMARK                         _______ _______ _______ _____ _____    ______ ____
ROOT
ATOM      1  N   UNL     1       2.859   7.642  18.096  0.00  0.00    +0.000 N 
ATOM      2  C   UNL     1       3.272   6.453  18.678  0.00  0.00    +0.000 A 
ATOM      3  N   UNL     1       2.465   5.814  19.509  0.00  0.00    +0.000 NA
ATOM      4  C   UNL     1       2.963   4.678  19.957  0.00  0.00    +0.000 A 
ATOM      5 CL   UNL     1       1.950   3.780  21.003  0.00  0.00    +0.000 Cl
ATOM      6  N   UNL     1       4.139   4.135  19.682  0.00  0.00    +0.000 NA
ATOM      7  C   UNL     1       4.868   4.853  18.846  0.00  0.00    +0.000 A 
ATOM      8  N   UNL     1       6.082   4.282  18.503  0.00  0.00    +0.000 N 
ATOM      9  N   UNL     1       4.483   6.019  18.336  0.00  0.00    +0.000 NA
ATOM     10  H   UNL     1       3.690   8.119  17.760  0.00  0.00    +0.000 HD
ATOM     11  H   UNL     1       6.262   3.509  19.131  0.00  0.00    +0.000 HD
ENDROOT
BRANCH   1  13
ATOM     12  C   UNL     1       1.122   9.337  17.957  0.00  0.00    +0.000 C 
ATOM     13  C   UNL     1       1.936   8.445  18.880  0.00  0.00    +0.000 C 
ENDBRANCH   1  13
BRANCH   8  14
ATOM     14  C   UNL     1       7.192   5.164  18.169  0.00  0.00    +0.000 C 
BRANCH  14  15
ATOM     15  C   UNL     1       6.982   5.825  16.796  0.00  0.00    +0.000 C 
BRANCH  15  16
ATOM     16  O   UNL     1       7.732   5.104  15.815  0.00  0.00    +0.000 OA
BRANCH  16  17
ATOM     17  C   UNL     1       7.064   4.691  14.693  0.00  0.00    +0.000 A 
ATOM     18  C   UNL     1       7.567   4.691  13.393  0.00  0.00    +0.000 A 
ATOM     19  C   UNL     1       6.783   4.223  12.331  0.00  0.00    +0.000 A 
ATOM     20  C   UNL     1       5.486   3.751  12.554  0.00  0.00    +0.000 A 
ATOM     21  C   UNL     1       4.646   3.231  11.425  0.00  0.00    +0.000 C 
ATOM     22  C   UNL     1       4.979   3.764  13.857  0.00  0.00    +0.000 A 
ATOM     23  C   UNL     1       5.763   4.232  14.915  0.00  0.00    +0.000 A 
ENDBRANCH  16  17
ENDBRANCH  15  16
ENDBRANCH  14  15
ENDBRANCH   8  14
TORSDOF 5
ENDMDL
MODEL 8
REMARK VINA RESULT:      -7.0      3.557      7.366
REMARK  Name = 
REMARK  7 active torsions:
REMARK  status: ('A' for Active; 'I' for Inactive)
REMARK    1  A    between atoms: C_1  and  C_2
REMARK    2  A    between atoms: C_2  and  N_3
REMARK    3  A    between atoms: N_10  and  C_11
REMARK    4  A    between atoms: C_11  and  C_12
REMARK    5  A    between atoms: C_12  and  O_13
REMARK    6  A    between atoms: O_13  and  C_14
REMARK    7  A    between atoms: C_17  and  C_18
REMARK                            x       y       z     vdW  Elec       q    Type
REMARK                         _______ _______ _______ _____ _____    ______ ____
ROOT
ATOM      1  N   UNL     1       7.298   6.653  18.160  0.00  0.00    +0.000 N 
ATOM      2  C   UNL     1       6.608   5.632  17.524  0.00  0.00    +0.000 A 
ATOM      3  N   UNL     1       6.620   5.556  16.203  0.00  0.00    +0.000 NA
ATOM      4  C   UNL     1       5.961   4.516  15.731  0.00  0.00    +0.000 A 
ATOM      5 CL   UNL     1       5.975   4.334  14.030  0.00  0.00    +0.000 Cl
ATOM      6  N   UNL     1       5.309   3.583  16.407  0.00  0.00    +0.000 NA
ATOM      7  C   UNL     1       5.355   3.754  17.717  0.00  0.00    +0.000 A 
ATOM      8  N   UNL     1       4.724   2.764  18.450  0.00  0.00    +0.000 N 
ATOM      9  N   UNL     1       5.976   4.767  18.313  0.00  0.00    +0.000 NA
ATOM     10  H   UNL     1       6.927   6.728  19.102  0.00  0.00    +0.000 HD
ATOM     11  H   UNL     1       4.166   2.202  17.819  0.00  0.00    +0.000 HD
ENDROOT
BRANCH   1  13
ATOM     12  C   UNL     1       8.366   8.837  18.143  0.00  0.00    +0.000 C 
ATOM     13  C   UNL     1       7.412   7.898  17.420  0.00  0.00    +0.000 C 
ENDBRANCH   1  13
BRANCH   8  14
ATOM     14  C   UNL     1       4.147   3.119  19.739  0.00  0.00    +0.000 C 
BRANCH  14  15
ATOM     15  C   UNL     1       2.685   2.649  19.842  0.00  0.00    +0.000 C 
BRANCH  15  16
ATOM     16  O   UNL     1       1.880   3.738  20.302  0.00  0.00    +0.000 OA
BRANCH  16  17
ATOM     17  C   UNL     1       2.005   4.932  19.643  0.00  0.00    +0.000 A 
ATOM     18  C   UNL     1       2.113   5.100  18.264  0.00  0.00    +0.000 A 
ATOM     19  C   UNL     1       2.217   6.384  17.713  0.00  0.00    +0.000 A 
ATOM     20  C   UNL     1       2.215   7.516  18.533  0.00  0.00    +0.000 A 
ATOM     21  C   UNL     1       2.307   8.894  17.950  0.00  0.00    +0.000 C 
ATOM     22  C   UNL     1       2.120   7.344  19.918  0.00  0.00    +0.000 A 
ATOM     23  C   UNL     1       2.017   6.062  20.465  0.00  0.00    +0.000 A 
ENDBRANCH  16  17
ENDBRANCH  15  16
ENDBRANCH  14  15
ENDBRANCH   8  14
TORSDOF 5
ENDMDL
MODEL 9
REMARK VINA RESULT:      -6.9      5.762      8.066
REMARK  Name = 
REMARK  7 active torsions:
REMARK  status: ('A' for Active; 'I' for Inactive)
REMARK    1  A    between atoms: C_1  and  C_2
REMARK    2  A    between atoms: C_2  and  N_3
REMARK    3  A    between atoms: N_10  and  C_11
REMARK    4  A    between atoms: C_11  and  C_12
REMARK    5  A    between atoms: C_12  and  O_13
REMARK    6  A    between atoms: O_13  and  C_14
REMARK    7  A    between atoms: C_17  and  C_18
REMARK                            x       y       z     vdW  Elec       q    Type
REMARK                         _______ _______ _______ _____ _____    ______ ____
ROOT
ATOM      1  N   UNL     1       5.603   4.424  14.987  0.00  0.00    +0.000 N 
ATOM      2  C   UNL     1       5.854   4.395  16.351  0.00  0.00    +0.000 A 
ATOM      3  N   UNL     1       6.856   5.100  16.849  0.00  0.00    +0.000 NA
ATOM      4  C   UNL     1       6.957   5.016  18.161  0.00  0.00    +0.000 A 
ATOM      5 CL   UNL     1       8.207   5.940  18.875  0.00  0.00    +0.000 Cl
ATOM      6  N   UNL     1       6.199   4.323  18.998  0.00  0.00    +0.000 NA
ATOM      7  C   UNL     1       5.230   3.653  18.399  0.00  0.00    +0.000 A 
ATOM      8  N   UNL     1       4.393   2.962  19.257  0.00  0.00    +0.000 N 
ATOM      9  N   UNL     1       5.033   3.647  17.085  0.00  0.00    +0.000 NA
ATOM     10  H   UNL     1       5.030   3.616  14.767  0.00  0.00    +0.000 HD
ATOM     11  H   UNL     1       4.818   2.941  20.176  0.00  0.00    +0.000 HD
ENDROOT
BRANCH   1  13
ATOM     12  C   UNL     1       6.570   3.894  12.821  0.00  0.00    +0.000 C 
ATOM     13  C   UNL     1       6.760   4.636  14.134  0.00  0.00    +0.000 C 
ENDBRANCH   1  13
BRANCH   8  14
ATOM     14  C   UNL     1       3.758   1.744  18.772  0.00  0.00    +0.000 C 
BRANCH  14  15
ATOM     15  C   UNL     1       2.227   1.831  18.889  0.00  0.00    +0.000 C 
BRANCH  15  16
ATOM     16  O   UNL     1       1.772   2.980  18.168  0.00  0.00    +0.000 OA
BRANCH  16  17
ATOM     17  C   UNL     1       1.719   4.167  18.850  0.00  0.00    +0.000 A 
ATOM     18  C   UNL     1       1.356   4.330  20.186  0.00  0.00    +0.000 A 
ATOM     19  C   UNL     1       1.361   5.603  20.771  0.00  0.00    +0.000 A 
ATOM     20  C   UNL     1       1.727   6.729  20.028  0.00  0.00    +0.000 A 
ATOM     21  C   UNL     1       1.753   8.093  20.651  0.00  0.00    +0.000 C 
ATOM     22  C   UNL     1       2.079   6.565  18.684  0.00  0.00    +0.000 A 
ATOM     23  C   UNL     1       2.073   5.293  18.103  0.00  0.00    +0.000 A 
ENDBRANCH  16  17
ENDBRANCH  15  16
ENDBRANCH  14  15
ENDBRANCH   8  14
TORSDOF 5
ENDMDL
