MODEL 1
REMARK VINA RESULT:      -7.5      0.000      0.000
REMARK  Name = 
REMARK  11 active torsions:
REMARK  status: ('A' for Active; 'I' for Inactive)
REMARK    1  A    between atoms: C_1  and  C_2
REMARK    2  A    between atoms: C_2  and  C_3
REMARK    3  A    between atoms: C_2  and  N_4
REMARK    4  A    between atoms: C_8  and  C_10
REMARK    5  A    between atoms: C_10  and  O_11
REMARK    6  A    between atoms: O_11  and  C_12
REMARK    7  A    between atoms: C_12  and  C_14
REMARK    8  A    between atoms: C_14  and  C_15
REMARK    9  A    between atoms: C_15  and  C_16
REMARK   10  A    between atoms: C_16  and  S_17
REMARK   11  A    between atoms: S_17  and  C_18
REMARK                            x       y       z     vdW  Elec       q    Type
REMARK                         _______ _______ _______ _____ _____    ______ ____
ROOT
ATOM      1  C   UNL     1       4.973   3.824  18.690  0.00  0.00    +0.000 C 
ATOM      2  O   UNL     1       5.122   3.158  19.708  0.00  0.00    +0.000 OA
ENDROOT
BRANCH   1   3
ATOM      3  O   UNL     1       5.673   4.952  18.420  0.00  0.00    +0.000 OA
BRANCH   3   4
ATOM      4  C   UNL     1       6.979   4.722  17.896  0.00  0.00    +0.000 C 
BRANCH   4   9
ATOM      5  N   UNL     1       6.035   3.230  13.484  0.00  0.00    +0.000 N 
ATOM      6  C   UNL     1       6.657   4.254  14.178  0.00  0.00    +0.000 C 
ATOM      7  O   UNL     1       7.148   5.213  13.594  0.00  0.00    +0.000 OA
ATOM      8  N   UNL     1       6.628   4.095  15.539  0.00  0.00    +0.000 N 
ATOM      9  C   UNL     1       7.120   5.054  16.411  0.00  0.00    +0.000 C 
ATOM     10  O   UNL     1       7.631   6.125  16.088  0.00  0.00    +0.000 OA
ATOM     11  H   UNL     1       6.049   2.310  13.906  0.00  0.00    +0.000 HD
ATOM     12  H   UNL     1       6.111   3.315  15.920  0.00  0.00    +0.000 HD
BRANCH   5  14
ATOM     13  C   UNL     1       6.869   2.213  11.389  0.00  0.00    +0.000 C 
ATOM     14  C   UNL     1       6.007   3.306  12.021  0.00  0.00    +0.000 C 
ATOM     15  C   UNL     1       4.577   3.280  11.503  0.00  0.00    +0.000 C 
ENDBRANCH   5  14
ENDBRANCH   4   9
ENDBRANCH   3   4
ENDBRANCH   1   3
BRANCH   1  16
ATOM     16  C   UNL     1       3.965   3.558  17.603  0.00  0.00    +0.000 C 
BRANCH  16  17
ATOM     17  C   UNL     1       2.668   4.351  17.797  0.00  0.00    +0.000 C 
BRANCH  17  18
ATOM     18  C   UNL     1       2.837   5.848  18.095  0.00  0.00    +0.000 C 
BRANCH  18  19
ATOM     19  S   UNL     1       2.502   6.225  19.837  0.00  0.00    +0.000 S 
BRANCH  19  20
ATOM     20  C   UNL     1       1.794   7.822  19.729  0.00  0.00    +0.000 A 
ATOM     21  N   UNL     1       1.210   8.409  20.749  0.00  0.00    +0.000 NA
ATOM     22  C   UNL     1       0.802   9.682  20.372  0.00  0.00    +0.000 A 
ATOM     23  C   UNL     1       0.155  10.625  21.196  0.00  0.00    +0.000 A 
ATOM     24  C   UNL     1      -0.061  11.929  20.733  0.00  0.00    +0.000 A 
ATOM     25  C   UNL     1       0.278  12.278  19.431  0.00  0.00    +0.000 A 
ATOM     26  C   UNL     1       0.841  11.337  18.564  0.00  0.00    +0.000 A 
ATOM     27  C   UNL     1       1.118  10.053  19.064  0.00  0.00    +0.000 A 
ATOM     28  S   UNL     1       1.873   8.725  18.277  0.00  0.00    +0.000 S 
ENDBRANCH  19  20
ENDBRANCH  18  19
ENDBRANCH  17  18
ENDBRANCH  16  17
ENDBRANCH   1  16
TORSDOF 9
ENDMDL
MODEL 2
REMARK VINA RESULT:      -7.2      3.950      9.421
REMARK  Name = 
REMARK  11 active torsions:
REMARK  status: ('A' for Active; 'I' for Inactive)
REMARK    1  A    between atoms: C_1  and  C_2
REMARK    2  A    between atoms: C_2  and  C_3
REMARK    3  A    between atoms: C_2  and  N_4
REMARK    4  A    between atoms: C_8  and  C_10
REMARK    5  A    between atoms: C_10  and  O_11
REMARK    6  A    between atoms: O_11  and  C_12
REMARK    7  A    between atoms: C_12  and  C_14
REMARK    8  A    between atoms: C_14  and  C_15
REMARK    9  A    between atoms: C_15  and  C_16
REMARK   10  A    between atoms: C_16  and  S_17
REMARK   11  A    between atoms: S_17  and  C_18
REMARK                            x       y       z     vdW  Elec       q    Type
REMARK                         _______ _______ _______ _____ _____    ______ ____
ROOT
ATOM      1  C   UNL     1       2.081   5.608  20.087  0.00  0.00    +0.000 C 
ATOM      2  O   UNL     1       2.492   5.077  21.112  0.00  0.00    +0.000 OA
ENDROOT
BRANCH   1   3
ATOM      3  O   UNL     1       1.994   6.949  19.917  0.00  0.00    +0.000 OA
BRANCH   3   4
ATOM      4  C   UNL     1       1.521   7.657  21.060  0.00  0.00    +0.000 C 
BRANCH   4   9
ATOM      5  N   UNL     1      -1.204  11.140  22.800  0.00  0.00    +0.000 N 
ATOM      6  C   UNL     1      -0.588  10.717  21.634  0.00  0.00    +0.000 C 
ATOM      7  O   UNL     1      -0.630  11.391  20.611  0.00  0.00    +0.000 OA
ATOM      8  N   UNL     1       0.075   9.525  21.760  0.00  0.00    +0.000 N 
ATOM      9  C   UNL     1       0.825   8.977  20.731  0.00  0.00    +0.000 C 
ATOM     10  O   UNL     1       0.980   9.468  19.615  0.00  0.00    +0.000 OA
ATOM     11  H   UNL     1      -1.527  10.423  23.438  0.00  0.00    +0.000 HD
ATOM     12  H   UNL     1       0.128   9.100  22.676  0.00  0.00    +0.000 HD
BRANCH   5  14
ATOM     13  C   UNL     1      -3.267  12.298  23.520  0.00  0.00    +0.000 C 
ATOM     14  C   UNL     1      -1.938  12.407  22.772  0.00  0.00    +0.000 C 
ATOM     15  C   UNL     1      -1.077  13.546  23.296  0.00  0.00    +0.000 C 
ENDBRANCH   5  14
ENDBRANCH   4   9
ENDBRANCH   3   4
ENDBRANCH   1   3
BRANCH   1  16
ATOM     16  C   UNL     1       1.549   4.889  18.875  0.00  0.00    +0.000 C 
BRANCH  16  17
ATOM     17  C   UNL     1       1.269   3.406  19.146  0.00  0.00    +0.000 C 
BRANCH  17  18
ATOM     18  C   UNL     1       1.893   2.415  18.153  0.00  0.00    +0.000 C 
BRANCH  18  19
ATOM     19  S   UNL     1       3.526   1.853  18.705  0.00  0.00    +0.000 S 
BRANCH  19  20
ATOM     20  C   UNL     1       4.519   3.257  18.377  0.00  0.00    +0.000 A 
ATOM     21  N   UNL     1       5.370   3.742  19.251  0.00  0.00    +0.000 NA
ATOM     22  C   UNL     1       6.047   4.815  18.684  0.00  0.00    +0.000 A 
ATOM     23  C   UNL     1       7.053   5.584  19.303  0.00  0.00    +0.000 A 
ATOM     24  C   UNL     1       7.762   6.537  18.563  0.00  0.00    +0.000 A 
ATOM     25  C   UNL     1       7.421   6.796  17.240  0.00  0.00    +0.000 A 
ATOM     26  C   UNL     1       6.369   6.109  16.628  0.00  0.00    +0.000 A 
ATOM     27  C   UNL     1       5.714   5.105  17.360  0.00  0.00    +0.000 A 
ATOM     28  S   UNL     1       4.457   4.046  16.859  0.00  0.00    +0.000 S 
ENDBRANCH  19  20
ENDBRANCH  18  19
ENDBRANCH  17  18
ENDBRANCH  16  17
ENDBRANCH   1  16
TORSDOF 9
ENDMDL
MODEL 3
REMARK VINA RESULT:      -7.1      3.623      7.952
REMARK  Name = 
REMARK  11 active torsions:
REMARK  status: ('A' for Active; 'I' for Inactive)
REMARK    1  A    between atoms: C_1  and  C_2
REMARK    2  A    between atoms: C_2  and  C_3
REMARK    3  A    between atoms: C_2  and  N_4
REMARK    4  A    between atoms: C_8  and  C_10
REMARK    5  A    between atoms: C_10  and  O_11
REMARK    6  A    between atoms: O_11  and  C_12
REMARK    7  A    between atoms: C_12  and  C_14
REMARK    8  A    between atoms: C_14  and  C_15
REMARK    9  A    between atoms: C_15  and  C_16
REMARK   10  A    between atoms: C_16  and  S_17
REMARK   11  A    between atoms: S_17  and  C_18
REMARK                            x       y       z     vdW  Elec       q    Type
REMARK                         _______ _______ _______ _____ _____    ______ ____
ROOT
ATOM      1  C   UNL     1       2.246   3.400  21.281  0.00  0.00    +0.000 C 
ATOM      2  O   UNL     1       2.890   2.581  21.927  0.00  0.00    +0.000 OA
ENDROOT
BRANCH   1   3
ATOM      3  O   UNL     1       2.577   4.710  21.186  0.00  0.00    +0.000 OA
BRANCH   3   4
ATOM      4  C   UNL     1       1.465   5.585  21.003  0.00  0.00    +0.000 C 
BRANCH   4   9
ATOM      5  N   UNL     1       0.450  10.180  20.346  0.00  0.00    +0.000 N 
ATOM      6  C   UNL     1       1.218   9.149  19.831  0.00  0.00    +0.000 C 
ATOM      7  O   UNL     1       1.997   9.337  18.904  0.00  0.00    +0.000 OA
ATOM      8  N   UNL     1       1.039   7.953  20.474  0.00  0.00    +0.000 N 
ATOM      9  C   UNL     1       1.779   6.822  20.163  0.00  0.00    +0.000 C 
ATOM     10  O   UNL     1       2.652   6.750  19.301  0.00  0.00    +0.000 OA
ATOM     11  H   UNL     1      -0.442   9.932  20.756  0.00  0.00    +0.000 HD
ATOM     12  H   UNL     1       0.442   7.931  21.289  0.00  0.00    +0.000 HD
BRANCH   5  14
ATOM     13  C   UNL     1      -0.802  12.127  19.476  0.00  0.00    +0.000 C 
ATOM     14  C   UNL     1       0.570  11.504  19.730  0.00  0.00    +0.000 C 
ATOM     15  C   UNL     1       1.466  12.410  20.561  0.00  0.00    +0.000 C 
ENDBRANCH   5  14
ENDBRANCH   4   9
ENDBRANCH   3   4
ENDBRANCH   1   3
BRANCH   1  16
ATOM     16  C   UNL     1       0.964   3.126  20.539  0.00  0.00    +0.000 C 
BRANCH  16  17
ATOM     17  C   UNL     1       1.180   2.259  19.294  0.00  0.00    +0.000 C 
BRANCH  17  18
ATOM     18  C   UNL     1       2.566   2.358  18.641  0.00  0.00    +0.000 C 
BRANCH  18  19
ATOM     19  S   UNL     1       2.591   3.585  17.305  0.00  0.00    +0.000 S 
BRANCH  19  20
ATOM     20  C   UNL     1       4.118   4.392  17.588  0.00  0.00    +0.000 A 
ATOM     21  N   UNL     1       4.547   5.380  16.835  0.00  0.00    +0.000 NA
ATOM     22  C   UNL     1       5.752   5.849  17.340  0.00  0.00    +0.000 A 
ATOM     23  C   UNL     1       6.514   6.914  16.817  0.00  0.00    +0.000 A 
ATOM     24  C   UNL     1       7.632   7.386  17.516  0.00  0.00    +0.000 A 
ATOM     25  C   UNL     1       8.052   6.753  18.680  0.00  0.00    +0.000 A 
ATOM     26  C   UNL     1       7.366   5.639  19.173  0.00  0.00    +0.000 A 
ATOM     27  C   UNL     1       6.205   5.221  18.502  0.00  0.00    +0.000 A 
ATOM     28  S   UNL     1       5.116   3.955  18.908  0.00  0.00    +0.000 S 
ENDBRANCH  19  20
ENDBRANCH  18  19
ENDBRANCH  17  18
ENDBRANCH  16  17
ENDBRANCH   1  16
TORSDOF 9
ENDMDL
MODEL 4
REMARK VINA RESULT:      -7.1      1.575      2.247
REMARK  Name = 
REMARK  11 active torsions:
REMARK  status: ('A' for Active; 'I' for Inactive)
REMARK    1  A    between atoms: C_1  and  C_2
REMARK    2  A    between atoms: C_2  and  C_3
REMARK    3  A    between atoms: C_2  and  N_4
REMARK    4  A    between atoms: C_8  and  C_10
REMARK    5  A    between atoms: C_10  and  O_11
REMARK    6  A    between atoms: O_11  and  C_12
REMARK    7  A    between atoms: C_12  and  C_14
REMARK    8  A    between atoms: C_14  and  C_15
REMARK    9  A    between atoms: C_15  and  C_16
REMARK   10  A    between atoms: C_16  and  S_17
REMARK   11  A    between atoms: S_17  and  C_18
REMARK                            x       y       z     vdW  Elec       q    Type
REMARK                         _______ _______ _______ _____ _____    ______ ____
ROOT
ATOM      1  C   UNL     1       4.563   5.062  18.582  0.00  0.00    +0.000 C 
ATOM      2  O   UNL     1       4.277   4.135  17.834  0.00  0.00    +0.000 OA
ENDROOT
BRANCH   1   3
ATOM      3  O   UNL     1       5.798   5.612  18.661  0.00  0.00    +0.000 OA
BRANCH   3   4
ATOM      4  C   UNL     1       6.825   4.844  18.038  0.00  0.00    +0.000 C 
BRANCH   4   9
ATOM      5  N   UNL     1       6.019   3.301  13.617  0.00  0.00    +0.000 N 
ATOM      6  C   UNL     1       6.626   4.328  14.318  0.00  0.00    +0.000 C 
ATOM      7  O   UNL     1       7.148   5.273  13.739  0.00  0.00    +0.000 OA
ATOM      8  N   UNL     1       6.549   4.188  15.679  0.00  0.00    +0.000 N 
ATOM      9  C   UNL     1       7.021   5.154  16.554  0.00  0.00    +0.000 C 
ATOM     10  O   UNL     1       7.555   6.215  16.235  0.00  0.00    +0.000 OA
ATOM     11  H   UNL     1       6.007   2.387  14.052  0.00  0.00    +0.000 HD
ATOM     12  H   UNL     1       6.011   3.419  16.053  0.00  0.00    +0.000 HD
BRANCH   5  14
ATOM     13  C   UNL     1       6.918   2.250  11.567  0.00  0.00    +0.000 C 
ATOM     14  C   UNL     1       6.041   3.356  12.153  0.00  0.00    +0.000 C 
ATOM     15  C   UNL     1       4.631   3.331  11.586  0.00  0.00    +0.000 C 
ENDBRANCH   5  14
ENDBRANCH   4   9
ENDBRANCH   3   4
ENDBRANCH   1   3
BRANCH   1  16
ATOM     16  C   UNL     1       3.635   5.709  19.577  0.00  0.00    +0.000 C 
BRANCH  16  17
ATOM     17  C   UNL     1       2.502   6.491  18.902  0.00  0.00    +0.000 C 
BRANCH  17  18
ATOM     18  C   UNL     1       2.128   7.828  19.559  0.00  0.00    +0.000 C 
BRANCH  18  19
ATOM     19  S   UNL     1       1.227   7.580  21.113  0.00  0.00    +0.000 S 
BRANCH  19  20
ATOM     20  C   UNL     1       0.641   9.195  21.449  0.00  0.00    +0.000 A 
ATOM     21  N   UNL     1       0.848  10.207  20.637  0.00  0.00    +0.000 NA
ATOM     22  C   UNL     1       0.216  11.336  21.143  0.00  0.00    +0.000 A 
ATOM     23  C   UNL     1       0.194  12.613  20.547  0.00  0.00    +0.000 A 
ATOM     24  C   UNL     1      -0.612  13.624  21.085  0.00  0.00    +0.000 A 
ATOM     25  C   UNL     1      -1.325  13.405  22.258  0.00  0.00    +0.000 A 
ATOM     26  C   UNL     1      -1.251  12.175  22.918  0.00  0.00    +0.000 A 
ATOM     27  C   UNL     1      -0.496  11.148  22.329  0.00  0.00    +0.000 A 
ATOM     28  S   UNL     1      -0.286   9.524  22.850  0.00  0.00    +0.000 S 
ENDBRANCH  19  20
ENDBRANCH  18  19
ENDBRANCH  17  18
ENDBRANCH  16  17
ENDBRANCH   1  16
TORSDOF 9
ENDMDL
MODEL 5
REMARK VINA RESULT:      -7.0      1.214      1.296
REMARK  Name = 
REMARK  11 active torsions:
REMARK  status: ('A' for Active; 'I' for Inactive)
REMARK    1  A    between atoms: C_1  and  C_2
REMARK    2  A    between atoms: C_2  and  C_3
REMARK    3  A    between atoms: C_2  and  N_4
REMARK    4  A    between atoms: C_8  and  C_10
REMARK    5  A    between atoms: C_10  and  O_11
REMARK    6  A    between atoms: O_11  and  C_12
REMARK    7  A    between atoms: C_12  and  C_14
REMARK    8  A    between atoms: C_14  and  C_15
REMARK    9  A    between atoms: C_15  and  C_16
REMARK   10  A    between atoms: C_16  and  S_17
REMARK   11  A    between atoms: S_17  and  C_18
REMARK                            x       y       z     vdW  Elec       q    Type
REMARK                         _______ _______ _______ _____ _____    ______ ____
ROOT
ATOM      1  C   UNL     1       4.251   2.649  19.588  0.00  0.00    +0.000 C 
ATOM      2  O   UNL     1       4.987   2.108  20.406  0.00  0.00    +0.000 OA
ENDROOT
BRANCH   1   3
ATOM      3  O   UNL     1       4.666   3.081  18.373  0.00  0.00    +0.000 OA
BRANCH   3   4
ATOM      4  C   UNL     1       5.662   4.100  18.420  0.00  0.00    +0.000 C 
BRANCH   4   9
ATOM      5  N   UNL     1       5.648   3.196  13.755  0.00  0.00    +0.000 N 
ATOM      6  C   UNL     1       6.086   4.126  14.683  0.00  0.00    +0.000 C 
ATOM      7  O   UNL     1       6.647   5.158  14.335  0.00  0.00    +0.000 OA
ATOM      8  N   UNL     1       5.799   3.787  15.980  0.00  0.00    +0.000 N 
ATOM      9  C   UNL     1       6.078   4.627  17.047  0.00  0.00    +0.000 C 
ATOM     10  O   UNL     1       6.603   5.736  16.971  0.00  0.00    +0.000 OA
ATOM     11  H   UNL     1       5.612   2.229  14.051  0.00  0.00    +0.000 HD
ATOM     12  H   UNL     1       5.246   2.959  16.149  0.00  0.00    +0.000 HD
BRANCH   5  14
ATOM     13  C   UNL     1       7.013   2.569  11.790  0.00  0.00    +0.000 C 
ATOM     14  C   UNL     1       5.902   3.465  12.337  0.00  0.00    +0.000 C 
ATOM     15  C   UNL     1       4.621   3.351  11.525  0.00  0.00    +0.000 C 
ENDBRANCH   5  14
ENDBRANCH   4   9
ENDBRANCH   3   4
ENDBRANCH   1   3
BRANCH   1  16
ATOM     16  C   UNL     1       2.798   2.983  19.796  0.00  0.00    +0.000 C 
BRANCH  16  17
ATOM     17  C   UNL     1       2.582   3.981  20.939  0.00  0.00    +0.000 C 
BRANCH  17  18
ATOM     18  C   UNL     1       1.810   5.259  20.576  0.00  0.00    +0.000 C 
BRANCH  18  19
ATOM     19  S   UNL     1       2.763   6.319  19.455  0.00  0.00    +0.000 S 
BRANCH  19  20
ATOM     20  C   UNL     1       1.911   7.842  19.592  0.00  0.00    +0.000 A 
ATOM     21  N   UNL     1       1.353   8.244  20.711  0.00  0.00    +0.000 NA
ATOM     22  C   UNL     1       0.809   9.507  20.523  0.00  0.00    +0.000 A 
ATOM     23  C   UNL     1       0.142  10.279  21.497  0.00  0.00    +0.000 A 
ATOM     24  C   UNL     1      -0.220  11.602  21.216  0.00  0.00    +0.000 A 
ATOM     25  C   UNL     1      -0.008  12.135  19.950  0.00  0.00    +0.000 A 
ATOM     26  C   UNL     1       0.571  11.363  18.939  0.00  0.00    +0.000 A 
ATOM     27  C   UNL     1       0.995  10.062  19.255  0.00  0.00    +0.000 A 
ATOM     28  S   UNL     1       1.805   8.916  18.263  0.00  0.00    +0.000 S 
ENDBRANCH  19  20
ENDBRANCH  18  19
ENDBRANCH  17  18
ENDBRANCH  16  17
ENDBRANCH   1  16
TORSDOF 9
ENDMDL
MODEL 6
REMARK VINA RESULT:      -7.0      7.153      8.593
REMARK  Name = 
REMARK  11 active torsions:
REMARK  status: ('A' for Active; 'I' for Inactive)
REMARK    1  A    between atoms: C_1  and  C_2
REMARK    2  A    between atoms: C_2  and  C_3
REMARK    3  A    between atoms: C_2  and  N_4
REMARK    4  A    between atoms: C_8  and  C_10
REMARK    5  A    between atoms: C_10  and  O_11
REMARK    6  A    between atoms: O_11  and  C_12
REMARK    7  A    between atoms: C_12  and  C_14
REMARK    8  A    between atoms: C_14  and  C_15
REMARK    9  A    between atoms: C_15  and  C_16
REMARK   10  A    between atoms: C_16  and  S_17
REMARK   11  A    between atoms: S_17  and  C_18
REMARK                            x       y       z     vdW  Elec       q    Type
REMARK                         _______ _______ _______ _____ _____    ______ ____
ROOT
ATOM      1  C   UNL     1       7.612   7.317  17.862  0.00  0.00    +0.000 C 
ATOM      2  O   UNL     1       8.048   6.653  18.795  0.00  0.00    +0.000 OA
ENDROOT
BRANCH   1   3
ATOM      3  O   UNL     1       6.820   6.812  16.885  0.00  0.00    +0.000 OA
BRANCH   3   4
ATOM      4  C   UNL     1       7.094   5.454  16.549  0.00  0.00    +0.000 C 
BRANCH   4   9
ATOM      5  N   UNL     1       3.569   4.399  19.555  0.00  0.00    +0.000 N 
ATOM      6  C   UNL     1       4.169   3.965  18.385  0.00  0.00    +0.000 C 
ATOM      7  O   UNL     1       3.727   3.010  17.758  0.00  0.00    +0.000 OA
ATOM      8  N   UNL     1       5.251   4.719  18.008  0.00  0.00    +0.000 N 
ATOM      9  C   UNL     1       5.933   4.499  16.821  0.00  0.00    +0.000 C 
ATOM     10  O   UNL     1       5.671   3.630  15.992  0.00  0.00    +0.000 OA
ATOM     11  H   UNL     1       4.163   4.847  20.242  0.00  0.00    +0.000 HD
ATOM     12  H   UNL     1       5.472   5.544  18.547  0.00  0.00    +0.000 HD
BRANCH   5  14
ATOM     13  C   UNL     1       2.769   2.742  21.208  0.00  0.00    +0.000 C 
ATOM     14  C   UNL     1       2.401   3.663  20.045  0.00  0.00    +0.000 C 
ATOM     15  C   UNL     1       1.270   4.614  20.402  0.00  0.00    +0.000 C 
ENDBRANCH   5  14
ENDBRANCH   4   9
ENDBRANCH   3   4
ENDBRANCH   1   3
BRANCH   1  16
ATOM     16  C   UNL     1       7.916   8.767  17.594  0.00  0.00    +0.000 C 
BRANCH  16  17
ATOM     17  C   UNL     1       8.751   9.408  18.709  0.00  0.00    +0.000 C 
BRANCH  17  18
ATOM     18  C   UNL     1       9.168  10.868  18.477  0.00  0.00    +0.000 C 
BRANCH  18  19
ATOM     19  S   UNL     1      10.624  11.312  19.462  0.00  0.00    +0.000 S 
BRANCH  19  20
ATOM     20  C   UNL     1      10.772  13.025  19.132  0.00  0.00    +0.000 A 
ATOM     21  N   UNL     1      10.881  13.505  17.913  0.00  0.00    +0.000 NA
ATOM     22  C   UNL     1      10.922  14.892  17.970  0.00  0.00    +0.000 A 
ATOM     23  C   UNL     1      11.016  15.767  16.869  0.00  0.00    +0.000 A 
ATOM     24  C   UNL     1      10.891  17.148  17.058  0.00  0.00    +0.000 A 
ATOM     25  C   UNL     1      10.763  17.674  18.338  0.00  0.00    +0.000 A 
ATOM     26  C   UNL     1      10.755  16.835  19.456  0.00  0.00    +0.000 A 
ATOM     27  C   UNL     1      10.809  15.447  19.247  0.00  0.00    +0.000 A 
ATOM     28  S   UNL     1      10.734  14.174  20.399  0.00  0.00    +0.000 S 
ENDBRANCH  19  20
ENDBRANCH  18  19
ENDBRANCH  17  18
ENDBRANCH  16  17
ENDBRANCH   1  16
TORSDOF 9
ENDMDL
MODEL 7
REMARK VINA RESULT:      -7.0      3.954      8.438
REMARK  Name = 
REMARK  11 active torsions:
REMARK  status: ('A' for Active; 'I' for Inactive)
REMARK    1  A    between atoms: C_1  and  C_2
REMARK    2  A    between atoms: C_2  and  C_3
REMARK    3  A    between atoms: C_2  and  N_4
REMARK    4  A    between atoms: C_8  and  C_10
REMARK    5  A    between atoms: C_10  and  O_11
REMARK    6  A    between atoms: O_11  and  C_12
REMARK    7  A    between atoms: C_12  and  C_14
REMARK    8  A    between atoms: C_14  and  C_15
REMARK    9  A    between atoms: C_15  and  C_16
REMARK   10  A    between atoms: C_16  and  S_17
REMARK   11  A    between atoms: S_17  and  C_18
REMARK                            x       y       z     vdW  Elec       q    Type
REMARK                         _______ _______ _______ _____ _____    ______ ____
ROOT
ATOM      1  C   UNL     1       3.491   7.481  17.626  0.00  0.00    +0.000 C 
ATOM      2  O   UNL     1       3.220   6.965  18.704  0.00  0.00    +0.000 OA
ENDROOT
BRANCH   1   3
ATOM      3  O   UNL     1       2.839   8.556  17.121  0.00  0.00    +0.000 OA
BRANCH   3   4
ATOM      4  C   UNL     1       1.546   8.775  17.680  0.00  0.00    +0.000 C 
BRANCH   4   9
ATOM      5  N   UNL     1       3.066  13.274  17.867  0.00  0.00    +0.000 N 
ATOM      6  C   UNL     1       2.217  12.383  18.503  0.00  0.00    +0.000 C 
ATOM      7  O   UNL     1       1.504  12.737  19.434  0.00  0.00    +0.000 OA
ATOM      8  N   UNL     1       2.242  11.121  17.969  0.00  0.00    +0.000 N 
ATOM      9  C   UNL     1       1.402  10.110  18.410  0.00  0.00    +0.000 C 
ATOM     10  O   UNL     1       0.565  10.210  19.305  0.00  0.00    +0.000 OA
ATOM     11  H   UNL     1       3.907  12.894  17.451  0.00  0.00    +0.000 HD
ATOM     12  H   UNL     1       2.796  10.961  17.139  0.00  0.00    +0.000 HD
BRANCH   5  14
ATOM     13  C   UNL     1       4.074  14.792  19.538  0.00  0.00    +0.000 C 
ATOM     14  C   UNL     1       3.113  14.653  18.358  0.00  0.00    +0.000 C 
ATOM     15  C   UNL     1       3.443  15.620  17.233  0.00  0.00    +0.000 C 
ENDBRANCH   5  14
ENDBRANCH   4   9
ENDBRANCH   3   4
ENDBRANCH   1   3
BRANCH   1  16
ATOM     16  C   UNL     1       4.532   6.993  16.652  0.00  0.00    +0.000 C 
BRANCH  16  17
ATOM     17  C   UNL     1       5.875   6.695  17.328  0.00  0.00    +0.000 C 
BRANCH  17  18
ATOM     18  C   UNL     1       6.521   5.349  16.968  0.00  0.00    +0.000 C 
BRANCH  18  19
ATOM     19  S   UNL     1       5.324   4.210  16.222  0.00  0.00    +0.000 S 
BRANCH  19  20
ATOM     20  C   UNL     1       4.241   3.900  17.562  0.00  0.00    +0.000 A 
ATOM     21  N   UNL     1       2.943   3.765  17.407  0.00  0.00    +0.000 NA
ATOM     22  C   UNL     1       2.364   3.471  18.635  0.00  0.00    +0.000 A 
ATOM     23  C   UNL     1       0.995   3.237  18.874  0.00  0.00    +0.000 A 
ATOM     24  C   UNL     1       0.568   2.797  20.132  0.00  0.00    +0.000 A 
ATOM     25  C   UNL     1       1.475   2.672  21.178  0.00  0.00    +0.000 A 
ATOM     26  C   UNL     1       2.825   2.983  20.993  0.00  0.00    +0.000 A 
ATOM     27  C   UNL     1       3.252   3.354  19.707  0.00  0.00    +0.000 A 
ATOM     28  S   UNL     1       4.840   3.709  19.153  0.00  0.00    +0.000 S 
ENDBRANCH  19  20
ENDBRANCH  18  19
ENDBRANCH  17  18
ENDBRANCH  16  17
ENDBRANCH   1  16
TORSDOF 9
ENDMDL
MODEL 8
REMARK VINA RESULT:      -6.9      1.182      1.467
REMARK  Name = 
REMARK  11 active torsions:
REMARK  status: ('A' for Active; 'I' for Inactive)
REMARK    1  A    between atoms: C_1  and  C_2
REMARK    2  A    between atoms: C_2  and  C_3
REMARK    3  A    between atoms: C_2  and  N_4
REMARK    4  A    between atoms: C_8  and  C_10
REMARK    5  A    between atoms: C_10  and  O_11
REMARK    6  A    between atoms: O_11  and  C_12
REMARK    7  A    between atoms: C_12  and  C_14
REMARK    8  A    between atoms: C_14  and  C_15
REMARK    9  A    between atoms: C_15  and  C_16
REMARK   10  A    between atoms: C_16  and  S_17
REMARK   11  A    between atoms: S_17  and  C_18
REMARK                            x       y       z     vdW  Elec       q    Type
REMARK                         _______ _______ _______ _____ _____    ______ ____
ROOT
ATOM      1  C   UNL     1       4.613   3.985  19.099  0.00  0.00    +0.000 C 
ATOM      2  O   UNL     1       4.626   3.049  18.307  0.00  0.00    +0.000 OA
ENDROOT
BRANCH   1   3
ATOM      3  O   UNL     1       5.718   4.682  19.457  0.00  0.00    +0.000 OA
BRANCH   3   4
ATOM      4  C   UNL     1       6.825   4.525  18.573  0.00  0.00    +0.000 C 
BRANCH   4   9
ATOM      5  N   UNL     1       6.305   3.462  13.971  0.00  0.00    +0.000 N 
ATOM      6  C   UNL     1       6.366   4.538  14.840  0.00  0.00    +0.000 C 
ATOM      7  O   UNL     1       6.204   5.687  14.445  0.00  0.00    +0.000 OA
ATOM      8  N   UNL     1       6.586   4.181  16.145  0.00  0.00    +0.000 N 
ATOM      9  C   UNL     1       6.595   5.106  17.178  0.00  0.00    +0.000 C 
ATOM     10  O   UNL     1       6.420   6.317  17.060  0.00  0.00    +0.000 OA
ATOM     11  H   UNL     1       6.852   2.644  14.208  0.00  0.00    +0.000 HD
ATOM     12  H   UNL     1       6.609   3.198  16.376  0.00  0.00    +0.000 HD
BRANCH   5  14
ATOM     13  C   UNL     1       7.355   4.168  11.846  0.00  0.00    +0.000 C 
ATOM     14  C   UNL     1       6.070   3.735  12.551  0.00  0.00    +0.000 C 
ATOM     15  C   UNL     1       5.416   2.543  11.869  0.00  0.00    +0.000 C 
ENDBRANCH   5  14
ENDBRANCH   4   9
ENDBRANCH   3   4
ENDBRANCH   1   3
BRANCH   1  16
ATOM     16  C   UNL     1       3.409   4.485  19.852  0.00  0.00    +0.000 C 
BRANCH  16  17
ATOM     17  C   UNL     1       2.136   4.476  18.999  0.00  0.00    +0.000 C 
BRANCH  17  18
ATOM     18  C   UNL     1       2.043   5.569  17.924  0.00  0.00    +0.000 C 
BRANCH  18  19
ATOM     19  S   UNL     1       3.115   6.979  18.310  0.00  0.00    +0.000 S 
BRANCH  19  20
ATOM     20  C   UNL     1       2.035   8.010  19.224  0.00  0.00    +0.000 A 
ATOM     21  N   UNL     1       1.732   7.781  20.482  0.00  0.00    +0.000 NA
ATOM     22  C   UNL     1       0.907   8.796  20.947  0.00  0.00    +0.000 A 
ATOM     23  C   UNL     1       0.385   8.913  22.251  0.00  0.00    +0.000 A 
ATOM     24  C   UNL     1      -0.307  10.070  22.629  0.00  0.00    +0.000 A 
ATOM     25  C   UNL     1      -0.563  11.071  21.699  0.00  0.00    +0.000 A 
ATOM     26  C   UNL     1      -0.133  10.941  20.376  0.00  0.00    +0.000 A 
ATOM     27  C   UNL     1       0.622   9.809  20.028  0.00  0.00    +0.000 A 
ATOM     28  S   UNL     1       1.351   9.414  18.523  0.00  0.00    +0.000 S 
ENDBRANCH  19  20
ENDBRANCH  18  19
ENDBRANCH  17  18
ENDBRANCH  16  17
ENDBRANCH   1  16
TORSDOF 9
ENDMDL
MODEL 9
REMARK VINA RESULT:      -6.9      1.493      2.372
REMARK  Name = 
REMARK  11 active torsions:
REMARK  status: ('A' for Active; 'I' for Inactive)
REMARK    1  A    between atoms: C_1  and  C_2
REMARK    2  A    between atoms: C_2  and  C_3
REMARK    3  A    between atoms: C_2  and  N_4
REMARK    4  A    between atoms: C_8  and  C_10
REMARK    5  A    between atoms: C_10  and  O_11
REMARK    6  A    between atoms: O_11  and  C_12
REMARK    7  A    between atoms: C_12  and  C_14
REMARK    8  A    between atoms: C_14  and  C_15
REMARK    9  A    between atoms: C_15  and  C_16
REMARK   10  A    between atoms: C_16  and  S_17
REMARK   11  A    between atoms: S_17  and  C_18
REMARK                            x       y       z     vdW  Elec       q    Type
REMARK                         _______ _______ _______ _____ _____    ______ ____
ROOT
ATOM      1  C   UNL     1       2.643   3.912  19.297  0.00  0.00    +0.000 C 
ATOM      2  O   UNL     1       2.318   3.894  20.478  0.00  0.00    +0.000 OA
ENDROOT
BRANCH   1   3
ATOM      3  O   UNL     1       3.782   3.353  18.821  0.00  0.00    +0.000 OA
BRANCH   3   4
ATOM      4  C   UNL     1       4.979   3.968  19.291  0.00  0.00    +0.000 C 
BRANCH   4   9
ATOM      5  N   UNL     1       5.879   3.604  14.640  0.00  0.00    +0.000 N 
ATOM      6  C   UNL     1       6.452   4.017  15.831  0.00  0.00    +0.000 C 
ATOM      7  O   UNL     1       7.562   4.534  15.859  0.00  0.00    +0.000 OA
ATOM      8  N   UNL     1       5.650   3.820  16.926  0.00  0.00    +0.000 N 
ATOM      9  C   UNL     1       6.008   4.245  18.196  0.00  0.00    +0.000 C 
ATOM     10  O   UNL     1       7.051   4.824  18.493  0.00  0.00    +0.000 OA
ATOM     11  H   UNL     1       5.228   2.829  14.683  0.00  0.00    +0.000 HD
ATOM     12  H   UNL     1       4.712   3.474  16.778  0.00  0.00    +0.000 HD
BRANCH   5  14
ATOM     13  C   UNL     1       5.844   3.356  12.180  0.00  0.00    +0.000 C 
ATOM     14  C   UNL     1       6.653   3.774  13.407  0.00  0.00    +0.000 C 
ATOM     15  C   UNL     1       7.182   5.194  13.289  0.00  0.00    +0.000 C 
ENDBRANCH   5  14
ENDBRANCH   4   9
ENDBRANCH   3   4
ENDBRANCH   1   3
BRANCH   1  16
ATOM     16  C   UNL     1       1.889   4.594  18.186  0.00  0.00    +0.000 C 
BRANCH  16  17
ATOM     17  C   UNL     1       2.521   5.930  17.781  0.00  0.00    +0.000 C 
BRANCH  17  18
ATOM     18  C   UNL     1       2.457   7.048  18.833  0.00  0.00    +0.000 C 
BRANCH  18  19
ATOM     19  S   UNL     1       2.100   8.657  18.078  0.00  0.00    +0.000 S 
BRANCH  19  20
ATOM     20  C   UNL     1       1.056   9.391  19.276  0.00  0.00    +0.000 A 
ATOM     21  N   UNL     1       0.945   8.926  20.500  0.00  0.00    +0.000 NA
ATOM     22  C   UNL     1       0.093   9.748  21.226  0.00  0.00    +0.000 A 
ATOM     23  C   UNL     1      -0.261   9.589  22.582  0.00  0.00    +0.000 A 
ATOM     24  C   UNL     1      -1.005  10.579  23.233  0.00  0.00    +0.000 A 
ATOM     25  C   UNL     1      -1.476  11.681  22.530  0.00  0.00    +0.000 A 
ATOM     26  C   UNL     1      -1.215  11.821  21.164  0.00  0.00    +0.000 A 
ATOM     27  C   UNL     1      -0.406  10.856  20.539  0.00  0.00    +0.000 A 
ATOM     28  S   UNL     1       0.154  10.800  18.915  0.00  0.00    +0.000 S 
ENDBRANCH  19  20
ENDBRANCH  18  19
ENDBRANCH  17  18
ENDBRANCH  16  17
ENDBRANCH   1  16
TORSDOF 9
ENDMDL
