MODEL 1
REMARK VINA RESULT:      -6.1      0.000      0.000
REMARK  Name = 
REMARK  10 active torsions:
REMARK  status: ('A' for Active; 'I' for Inactive)
REMARK    1  A    between atoms: C_1  and  O_2
REMARK    2  A    between atoms: O_2  and  C_3
REMARK    3  A    between atoms: C_6  and  C_7
REMARK    4  A    between atoms: C_9  and  C_10
REMARK    5  A    between atoms: C_9  and  C_17
REMARK    6  A    between atoms: C_10  and  C_11
REMARK    7  A    between atoms: C_17  and  O_19
REMARK    8  A    between atoms: N_23  and  C_24
REMARK    9  A    between atoms: C_29  and  O_30
REMARK   10  A    between atoms: O_30  and  C_31
REMARK                            x       y       z     vdW  Elec       q    Type
REMARK                         _______ _______ _______ _____ _____    ______ ____
ROOT
ATOM      1  C   UNL     1       6.665  15.630  18.039  0.00  0.00    +0.000 C 
ATOM      2  N   UNL     1       6.705  16.734  19.019  0.00  0.00    +0.000 NA
ATOM      3  C   UNL     1       6.115  16.315  20.338  0.00  0.00    +0.000 C 
ATOM      4  C   UNL     1       5.475  14.942  20.035  0.00  0.00    +0.000 C 
ATOM      5  C   UNL     1       3.992  14.881  20.286  0.00  0.00    +0.000 C 
ATOM      6  O   UNL     1       3.545  14.716  21.414  0.00  0.00    +0.000 OA
ATOM      7  N   UNL     1       3.325  15.134  19.113  0.00  0.00    +0.000 N 
ATOM      8  C   UNL     1       4.187  15.249  18.050  0.00  0.00    +0.000 C 
ATOM      9  O   UNL     1       3.952  15.631  16.915  0.00  0.00    +0.000 OA
ATOM     10  C   UNL     1       5.528  14.760  18.525  0.00  0.00    +0.000 C 
ATOM     11  H   UNL     1       6.149  17.527  18.668  0.00  0.00    +0.000 HD
ENDROOT
BRANCH   1  15
ATOM     12  C   UNL     1      10.385  13.389  17.609  0.00  0.00    +0.000 A 
ATOM     13  C   UNL     1       9.186  12.721  17.816  0.00  0.00    +0.000 A 
ATOM     14  C   UNL     1       7.999  13.432  17.983  0.00  0.00    +0.000 A 
ATOM     15  C   UNL     1       7.967  14.830  17.936  0.00  0.00    +0.000 A 
ATOM     16  C   UNL     1       9.205  15.492  17.824  0.00  0.00    +0.000 A 
ATOM     17  C   UNL     1      10.405  14.780  17.652  0.00  0.00    +0.000 A 
BRANCH  12  19
ATOM     18  C   UNL     1      11.888  11.881  18.615  0.00  0.00    +0.000 C 
ATOM     19  O   UNL     1      11.478  12.586  17.448  0.00  0.00    +0.000 OA
ENDBRANCH  12  19
ENDBRANCH   1  15
BRANCH   7  20
ATOM     20  C   UNL     1       2.022  15.670  19.070  0.00  0.00    +0.000 A 
ATOM     21  C   UNL     1       1.888  17.066  18.945  0.00  0.00    +0.000 A 
ATOM     22  C   UNL     1       0.638  17.665  18.801  0.00  0.00    +0.000 A 
ATOM     23  C   UNL     1      -0.500  16.872  18.764  0.00  0.00    +0.000 A 
ATOM     24  C   UNL     1      -0.379  15.484  18.859  0.00  0.00    +0.000 A 
ATOM     25  C   UNL     1       0.873  14.870  19.016  0.00  0.00    +0.000 A 
BRANCH  25  26
ATOM     26  O   UNL     1       0.822  13.502  18.979  0.00  0.00    +0.000 OA
ATOM     27  C   UNL     1       0.748  12.827  20.226  0.00  0.00    +0.000 C 
ENDBRANCH  25  26
ENDBRANCH   7  20
BRANCH   3  28
ATOM     28  C   UNL     1       5.094  17.383  20.827  0.00  0.00    +0.000 C 
ATOM     29  O   UNL     1       4.641  18.247  20.089  0.00  0.00    +0.000 OA
BRANCH  28  30
ATOM     30  O   UNL     1       4.691  17.276  22.113  0.00  0.00    +0.000 OA
ATOM     31  H   UNL     1       3.733  17.195  22.301  0.00  0.00    +0.000 HD
ENDBRANCH  28  30
ENDBRANCH   3  28
BRANCH   3  32
ATOM     32  C   UNL     1       7.230  16.288  21.430  0.00  0.00    +0.000 C 
BRANCH  32  33
ATOM     33  C   UNL     1       8.092  15.025  21.486  0.00  0.00    +0.000 A 
ATOM     34  C   UNL     1       9.468  15.094  21.222  0.00  0.00    +0.000 A 
ATOM     35  C   UNL     1      10.267  13.944  21.268  0.00  0.00    +0.000 A 
ATOM     36  C   UNL     1       9.709  12.707  21.579  0.00  0.00    +0.000 A 
ATOM     37  C   UNL     1       8.348  12.618  21.839  0.00  0.00    +0.000 A 
ATOM     38  C   UNL     1       7.551  13.766  21.792  0.00  0.00    +0.000 A 
ENDBRANCH  32  33
ENDBRANCH   3  32
TORSDOF 8
ENDMDL
MODEL 2
REMARK VINA RESULT:      -6.1      0.600      1.052
REMARK  Name = 
REMARK  10 active torsions:
REMARK  status: ('A' for Active; 'I' for Inactive)
REMARK    1  A    between atoms: C_1  and  O_2
REMARK    2  A    between atoms: O_2  and  C_3
REMARK    3  A    between atoms: C_6  and  C_7
REMARK    4  A    between atoms: C_9  and  C_10
REMARK    5  A    between atoms: C_9  and  C_17
REMARK    6  A    between atoms: C_10  and  C_11
REMARK    7  A    between atoms: C_17  and  O_19
REMARK    8  A    between atoms: N_23  and  C_24
REMARK    9  A    between atoms: C_29  and  O_30
REMARK   10  A    between atoms: O_30  and  C_31
REMARK                            x       y       z     vdW  Elec       q    Type
REMARK                         _______ _______ _______ _____ _____    ______ ____
ROOT
ATOM      1  C   UNL     1       6.584  15.670  18.064  0.00  0.00    +0.000 C 
ATOM      2  N   UNL     1       6.642  16.704  19.118  0.00  0.00    +0.000 NA
ATOM      3  C   UNL     1       6.033  16.210  20.401  0.00  0.00    +0.000 C 
ATOM      4  C   UNL     1       5.363  14.877  20.002  0.00  0.00    +0.000 C 
ATOM      5  C   UNL     1       3.877  14.834  20.239  0.00  0.00    +0.000 C 
ATOM      6  O   UNL     1       3.418  14.604  21.351  0.00  0.00    +0.000 OA
ATOM      7  N   UNL     1       3.225  15.182  19.082  0.00  0.00    +0.000 N 
ATOM      8  C   UNL     1       4.097  15.349  18.035  0.00  0.00    +0.000 C 
ATOM      9  O   UNL     1       3.880  15.813  16.927  0.00  0.00    +0.000 OA
ATOM     10  C   UNL     1       5.423  14.796  18.483  0.00  0.00    +0.000 C 
ATOM     11  H   UNL     1       6.108  17.532  18.819  0.00  0.00    +0.000 HD
ENDROOT
BRANCH   1  15
ATOM     12  C   UNL     1      10.218  13.272  17.767  0.00  0.00    +0.000 A 
ATOM     13  C   UNL     1      10.298  14.655  17.863  0.00  0.00    +0.000 A 
ATOM     14  C   UNL     1       9.140  15.428  17.929  0.00  0.00    +0.000 A 
ATOM     15  C   UNL     1       7.867  14.848  17.915  0.00  0.00    +0.000 A 
ATOM     16  C   UNL     1       7.804  13.455  17.718  0.00  0.00    +0.000 A 
ATOM     17  C   UNL     1       8.968  12.669  17.654  0.00  0.00    +0.000 A 
BRANCH  12  19
ATOM     18  C   UNL     1      11.618  11.648  18.740  0.00  0.00    +0.000 C 
ATOM     19  O   UNL     1      11.417  12.621  17.720  0.00  0.00    +0.000 OA
ENDBRANCH  12  19
ENDBRANCH   1  15
BRANCH   7  20
ATOM     20  C   UNL     1       1.935  15.752  19.069  0.00  0.00    +0.000 A 
ATOM     21  C   UNL     1       1.835  17.154  19.006  0.00  0.00    +0.000 A 
ATOM     22  C   UNL     1       0.600  17.789  18.894  0.00  0.00    +0.000 A 
ATOM     23  C   UNL     1      -0.557  17.027  18.826  0.00  0.00    +0.000 A 
ATOM     24  C   UNL     1      -0.470  15.633  18.860  0.00  0.00    +0.000 A 
ATOM     25  C   UNL     1       0.767  14.982  18.984  0.00  0.00    +0.000 A 
BRANCH  25  26
ATOM     26  O   UNL     1       0.683  13.619  18.886  0.00  0.00    +0.000 OA
ATOM     27  C   UNL     1      -0.504  13.089  18.315  0.00  0.00    +0.000 C 
ENDBRANCH  25  26
ENDBRANCH   7  20
BRANCH   3  28
ATOM     28  C   UNL     1       5.033  17.266  20.956  0.00  0.00    +0.000 C 
ATOM     29  O   UNL     1       4.600  18.184  20.274  0.00  0.00    +0.000 OA
BRANCH  28  30
ATOM     30  O   UNL     1       4.627  17.088  22.233  0.00  0.00    +0.000 OA
ATOM     31  H   UNL     1       5.247  17.311  22.959  0.00  0.00    +0.000 HD
ENDBRANCH  28  30
ENDBRANCH   3  28
BRANCH   3  32
ATOM     32  C   UNL     1       7.139  16.082  21.496  0.00  0.00    +0.000 C 
BRANCH  32  33
ATOM     33  C   UNL     1       7.593  14.661  21.836  0.00  0.00    +0.000 A 
ATOM     34  C   UNL     1       8.786  14.152  21.304  0.00  0.00    +0.000 A 
ATOM     35  C   UNL     1       9.211  12.852  21.605  0.00  0.00    +0.000 A 
ATOM     36  C   UNL     1       8.455  12.038  22.444  0.00  0.00    +0.000 A 
ATOM     37  C   UNL     1       7.268  12.522  22.977  0.00  0.00    +0.000 A 
ATOM     38  C   UNL     1       6.844  13.820  22.675  0.00  0.00    +0.000 A 
ENDBRANCH  32  33
ENDBRANCH   3  32
TORSDOF 8
ENDMDL
MODEL 3
REMARK VINA RESULT:      -5.9      0.388      1.193
REMARK  Name = 
REMARK  10 active torsions:
REMARK  status: ('A' for Active; 'I' for Inactive)
REMARK    1  A    between atoms: C_1  and  O_2
REMARK    2  A    between atoms: O_2  and  C_3
REMARK    3  A    between atoms: C_6  and  C_7
REMARK    4  A    between atoms: C_9  and  C_10
REMARK    5  A    between atoms: C_9  and  C_17
REMARK    6  A    between atoms: C_10  and  C_11
REMARK    7  A    between atoms: C_17  and  O_19
REMARK    8  A    between atoms: N_23  and  C_24
REMARK    9  A    between atoms: C_29  and  O_30
REMARK   10  A    between atoms: O_30  and  C_31
REMARK                            x       y       z     vdW  Elec       q    Type
REMARK                         _______ _______ _______ _____ _____    ______ ____
ROOT
ATOM      1  C   UNL     1       6.510  15.733  18.045  0.00  0.00    +0.000 C 
ATOM      2  N   UNL     1       6.540  16.853  19.008  0.00  0.00    +0.000 NA
ATOM      3  C   UNL     1       5.998  16.437  20.348  0.00  0.00    +0.000 C 
ATOM      4  C   UNL     1       5.394  15.040  20.082  0.00  0.00    +0.000 C 
ATOM      5  C   UNL     1       3.921  14.936  20.372  0.00  0.00    +0.000 C 
ATOM      6  O   UNL     1       3.508  14.775  21.514  0.00  0.00    +0.000 OA
ATOM      7  N   UNL     1       3.216  15.149  19.214  0.00  0.00    +0.000 N 
ATOM      8  C   UNL     1       4.046  15.274  18.127  0.00  0.00    +0.000 C 
ATOM      9  O   UNL     1       3.771  15.631  16.993  0.00  0.00    +0.000 OA
ATOM     10  C   UNL     1       5.414  14.835  18.574  0.00  0.00    +0.000 C 
ATOM     11  H   UNL     1       5.950  17.623  18.660  0.00  0.00    +0.000 HD
ENDROOT
BRANCH   1  15
ATOM     12  C   UNL     1      10.267  13.523  17.825  0.00  0.00    +0.000 A 
ATOM     13  C   UNL     1      10.268  14.911  17.784  0.00  0.00    +0.000 A 
ATOM     14  C   UNL     1       9.070  15.622  17.825  0.00  0.00    +0.000 A 
ATOM     15  C   UNL     1       7.833  14.973  17.921  0.00  0.00    +0.000 A 
ATOM     16  C   UNL     1       7.846  13.565  17.862  0.00  0.00    +0.000 A 
ATOM     17  C   UNL     1       9.051  12.844  17.824  0.00  0.00    +0.000 A 
BRANCH  12  19
ATOM     18  C   UNL     1      11.613  11.718  18.512  0.00  0.00    +0.000 C 
ATOM     19  O   UNL     1      11.500  12.939  17.790  0.00  0.00    +0.000 OA
ENDBRANCH  12  19
ENDBRANCH   1  15
BRANCH   7  20
ATOM     20  C   UNL     1       1.896  15.643  19.197  0.00  0.00    +0.000 A 
ATOM     21  C   UNL     1       1.697  16.978  18.795  0.00  0.00    +0.000 A 
ATOM     22  C   UNL     1       0.417  17.512  18.661  0.00  0.00    +0.000 A 
ATOM     23  C   UNL     1      -0.687  16.712  18.913  0.00  0.00    +0.000 A 
ATOM     24  C   UNL     1      -0.505  15.378  19.286  0.00  0.00    +0.000 A 
ATOM     25  C   UNL     1       0.778  14.832  19.435  0.00  0.00    +0.000 A 
BRANCH  25  26
ATOM     26  O   UNL     1       0.776  13.487  19.692  0.00  0.00    +0.000 OA
ATOM     27  C   UNL     1       0.633  12.620  18.577  0.00  0.00    +0.000 C 
ENDBRANCH  25  26
ENDBRANCH   7  20
BRANCH   3  28
ATOM     28  C   UNL     1       4.955  17.480  20.847  0.00  0.00    +0.000 C 
ATOM     29  O   UNL     1       4.389  18.258  20.092  0.00  0.00    +0.000 OA
BRANCH  28  30
ATOM     30  O   UNL     1       4.670  17.450  22.168  0.00  0.00    +0.000 OA
ATOM     31  H   UNL     1       5.356  17.741  22.804  0.00  0.00    +0.000 HD
ENDBRANCH  28  30
ENDBRANCH   3  28
BRANCH   3  32
ATOM     32  C   UNL     1       7.140  16.462  21.411  0.00  0.00    +0.000 C 
BRANCH  32  33
ATOM     33  C   UNL     1       8.050  15.233  21.456  0.00  0.00    +0.000 A 
ATOM     34  C   UNL     1       7.506  13.955  21.641  0.00  0.00    +0.000 A 
ATOM     35  C   UNL     1       8.329  12.822  21.687  0.00  0.00    +0.000 A 
ATOM     36  C   UNL     1       9.709  12.945  21.547  0.00  0.00    +0.000 A 
ATOM     37  C   UNL     1      10.268  14.203  21.366  0.00  0.00    +0.000 A 
ATOM     38  C   UNL     1       9.445  15.333  21.322  0.00  0.00    +0.000 A 
ENDBRANCH  32  33
ENDBRANCH   3  32
TORSDOF 8
ENDMDL
MODEL 4
REMARK VINA RESULT:      -5.9      0.739      1.125
REMARK  Name = 
REMARK  10 active torsions:
REMARK  status: ('A' for Active; 'I' for Inactive)
REMARK    1  A    between atoms: C_1  and  O_2
REMARK    2  A    between atoms: O_2  and  C_3
REMARK    3  A    between atoms: C_6  and  C_7
REMARK    4  A    between atoms: C_9  and  C_10
REMARK    5  A    between atoms: C_9  and  C_17
REMARK    6  A    between atoms: C_10  and  C_11
REMARK    7  A    between atoms: C_17  and  O_19
REMARK    8  A    between atoms: N_23  and  C_24
REMARK    9  A    between atoms: C_29  and  O_30
REMARK   10  A    between atoms: O_30  and  C_31
REMARK                            x       y       z     vdW  Elec       q    Type
REMARK                         _______ _______ _______ _____ _____    ______ ____
ROOT
ATOM      1  C   UNL     1       6.363  15.623  18.063  0.00  0.00    +0.000 C 
ATOM      2  N   UNL     1       6.436  16.664  19.107  0.00  0.00    +0.000 NA
ATOM      3  C   UNL     1       5.819  16.191  20.395  0.00  0.00    +0.000 C 
ATOM      4  C   UNL     1       5.130  14.864  20.007  0.00  0.00    +0.000 C 
ATOM      5  C   UNL     1       3.644  14.845  20.244  0.00  0.00    +0.000 C 
ATOM      6  O   UNL     1       3.180  14.631  21.357  0.00  0.00    +0.000 OA
ATOM      7  N   UNL     1       2.997  15.192  19.083  0.00  0.00    +0.000 N 
ATOM      8  C   UNL     1       3.872  15.336  18.035  0.00  0.00    +0.000 C 
ATOM      9  O   UNL     1       3.662  15.794  16.923  0.00  0.00    +0.000 OA
ATOM     10  C   UNL     1       5.189  14.769  18.489  0.00  0.00    +0.000 C 
ATOM     11  H   UNL     1       5.914  17.498  18.801  0.00  0.00    +0.000 HD
ENDROOT
BRANCH   1  15
ATOM     12  C   UNL     1      10.010  13.285  17.533  0.00  0.00    +0.000 A 
ATOM     13  C   UNL     1       8.771  12.659  17.527  0.00  0.00    +0.000 A 
ATOM     14  C   UNL     1       7.604  13.396  17.725  0.00  0.00    +0.000 A 
ATOM     15  C   UNL     1       7.634  14.781  17.921  0.00  0.00    +0.000 A 
ATOM     16  C   UNL     1       8.904  15.383  18.022  0.00  0.00    +0.000 A 
ATOM     17  C   UNL     1      10.083  14.646  17.820  0.00  0.00    +0.000 A 
BRANCH  12  19
ATOM     18  C   UNL     1      12.333  12.971  17.759  0.00  0.00    +0.000 C 
ATOM     19  O   UNL     1      11.078  12.463  17.318  0.00  0.00    +0.000 OA
ENDBRANCH  12  19
ENDBRANCH   1  15
BRANCH   7  20
ATOM     20  C   UNL     1       1.716  15.779  19.064  0.00  0.00    +0.000 A 
ATOM     21  C   UNL     1       1.633  17.174  18.897  0.00  0.00    +0.000 A 
ATOM     22  C   UNL     1       0.404  17.819  18.773  0.00  0.00    +0.000 A 
ATOM     23  C   UNL     1      -0.765  17.073  18.798  0.00  0.00    +0.000 A 
ATOM     24  C   UNL     1      -0.696  15.684  18.935  0.00  0.00    +0.000 A 
ATOM     25  C   UNL     1       0.535  15.025  19.073  0.00  0.00    +0.000 A 
BRANCH  25  26
ATOM     26  O   UNL     1       0.428  13.660  19.081  0.00  0.00    +0.000 OA
ATOM     27  C   UNL     1      -0.666  13.096  18.373  0.00  0.00    +0.000 C 
ENDBRANCH  25  26
ENDBRANCH   7  20
BRANCH   3  28
ATOM     28  C   UNL     1       4.834  17.266  20.940  0.00  0.00    +0.000 C 
ATOM     29  O   UNL     1       4.409  18.181  20.247  0.00  0.00    +0.000 OA
BRANCH  28  30
ATOM     30  O   UNL     1       4.430  17.109  22.220  0.00  0.00    +0.000 OA
ATOM     31  H   UNL     1       3.900  17.820  22.637  0.00  0.00    +0.000 HD
ENDBRANCH  28  30
ENDBRANCH   3  28
BRANCH   3  32
ATOM     32  C   UNL     1       6.922  16.057  21.491  0.00  0.00    +0.000 C 
BRANCH  32  33
ATOM     33  C   UNL     1       7.356  14.633  21.844  0.00  0.00    +0.000 A 
ATOM     34  C   UNL     1       6.594  13.860  22.732  0.00  0.00    +0.000 A 
ATOM     35  C   UNL     1       6.982  12.556  23.065  0.00  0.00    +0.000 A 
ATOM     36  C   UNL     1       8.135  12.000  22.518  0.00  0.00    +0.000 A 
ATOM     37  C   UNL     1       8.905  12.750  21.641  0.00  0.00    +0.000 A 
ATOM     38  C   UNL     1       8.517  14.053  21.309  0.00  0.00    +0.000 A 
ENDBRANCH  32  33
ENDBRANCH   3  32
TORSDOF 8
ENDMDL
MODEL 5
REMARK VINA RESULT:      -5.7      4.397     10.602
REMARK  Name = 
REMARK  10 active torsions:
REMARK  status: ('A' for Active; 'I' for Inactive)
REMARK    1  A    between atoms: C_1  and  O_2
REMARK    2  A    between atoms: O_2  and  C_3
REMARK    3  A    between atoms: C_6  and  C_7
REMARK    4  A    between atoms: C_9  and  C_10
REMARK    5  A    between atoms: C_9  and  C_17
REMARK    6  A    between atoms: C_10  and  C_11
REMARK    7  A    between atoms: C_17  and  O_19
REMARK    8  A    between atoms: N_23  and  C_24
REMARK    9  A    between atoms: C_29  and  O_30
REMARK   10  A    between atoms: O_30  and  C_31
REMARK                            x       y       z     vdW  Elec       q    Type
REMARK                         _______ _______ _______ _____ _____    ______ ____
ROOT
ATOM      1  C   UNL     1      -2.043  13.994  21.039  0.00  0.00    +0.000 C 
ATOM      2  N   UNL     1      -1.919  13.381  19.701  0.00  0.00    +0.000 NA
ATOM      3  C   UNL     1      -0.981  12.206  19.723  0.00  0.00    +0.000 C 
ATOM      4  C   UNL     1      -0.332  12.280  21.123  0.00  0.00    +0.000 C 
ATOM      5  C   UNL     1       1.166  12.428  21.105  0.00  0.00    +0.000 C 
ATOM      6  O   UNL     1       1.898  11.460  20.938  0.00  0.00    +0.000 OA
ATOM      7  N   UNL     1       1.489  13.759  21.196  0.00  0.00    +0.000 N 
ATOM      8  C   UNL     1       0.378  14.541  21.392  0.00  0.00    +0.000 C 
ATOM      9  O   UNL     1       0.284  15.758  21.350  0.00  0.00    +0.000 OA
ATOM     10  C   UNL     1      -0.754  13.610  21.730  0.00  0.00    +0.000 C 
ATOM     11  H   UNL     1      -1.536  14.072  19.039  0.00  0.00    +0.000 HD
ENDROOT
BRANCH   1  15
ATOM     12  C   UNL     1      -5.568  12.777  23.305  0.00  0.00    +0.000 A 
ATOM     13  C   UNL     1      -4.333  12.875  23.932  0.00  0.00    +0.000 A 
ATOM     14  C   UNL     1      -3.198  13.235  23.208  0.00  0.00    +0.000 A 
ATOM     15  C   UNL     1      -3.260  13.521  21.839  0.00  0.00    +0.000 A 
ATOM     16  C   UNL     1      -4.500  13.321  21.202  0.00  0.00    +0.000 A 
ATOM     17  C   UNL     1      -5.648  12.961  21.928  0.00  0.00    +0.000 A 
BRANCH  12  19
ATOM     18  C   UNL     1      -7.660  13.381  24.200  0.00  0.00    +0.000 C 
ATOM     19  O   UNL     1      -6.607  12.427  24.119  0.00  0.00    +0.000 OA
ENDBRANCH  12  19
ENDBRANCH   1  15
BRANCH   7  20
ATOM     20  C   UNL     1       2.691  14.294  20.689  0.00  0.00    +0.000 A 
ATOM     21  C   UNL     1       2.739  14.628  19.323  0.00  0.00    +0.000 A 
ATOM     22  C   UNL     1       3.856  15.248  18.766  0.00  0.00    +0.000 A 
ATOM     23  C   UNL     1       4.939  15.559  19.575  0.00  0.00    +0.000 A 
ATOM     24  C   UNL     1       4.894  15.258  20.938  0.00  0.00    +0.000 A 
ATOM     25  C   UNL     1       3.780  14.623  21.508  0.00  0.00    +0.000 A 
BRANCH  25  26
ATOM     26  O   UNL     1       3.852  14.506  22.870  0.00  0.00    +0.000 OA
ATOM     27  C   UNL     1       4.834  15.291  23.531  0.00  0.00    +0.000 C 
ENDBRANCH  25  26
ENDBRANCH   7  20
BRANCH   3  28
ATOM     28  C   UNL     1       0.043  12.321  18.556  0.00  0.00    +0.000 C 
ATOM     29  O   UNL     1       0.156  13.332  17.877  0.00  0.00    +0.000 OA
BRANCH  28  30
ATOM     30  O   UNL     1       0.843  11.249  18.359  0.00  0.00    +0.000 OA
ATOM     31  H   UNL     1       0.519  10.517  17.794  0.00  0.00    +0.000 HD
ENDBRANCH  28  30
ENDBRANCH   3  28
BRANCH   3  32
ATOM     32  C   UNL     1      -1.775  10.892  19.440  0.00  0.00    +0.000 C 
BRANCH  32  33
ATOM     33  C   UNL     1      -2.519  10.825  18.105  0.00  0.00    +0.000 A 
ATOM     34  C   UNL     1      -1.999  10.073  17.041  0.00  0.00    +0.000 A 
ATOM     35  C   UNL     1      -2.670  10.006  15.813  0.00  0.00    +0.000 A 
ATOM     36  C   UNL     1      -3.870  10.686  15.625  0.00  0.00    +0.000 A 
ATOM     37  C   UNL     1      -4.399  11.439  16.665  0.00  0.00    +0.000 A 
ATOM     38  C   UNL     1      -3.728  11.506  17.890  0.00  0.00    +0.000 A 
ENDBRANCH  32  33
ENDBRANCH   3  32
TORSDOF 8
ENDMDL
MODEL 6
REMARK VINA RESULT:      -5.7      5.846      8.858
REMARK  Name = 
REMARK  10 active torsions:
REMARK  status: ('A' for Active; 'I' for Inactive)
REMARK    1  A    between atoms: C_1  and  O_2
REMARK    2  A    between atoms: O_2  and  C_3
REMARK    3  A    between atoms: C_6  and  C_7
REMARK    4  A    between atoms: C_9  and  C_10
REMARK    5  A    between atoms: C_9  and  C_17
REMARK    6  A    between atoms: C_10  and  C_11
REMARK    7  A    between atoms: C_17  and  O_19
REMARK    8  A    between atoms: N_23  and  C_24
REMARK    9  A    between atoms: C_29  and  O_30
REMARK   10  A    between atoms: O_30  and  C_31
REMARK                            x       y       z     vdW  Elec       q    Type
REMARK                         _______ _______ _______ _____ _____    ______ ____
ROOT
ATOM      1  C   UNL     1      -2.178  12.446  20.175  0.00  0.00    +0.000 C 
ATOM      2  N   UNL     1      -1.707  13.845  20.233  0.00  0.00    +0.000 NA
ATOM      3  C   UNL     1      -1.477  14.285  21.653  0.00  0.00    +0.000 C 
ATOM      4  C   UNL     1      -2.077  13.139  22.495  0.00  0.00    +0.000 C 
ATOM      5  C   UNL     1      -3.194  13.562  23.412  0.00  0.00    +0.000 C 
ATOM      6  O   UNL     1      -2.963  14.088  24.494  0.00  0.00    +0.000 OA
ATOM      7  N   UNL     1      -4.397  13.352  22.786  0.00  0.00    +0.000 N 
ATOM      8  C   UNL     1      -4.239  12.719  21.577  0.00  0.00    +0.000 C 
ATOM      9  O   UNL     1      -5.066  12.533  20.699  0.00  0.00    +0.000 OA
ATOM     10  C   UNL     1      -2.818  12.227  21.528  0.00  0.00    +0.000 C 
ATOM     11  H   UNL     1      -2.421  14.466  19.827  0.00  0.00    +0.000 HD
ENDROOT
BRANCH   1  15
ATOM     12  C   UNL     1       0.873   9.431  19.375  0.00  0.00    +0.000 A 
ATOM     13  C   UNL     1       0.506   9.724  20.681  0.00  0.00    +0.000 A 
ATOM     14  C   UNL     1      -0.447  10.707  20.945  0.00  0.00    +0.000 A 
ATOM     15  C   UNL     1      -1.073  11.418  19.915  0.00  0.00    +0.000 A 
ATOM     16  C   UNL     1      -0.617  11.176  18.605  0.00  0.00    +0.000 A 
ATOM     17  C   UNL     1       0.341  10.185  18.333  0.00  0.00    +0.000 A 
BRANCH  12  19
ATOM     18  C   UNL     1       2.413   8.352  17.957  0.00  0.00    +0.000 C 
ATOM     19  O   UNL     1       1.807   8.443  19.242  0.00  0.00    +0.000 OA
ENDBRANCH  12  19
ENDBRANCH   1  15
BRANCH   7  20
ATOM     20  C   UNL     1      -5.560  14.088  23.089  0.00  0.00    +0.000 A 
ATOM     21  C   UNL     1      -5.581  15.455  22.755  0.00  0.00    +0.000 A 
ATOM     22  C   UNL     1      -6.725  16.229  22.936  0.00  0.00    +0.000 A 
ATOM     23  C   UNL     1      -7.876  15.641  23.439  0.00  0.00    +0.000 A 
ATOM     24  C   UNL     1      -7.878  14.278  23.748  0.00  0.00    +0.000 A 
ATOM     25  C   UNL     1      -6.729  13.491  23.582  0.00  0.00    +0.000 A 
BRANCH  25  26
ATOM     26  O   UNL     1      -6.936  12.159  23.823  0.00  0.00    +0.000 OA
ATOM     27  C   UNL     1      -7.907  11.505  23.019  0.00  0.00    +0.000 C 
ENDBRANCH  25  26
ENDBRANCH   7  20
BRANCH   3  28
ATOM     28  C   UNL     1      -2.160  15.662  21.900  0.00  0.00    +0.000 C 
ATOM     29  O   UNL     1      -2.981  16.137  21.127  0.00  0.00    +0.000 OA
BRANCH  28  30
ATOM     30  O   UNL     1      -1.831  16.292  23.049  0.00  0.00    +0.000 OA
ATOM     31  H   UNL     1      -0.931  16.161  23.416  0.00  0.00    +0.000 HD
ENDBRANCH  28  30
ENDBRANCH   3  28
BRANCH   3  32
ATOM     32  C   UNL     1       0.046  14.539  21.887  0.00  0.00    +0.000 C 
BRANCH  32  33
ATOM     33  C   UNL     1       0.934  14.517  20.642  0.00  0.00    +0.000 A 
ATOM     34  C   UNL     1       1.759  13.413  20.380  0.00  0.00    +0.000 A 
ATOM     35  C   UNL     1       2.580  13.382  19.245  0.00  0.00    +0.000 A 
ATOM     36  C   UNL     1       2.591  14.450  18.351  0.00  0.00    +0.000 A 
ATOM     37  C   UNL     1       1.784  15.553  18.595  0.00  0.00    +0.000 A 
ATOM     38  C   UNL     1       0.966  15.584  19.729  0.00  0.00    +0.000 A 
ENDBRANCH  32  33
ENDBRANCH   3  32
TORSDOF 8
ENDMDL
MODEL 7
REMARK VINA RESULT:      -5.7      5.839      8.848
REMARK  Name = 
REMARK  10 active torsions:
REMARK  status: ('A' for Active; 'I' for Inactive)
REMARK    1  A    between atoms: C_1  and  O_2
REMARK    2  A    between atoms: O_2  and  C_3
REMARK    3  A    between atoms: C_6  and  C_7
REMARK    4  A    between atoms: C_9  and  C_10
REMARK    5  A    between atoms: C_9  and  C_17
REMARK    6  A    between atoms: C_10  and  C_11
REMARK    7  A    between atoms: C_17  and  O_19
REMARK    8  A    between atoms: N_23  and  C_24
REMARK    9  A    between atoms: C_29  and  O_30
REMARK   10  A    between atoms: O_30  and  C_31
REMARK                            x       y       z     vdW  Elec       q    Type
REMARK                         _______ _______ _______ _____ _____    ______ ____
ROOT
ATOM      1  C   UNL     1      -2.204  12.435  20.182  0.00  0.00    +0.000 C 
ATOM      2  N   UNL     1      -1.703  13.824  20.235  0.00  0.00    +0.000 NA
ATOM      3  C   UNL     1      -1.452  14.260  21.652  0.00  0.00    +0.000 C 
ATOM      4  C   UNL     1      -2.068  13.127  22.501  0.00  0.00    +0.000 C 
ATOM      5  C   UNL     1      -3.168  13.574  23.427  0.00  0.00    +0.000 C 
ATOM      6  O   UNL     1      -2.917  14.095  24.506  0.00  0.00    +0.000 OA
ATOM      7  N   UNL     1      -4.381  13.388  22.811  0.00  0.00    +0.000 N 
ATOM      8  C   UNL     1      -4.246  12.751  21.602  0.00  0.00    +0.000 C 
ATOM      9  O   UNL     1      -5.085  12.582  20.731  0.00  0.00    +0.000 OA
ATOM     10  C   UNL     1      -2.836  12.230  21.541  0.00  0.00    +0.000 C 
ATOM     11  H   UNL     1      -2.408  14.460  19.834  0.00  0.00    +0.000 HD
ENDROOT
BRANCH   1  15
ATOM     12  C   UNL     1       0.972   9.524  19.483  0.00  0.00    +0.000 A 
ATOM     13  C   UNL     1       0.412  10.218  18.418  0.00  0.00    +0.000 A 
ATOM     14  C   UNL     1      -0.622  11.128  18.632  0.00  0.00    +0.000 A 
ATOM     15  C   UNL     1      -1.123  11.384  19.913  0.00  0.00    +0.000 A 
ATOM     16  C   UNL     1      -0.611  10.600  20.966  0.00  0.00    +0.000 A 
ATOM     17  C   UNL     1       0.434   9.684  20.757  0.00  0.00    +0.000 A 
BRANCH  12  19
ATOM     18  C   UNL     1       2.256   8.565  17.759  0.00  0.00    +0.000 C 
ATOM     19  O   UNL     1       1.984   8.670  19.152  0.00  0.00    +0.000 OA
ENDBRANCH  12  19
ENDBRANCH   1  15
BRANCH   7  20
ATOM     20  C   UNL     1      -5.526  14.148  23.124  0.00  0.00    +0.000 A 
ATOM     21  C   UNL     1      -5.522  15.514  22.785  0.00  0.00    +0.000 A 
ATOM     22  C   UNL     1      -6.650  16.311  22.975  0.00  0.00    +0.000 A 
ATOM     23  C   UNL     1      -7.806  15.747  23.493  0.00  0.00    +0.000 A 
ATOM     24  C   UNL     1      -7.832  14.386  23.808  0.00  0.00    +0.000 A 
ATOM     25  C   UNL     1      -6.700  13.576  23.632  0.00  0.00    +0.000 A 
BRANCH  25  26
ATOM     26  O   UNL     1      -6.931  12.249  23.881  0.00  0.00    +0.000 OA
ATOM     27  C   UNL     1      -7.907  11.605  23.075  0.00  0.00    +0.000 C 
ENDBRANCH  25  26
ENDBRANCH   7  20
BRANCH   3  28
ATOM     28  C   UNL     1      -2.105  15.651  21.904  0.00  0.00    +0.000 C 
ATOM     29  O   UNL     1      -2.942  16.131  21.152  0.00  0.00    +0.000 OA
BRANCH  28  30
ATOM     30  O   UNL     1      -1.728  16.289  23.035  0.00  0.00    +0.000 OA
ATOM     31  H   UNL     1      -2.393  16.423  23.742  0.00  0.00    +0.000 HD
ENDBRANCH  28  30
ENDBRANCH   3  28
BRANCH   3  32
ATOM     32  C   UNL     1       0.078  14.483  21.872  0.00  0.00    +0.000 C 
BRANCH  32  33
ATOM     33  C   UNL     1       0.955  14.442  20.619  0.00  0.00    +0.000 A 
ATOM     34  C   UNL     1       0.989  15.536  19.742  0.00  0.00    +0.000 A 
ATOM     35  C   UNL     1       1.785  15.509  18.591  0.00  0.00    +0.000 A 
ATOM     36  C   UNL     1       2.563  14.393  18.295  0.00  0.00    +0.000 A 
ATOM     37  C   UNL     1       2.540  13.299  19.148  0.00  0.00    +0.000 A 
ATOM     38  C   UNL     1       1.744  13.326  20.298  0.00  0.00    +0.000 A 
ENDBRANCH  32  33
ENDBRANCH   3  32
TORSDOF 8
ENDMDL
MODEL 8
REMARK VINA RESULT:      -5.7      4.380     10.568
REMARK  Name = 
REMARK  10 active torsions:
REMARK  status: ('A' for Active; 'I' for Inactive)
REMARK    1  A    between atoms: C_1  and  O_2
REMARK    2  A    between atoms: O_2  and  C_3
REMARK    3  A    between atoms: C_6  and  C_7
REMARK    4  A    between atoms: C_9  and  C_10
REMARK    5  A    between atoms: C_9  and  C_17
REMARK    6  A    between atoms: C_10  and  C_11
REMARK    7  A    between atoms: C_17  and  O_19
REMARK    8  A    between atoms: N_23  and  C_24
REMARK    9  A    between atoms: C_29  and  O_30
REMARK   10  A    between atoms: O_30  and  C_31
REMARK                            x       y       z     vdW  Elec       q    Type
REMARK                         _______ _______ _______ _____ _____    ______ ____
ROOT
ATOM      1  C   UNL     1      -2.285  14.254  20.761  0.00  0.00    +0.000 C 
ATOM      2  N   UNL     1      -2.007  13.555  19.489  0.00  0.00    +0.000 NA
ATOM      3  C   UNL     1      -0.992  12.461  19.678  0.00  0.00    +0.000 C 
ATOM      4  C   UNL     1      -0.468  12.689  21.112  0.00  0.00    +0.000 C 
ATOM      5  C   UNL     1       1.012  12.952  21.197  0.00  0.00    +0.000 C 
ATOM      6  O   UNL     1       1.823  12.034  21.165  0.00  0.00    +0.000 OA
ATOM      7  N   UNL     1       1.231  14.307  21.205  0.00  0.00    +0.000 N 
ATOM      8  C   UNL     1       0.054  15.013  21.253  0.00  0.00    +0.000 C 
ATOM      9  O   UNL     1      -0.123  16.212  21.106  0.00  0.00    +0.000 OA
ATOM     10  C   UNL     1      -1.032  14.024  21.576  0.00  0.00    +0.000 C 
ATOM     11  H   UNL     1      -1.622  14.222  18.805  0.00  0.00    +0.000 HD
ENDROOT
BRANCH   1  15
ATOM     12  C   UNL     1      -5.757  12.689  22.892  0.00  0.00    +0.000 A 
ATOM     13  C   UNL     1      -5.832  12.954  21.531  0.00  0.00    +0.000 A 
ATOM     14  C   UNL     1      -4.736  13.481  20.850  0.00  0.00    +0.000 A 
ATOM     15  C   UNL     1      -3.526  13.749  21.501  0.00  0.00    +0.000 A 
ATOM     16  C   UNL     1      -3.500  13.567  22.898  0.00  0.00    +0.000 A 
ATOM     17  C   UNL     1      -4.601  13.033  23.588  0.00  0.00    +0.000 A 
BRANCH  12  19
ATOM     18  C   UNL     1      -7.906  11.805  22.517  0.00  0.00    +0.000 C 
ATOM     19  O   UNL     1      -6.889  12.165  23.445  0.00  0.00    +0.000 OA
ENDBRANCH  12  19
ENDBRANCH   1  15
BRANCH   7  20
ATOM     20  C   UNL     1       2.429  14.895  20.751  0.00  0.00    +0.000 A 
ATOM     21  C   UNL     1       2.445  15.436  19.451  0.00  0.00    +0.000 A 
ATOM     22  C   UNL     1       3.559  16.117  18.964  0.00  0.00    +0.000 A 
ATOM     23  C   UNL     1       4.670  16.282  19.777  0.00  0.00    +0.000 A 
ATOM     24  C   UNL     1       4.657  15.774  21.078  0.00  0.00    +0.000 A 
ATOM     25  C   UNL     1       3.546  15.076  21.577  0.00  0.00    +0.000 A 
BRANCH  25  26
ATOM     26  O   UNL     1       3.654  14.748  22.902  0.00  0.00    +0.000 OA
ATOM     27  C   UNL     1       4.920  14.949  23.512  0.00  0.00    +0.000 C 
ENDBRANCH  25  26
ENDBRANCH   7  20
BRANCH   3  28
ATOM     28  C   UNL     1       0.114  12.568  18.587  0.00  0.00    +0.000 C 
ATOM     29  O   UNL     1       0.286  13.580  17.922  0.00  0.00    +0.000 OA
BRANCH  28  30
ATOM     30  O   UNL     1       0.914  11.488  18.444  0.00  0.00    +0.000 OA
ATOM     31  H   UNL     1       1.731  11.576  17.909  0.00  0.00    +0.000 HD
ENDBRANCH  28  30
ENDBRANCH   3  28
BRANCH   3  32
ATOM     32  C   UNL     1      -1.663  11.071  19.442  0.00  0.00    +0.000 C 
BRANCH  32  33
ATOM     33  C   UNL     1      -2.447  10.911  18.138  0.00  0.00    +0.000 A 
ATOM     34  C   UNL     1      -3.699  11.524  17.984  0.00  0.00    +0.000 A 
ATOM     35  C   UNL     1      -4.428  11.383  16.796  0.00  0.00    +0.000 A 
ATOM     36  C   UNL     1      -3.921  10.630  15.741  0.00  0.00    +0.000 A 
ATOM     37  C   UNL     1      -2.685  10.012  15.875  0.00  0.00    +0.000 A 
ATOM     38  C   UNL     1      -1.958  10.153  17.062  0.00  0.00    +0.000 A 
ENDBRANCH  32  33
ENDBRANCH   3  32
TORSDOF 8
ENDMDL
MODEL 9
REMARK VINA RESULT:      -5.6      4.928      7.876
REMARK  Name = 
REMARK  10 active torsions:
REMARK  status: ('A' for Active; 'I' for Inactive)
REMARK    1  A    between atoms: C_1  and  O_2
REMARK    2  A    between atoms: O_2  and  C_3
REMARK    3  A    between atoms: C_6  and  C_7
REMARK    4  A    between atoms: C_9  and  C_10
REMARK    5  A    between atoms: C_9  and  C_17
REMARK    6  A    between atoms: C_10  and  C_11
REMARK    7  A    between atoms: C_17  and  O_19
REMARK    8  A    between atoms: N_23  and  C_24
REMARK    9  A    between atoms: C_29  and  O_30
REMARK   10  A    between atoms: O_30  and  C_31
REMARK                            x       y       z     vdW  Elec       q    Type
REMARK                         _______ _______ _______ _____ _____    ______ ____
ROOT
ATOM      1  C   UNL     1      -0.864  10.899  20.639  0.00  0.00    +0.000 C 
ATOM      2  N   UNL     1      -1.494  11.882  19.735  0.00  0.00    +0.000 NA
ATOM      3  C   UNL     1      -0.789  13.210  19.795  0.00  0.00    +0.000 C 
ATOM      4  C   UNL     1       0.178  13.059  20.990  0.00  0.00    +0.000 C 
ATOM      5  C   UNL     1      -0.045  14.054  22.097  0.00  0.00    +0.000 C 
ATOM      6  O   UNL     1       0.398  15.194  22.025  0.00  0.00    +0.000 OA
ATOM      7  N   UNL     1      -0.860  13.496  23.051  0.00  0.00    +0.000 N 
ATOM      8  C   UNL     1      -1.132  12.177  22.780  0.00  0.00    +0.000 C 
ATOM      9  O   UNL     1      -1.942  11.439  23.316  0.00  0.00    +0.000 OA
ATOM     10  C   UNL     1      -0.188  11.756  21.686  0.00  0.00    +0.000 C 
ATOM     11  H   UNL     1      -2.472  12.037  20.021  0.00  0.00    +0.000 HD
ENDROOT
BRANCH   1  15
ATOM     12  C   UNL     1       2.106   8.313  18.760  0.00  0.00    +0.000 A 
ATOM     13  C   UNL     1       1.384   9.219  17.995  0.00  0.00    +0.000 A 
ATOM     14  C   UNL     1       0.414  10.027  18.585  0.00  0.00    +0.000 A 
ATOM     15  C   UNL     1       0.141   9.968  19.956  0.00  0.00    +0.000 A 
ATOM     16  C   UNL     1       0.813   8.975  20.696  0.00  0.00    +0.000 A 
ATOM     17  C   UNL     1       1.795   8.160  20.108  0.00  0.00    +0.000 A 
BRANCH  12  19
ATOM     18  C   UNL     1       3.313   6.296  18.612  0.00  0.00    +0.000 C 
ATOM     19  O   UNL     1       3.036   7.585  18.074  0.00  0.00    +0.000 OA
ENDBRANCH  12  19
ENDBRANCH   1  15
BRANCH   7  20
ATOM     20  C   UNL     1      -1.681  14.261  23.903  0.00  0.00    +0.000 A 
ATOM     21  C   UNL     1      -1.054  15.080  24.861  0.00  0.00    +0.000 A 
ATOM     22  C   UNL     1      -1.791  15.936  25.677  0.00  0.00    +0.000 A 
ATOM     23  C   UNL     1      -3.169  15.998  25.535  0.00  0.00    +0.000 A 
ATOM     24  C   UNL     1      -3.801  15.212  24.569  0.00  0.00    +0.000 A 
ATOM     25  C   UNL     1      -3.072  14.337  23.750  0.00  0.00    +0.000 A 
BRANCH  25  26
ATOM     26  O   UNL     1      -3.829  13.729  22.785  0.00  0.00    +0.000 OA
ATOM     27  C   UNL     1      -5.191  13.480  23.099  0.00  0.00    +0.000 C 
ENDBRANCH  25  26
ENDBRANCH   7  20
BRANCH   3  28
ATOM     28  C   UNL     1      -1.827  14.356  19.976  0.00  0.00    +0.000 C 
ATOM     29  O   UNL     1      -1.525  15.538  19.885  0.00  0.00    +0.000 OA
BRANCH  28  30
ATOM     30  O   UNL     1      -3.104  13.972  20.197  0.00  0.00    +0.000 OA
ATOM     31  H   UNL     1      -3.790  14.223  19.543  0.00  0.00    +0.000 HD
ENDBRANCH  28  30
ENDBRANCH   3  28
BRANCH   3  32
ATOM     32  C   UNL     1      -0.095  13.501  18.428  0.00  0.00    +0.000 C 
BRANCH  32  33
ATOM     33  C   UNL     1       1.331  14.052  18.496  0.00  0.00    +0.000 A 
ATOM     34  C   UNL     1       2.429  13.202  18.302  0.00  0.00    +0.000 A 
ATOM     35  C   UNL     1       3.739  13.693  18.365  0.00  0.00    +0.000 A 
ATOM     36  C   UNL     1       3.977  15.041  18.621  0.00  0.00    +0.000 A 
ATOM     37  C   UNL     1       2.903  15.898  18.820  0.00  0.00    +0.000 A 
ATOM     38  C   UNL     1       1.595  15.406  18.758  0.00  0.00    +0.000 A 
ENDBRANCH  32  33
ENDBRANCH   3  32
TORSDOF 8
ENDMDL
