MODEL 1
REMARK VINA RESULT:      -7.8      0.000      0.000
REMARK  Name = 
REMARK  1 active torsions:
REMARK  status: ('A' for Active; 'I' for Inactive)
REMARK    1  A    between atoms: C_4  and  C_5
REMARK                            x       y       z     vdW  Elec       q    Type
REMARK                         _______ _______ _______ _____ _____    ______ ____
ROOT
ATOM      1  O   UNL     1       6.089   5.025  19.726  0.00  0.00    +0.000 OA
ATOM      2  C   UNL     1       5.586   4.523  18.732  0.00  0.00    +0.000 C 
ATOM      3  C   UNL     1       6.297   4.415  17.419  0.00  0.00    +0.000 C 
ATOM      4  C   UNL     1       5.266   4.688  16.330  0.00  0.00    +0.000 C 
ATOM      5  O   UNL     1       4.233   3.682  16.345  0.00  0.00    +0.000 OA
ATOM      6  C   UNL     1       3.663   3.493  17.578  0.00  0.00    +0.000 A 
ATOM      7  C   UNL     1       2.443   2.820  17.614  0.00  0.00    +0.000 A 
ATOM      8  C   UNL     1       1.819   2.573  18.843  0.00  0.00    +0.000 A 
ATOM      9  C   UNL     1       2.415   2.999  20.032  0.00  0.00    +0.000 A 
ATOM     10 CL   UNL     1       1.653   2.668  21.538  0.00  0.00    +0.000 Cl
ATOM     11  C   UNL     1       3.633   3.670  20.008  0.00  0.00    +0.000 A 
ATOM     12  C   UNL     1       4.252   3.903  18.777  0.00  0.00    +0.000 A 
ENDROOT
BRANCH   4  13
ATOM     13  C   UNL     1       5.959   4.706  14.985  0.00  0.00    +0.000 A 
ATOM     14  C   UNL     1       5.556   3.893  13.921  0.00  0.00    +0.000 A 
ATOM     15  C   UNL     1       6.324   3.835  12.761  0.00  0.00    +0.000 A 
ATOM     16  C   UNL     1       7.474   4.603  12.696  0.00  0.00    +0.000 A 
ATOM     17  N   UNL     1       7.878   5.430  13.683  0.00  0.00    +0.000 NA
ATOM     18  C   UNL     1       7.112   5.467  14.797  0.00  0.00    +0.000 A 
ENDBRANCH   4  13
TORSDOF 1
ENDMDL
MODEL 2
REMARK VINA RESULT:      -7.7      3.663      6.314
REMARK  Name = 
REMARK  1 active torsions:
REMARK  status: ('A' for Active; 'I' for Inactive)
REMARK    1  A    between atoms: C_4  and  C_5
REMARK                            x       y       z     vdW  Elec       q    Type
REMARK                         _______ _______ _______ _____ _____    ______ ____
ROOT
ATOM      1  O   UNL     1       7.690   4.981  18.640  0.00  0.00    +0.000 OA
ATOM      2  C   UNL     1       6.561   4.718  18.253  0.00  0.00    +0.000 C 
ATOM      3  C   UNL     1       5.380   4.633  19.169  0.00  0.00    +0.000 C 
ATOM      4  C   UNL     1       4.521   3.472  18.682  0.00  0.00    +0.000 C 
ATOM      5  O   UNL     1       4.020   3.732  17.355  0.00  0.00    +0.000 OA
ATOM      6  C   UNL     1       4.994   4.084  16.455  0.00  0.00    +0.000 A 
ATOM      7  C   UNL     1       4.664   4.004  15.104  0.00  0.00    +0.000 A 
ATOM      8  C   UNL     1       5.604   4.371  14.134  0.00  0.00    +0.000 A 
ATOM      9  C   UNL     1       6.871   4.817  14.516  0.00  0.00    +0.000 A 
ATOM     10 CL   UNL     1       8.010   5.291  13.318  0.00  0.00    +0.000 Cl
ATOM     11  C   UNL     1       7.210   4.903  15.862  0.00  0.00    +0.000 A 
ATOM     12  C   UNL     1       6.261   4.544  16.823  0.00  0.00    +0.000 A 
ENDROOT
BRANCH   4  13
ATOM     13  C   UNL     1       3.371   3.268  19.645  0.00  0.00    +0.000 A 
ATOM     14  C   UNL     1       2.108   3.831  19.438  0.00  0.00    +0.000 A 
ATOM     15  C   UNL     1       1.137   3.742  20.431  0.00  0.00    +0.000 A 
ATOM     16  C   UNL     1       1.456   3.082  21.604  0.00  0.00    +0.000 A 
ATOM     17  N   UNL     1       2.648   2.490  21.829  0.00  0.00    +0.000 NA
ATOM     18  C   UNL     1       3.572   2.591  20.847  0.00  0.00    +0.000 A 
ENDBRANCH   4  13
TORSDOF 1
ENDMDL
MODEL 3
REMARK VINA RESULT:      -7.3      1.149      1.463
REMARK  Name = 
REMARK  1 active torsions:
REMARK  status: ('A' for Active; 'I' for Inactive)
REMARK    1  A    between atoms: C_4  and  C_5
REMARK                            x       y       z     vdW  Elec       q    Type
REMARK                         _______ _______ _______ _____ _____    ______ ____
ROOT
ATOM      1  O   UNL     1       6.888   5.198  19.201  0.00  0.00    +0.000 OA
ATOM      2  C   UNL     1       6.222   4.771  18.271  0.00  0.00    +0.000 C 
ATOM      3  C   UNL     1       6.808   4.396  16.945  0.00  0.00    +0.000 C 
ATOM      4  C   UNL     1       5.816   4.842  15.878  0.00  0.00    +0.000 C 
ATOM      5  O   UNL     1       4.569   4.131  16.013  0.00  0.00    +0.000 OA
ATOM      6  C   UNL     1       4.041   4.178  17.278  0.00  0.00    +0.000 A 
ATOM      7  C   UNL     1       2.697   3.836  17.415  0.00  0.00    +0.000 A 
ATOM      8  C   UNL     1       2.102   3.840  18.682  0.00  0.00    +0.000 A 
ATOM      9  C   UNL     1       2.850   4.185  19.809  0.00  0.00    +0.000 A 
ATOM     10 CL   UNL     1       2.117   4.162  21.365  0.00  0.00    +0.000 Cl
ATOM     11  C   UNL     1       4.193   4.526  19.684  0.00  0.00    +0.000 A 
ATOM     12  C   UNL     1       4.780   4.509  18.417  0.00  0.00    +0.000 A 
ENDROOT
BRANCH   4  13
ATOM     13  C   UNL     1       6.415   4.592  14.510  0.00  0.00    +0.000 A 
ATOM     14  C   UNL     1       7.480   5.344  14.006  0.00  0.00    +0.000 A 
ATOM     15  C   UNL     1       7.885   5.176  12.685  0.00  0.00    +0.000 A 
ATOM     16  C   UNL     1       7.216   4.249  11.905  0.00  0.00    +0.000 A 
ATOM     17  N   UNL     1       6.210   3.475  12.363  0.00  0.00    +0.000 NA
ATOM     18  C   UNL     1       5.837   3.659  13.650  0.00  0.00    +0.000 A 
ENDBRANCH   4  13
TORSDOF 1
ENDMDL
MODEL 4
REMARK VINA RESULT:      -7.2      1.259      1.285
REMARK  Name = 
REMARK  1 active torsions:
REMARK  status: ('A' for Active; 'I' for Inactive)
REMARK    1  A    between atoms: C_4  and  C_5
REMARK                            x       y       z     vdW  Elec       q    Type
REMARK                         _______ _______ _______ _____ _____    ______ ____
ROOT
ATOM      1  O   UNL     1       3.310   6.676  18.907  0.00  0.00    +0.000 OA
ATOM      2  C   UNL     1       3.751   5.676  18.363  0.00  0.00    +0.000 C 
ATOM      3  C   UNL     1       4.852   5.712  17.348  0.00  0.00    +0.000 C 
ATOM      4  C   UNL     1       4.510   4.677  16.283  0.00  0.00    +0.000 C 
ATOM      5  O   UNL     1       4.489   3.351  16.850  0.00  0.00    +0.000 OA
ATOM      6  C   UNL     1       3.702   3.240  17.967  0.00  0.00    +0.000 A 
ATOM      7  C   UNL     1       3.343   1.952  18.362  0.00  0.00    +0.000 A 
ATOM      8  C   UNL     1       2.561   1.767  19.508  0.00  0.00    +0.000 A 
ATOM      9  C   UNL     1       2.139   2.867  20.257  0.00  0.00    +0.000 A 
ATOM     10 CL   UNL     1       1.200   2.627  21.677  0.00  0.00    +0.000 Cl
ATOM     11  C   UNL     1       2.494   4.156  19.873  0.00  0.00    +0.000 A 
ATOM     12  C   UNL     1       3.283   4.330  18.734  0.00  0.00    +0.000 A 
ENDROOT
BRANCH   4  13
ATOM     13  C   UNL     1       5.533   4.755  15.170  0.00  0.00    +0.000 A 
ATOM     14  C   UNL     1       5.421   4.009  13.992  0.00  0.00    +0.000 A 
ATOM     15  C   UNL     1       6.467   3.999  13.075  0.00  0.00    +0.000 A 
ATOM     16  C   UNL     1       7.597   4.746  13.359  0.00  0.00    +0.000 A 
ATOM     17  N   UNL     1       7.730   5.510  14.463  0.00  0.00    +0.000 NA
ATOM     18  C   UNL     1       6.698   5.501  15.337  0.00  0.00    +0.000 A 
ENDBRANCH   4  13
TORSDOF 1
ENDMDL
MODEL 5
REMARK VINA RESULT:      -7.1      3.645      6.297
REMARK  Name = 
REMARK  1 active torsions:
REMARK  status: ('A' for Active; 'I' for Inactive)
REMARK    1  A    between atoms: C_4  and  C_5
REMARK                            x       y       z     vdW  Elec       q    Type
REMARK                         _______ _______ _______ _____ _____    ______ ____
ROOT
ATOM      1  O   UNL     1       7.912   5.380  18.490  0.00  0.00    +0.000 OA
ATOM      2  C   UNL     1       6.775   5.077  18.162  0.00  0.00    +0.000 C 
ATOM      3  C   UNL     1       5.624   5.056  19.120  0.00  0.00    +0.000 C 
ATOM      4  C   UNL     1       4.763   3.853  18.755  0.00  0.00    +0.000 C 
ATOM      5  O   UNL     1       4.218   4.000  17.428  0.00  0.00    +0.000 OA
ATOM      6  C   UNL     1       5.159   4.286  16.472  0.00  0.00    +0.000 A 
ATOM      7  C   UNL     1       4.788   4.095  15.143  0.00  0.00    +0.000 A 
ATOM      8  C   UNL     1       5.693   4.390  14.117  0.00  0.00    +0.000 A 
ATOM      9  C   UNL     1       6.967   4.876  14.421  0.00  0.00    +0.000 A 
ATOM     10 CL   UNL     1       8.063   5.261  13.153  0.00  0.00    +0.000 Cl
ATOM     11  C   UNL     1       7.346   5.073  15.745  0.00  0.00    +0.000 A 
ATOM     12  C   UNL     1       6.432   4.785  16.761  0.00  0.00    +0.000 A 
ENDROOT
BRANCH   4  13
ATOM     13  C   UNL     1       3.646   3.718  19.767  0.00  0.00    +0.000 A 
ATOM     14  C   UNL     1       3.521   2.606  20.606  0.00  0.00    +0.000 A 
ATOM     15  C   UNL     1       2.390   2.461  21.404  0.00  0.00    +0.000 A 
ATOM     16  C   UNL     1       1.415   3.442  21.346  0.00  0.00    +0.000 A 
ATOM     17  N   UNL     1       1.513   4.549  20.580  0.00  0.00    +0.000 NA
ATOM     18  C   UNL     1       2.623   4.664  19.816  0.00  0.00    +0.000 A 
ENDBRANCH   4  13
TORSDOF 1
ENDMDL
MODEL 6
REMARK VINA RESULT:      -7.1      3.424      3.734
REMARK  Name = 
REMARK  1 active torsions:
REMARK  status: ('A' for Active; 'I' for Inactive)
REMARK    1  A    between atoms: C_4  and  C_5
REMARK                            x       y       z     vdW  Elec       q    Type
REMARK                         _______ _______ _______ _____ _____    ______ ____
ROOT
ATOM      1  O   UNL     1       3.108   4.609  20.498  0.00  0.00    +0.000 OA
ATOM      2  C   UNL     1       3.204   5.308  19.501  0.00  0.00    +0.000 C 
ATOM      3  C   UNL     1       3.853   4.843  18.234  0.00  0.00    +0.000 C 
ATOM      4  C   UNL     1       4.630   6.027  17.671  0.00  0.00    +0.000 C 
ATOM      5  O   UNL     1       3.736   7.106  17.328  0.00  0.00    +0.000 OA
ATOM      6  C   UNL     1       2.887   7.465  18.344  0.00  0.00    +0.000 A 
ATOM      7  C   UNL     1       2.254   8.700  18.231  0.00  0.00    +0.000 A 
ATOM      8  C   UNL     1       1.356   9.117  19.220  0.00  0.00    +0.000 A 
ATOM      9  C   UNL     1       1.094   8.299  20.321  0.00  0.00    +0.000 A 
ATOM     10 CL   UNL     1      -0.030   8.808  21.520  0.00  0.00    +0.000 Cl
ATOM     11  C   UNL     1       1.719   7.062  20.443  0.00  0.00    +0.000 A 
ATOM     12  C   UNL     1       2.606   6.651  19.444  0.00  0.00    +0.000 A 
ENDROOT
BRANCH   4  13
ATOM     13  C   UNL     1       5.401   5.578  16.449  0.00  0.00    +0.000 A 
ATOM     14  C   UNL     1       4.864   4.702  15.501  0.00  0.00    +0.000 A 
ATOM     15  C   UNL     1       5.671   4.200  14.483  0.00  0.00    +0.000 A 
ATOM     16  C   UNL     1       6.996   4.598  14.439  0.00  0.00    +0.000 A 
ATOM     17  N   UNL     1       7.544   5.471  15.309  0.00  0.00    +0.000 NA
ATOM     18  C   UNL     1       6.737   5.943  16.286  0.00  0.00    +0.000 A 
ENDBRANCH   4  13
TORSDOF 1
ENDMDL
MODEL 7
REMARK VINA RESULT:      -7.0      3.618      6.336
REMARK  Name = 
REMARK  1 active torsions:
REMARK  status: ('A' for Active; 'I' for Inactive)
REMARK    1  A    between atoms: C_4  and  C_5
REMARK                            x       y       z     vdW  Elec       q    Type
REMARK                         _______ _______ _______ _____ _____    ______ ____
ROOT
ATOM      1  O   UNL     1       7.173   6.402  18.134  0.00  0.00    +0.000 OA
ATOM      2  C   UNL     1       6.227   5.729  17.755  0.00  0.00    +0.000 C 
ATOM      3  C   UNL     1       4.979   5.541  18.561  0.00  0.00    +0.000 C 
ATOM      4  C   UNL     1       4.538   4.095  18.368  0.00  0.00    +0.000 C 
ATOM      5  O   UNL     1       4.202   3.845  16.988  0.00  0.00    +0.000 OA
ATOM      6  C   UNL     1       5.181   4.222  16.104  0.00  0.00    +0.000 A 
ATOM      7  C   UNL     1       5.100   3.703  14.813  0.00  0.00    +0.000 A 
ATOM      8  C   UNL     1       6.053   4.066  13.855  0.00  0.00    +0.000 A 
ATOM      9  C   UNL     1       7.085   4.946  14.188  0.00  0.00    +0.000 A 
ATOM     10 CL   UNL     1       8.237   5.406  12.996  0.00  0.00    +0.000 Cl
ATOM     11  C   UNL     1       7.173   5.472  15.472  0.00  0.00    +0.000 A 
ATOM     12  C   UNL     1       6.211   5.111  16.419  0.00  0.00    +0.000 A 
ENDROOT
BRANCH   4  13
ATOM     13  C   UNL     1       3.343   3.819  19.255  0.00  0.00    +0.000 A 
ATOM     14  C   UNL     1       2.890   4.732  20.213  0.00  0.00    +0.000 A 
ATOM     15  C   UNL     1       1.888   4.363  21.106  0.00  0.00    +0.000 A 
ATOM     16  C   UNL     1       1.360   3.087  21.009  0.00  0.00    +0.000 A 
ATOM     17  N   UNL     1       1.740   2.189  20.076  0.00  0.00    +0.000 NA
ATOM     18  C   UNL     1       2.714   2.575  19.221  0.00  0.00    +0.000 A 
ENDBRANCH   4  13
TORSDOF 1
ENDMDL
MODEL 8
REMARK VINA RESULT:      -7.0      5.351      7.150
REMARK  Name = 
REMARK  1 active torsions:
REMARK  status: ('A' for Active; 'I' for Inactive)
REMARK    1  A    between atoms: C_4  and  C_5
REMARK                            x       y       z     vdW  Elec       q    Type
REMARK                         _______ _______ _______ _____ _____    ______ ____
ROOT
ATOM      1  O   UNL     1       3.882   6.592  17.501  0.00  0.00    +0.000 OA
ATOM      2  C   UNL     1       3.028   6.490  18.368  0.00  0.00    +0.000 C 
ATOM      3  C   UNL     1       2.137   7.621  18.778  0.00  0.00    +0.000 C 
ATOM      4  C   UNL     1       1.970   7.529  20.291  0.00  0.00    +0.000 C 
ATOM      5  O   UNL     1       1.306   6.302  20.656  0.00  0.00    +0.000 OA
ATOM      6  C   UNL     1       1.884   5.180  20.119  0.00  0.00    +0.000 A 
ATOM      7  C   UNL     1       1.540   3.957  20.692  0.00  0.00    +0.000 A 
ATOM      8  C   UNL     1       2.075   2.771  20.176  0.00  0.00    +0.000 A 
ATOM      9  C   UNL     1       2.953   2.810  19.090  0.00  0.00    +0.000 A 
ATOM     10 CL   UNL     1       3.585   1.345  18.448  0.00  0.00    +0.000 Cl
ATOM     11  C   UNL     1       3.300   4.024  18.510  0.00  0.00    +0.000 A 
ATOM     12  C   UNL     1       2.753   5.202  19.025  0.00  0.00    +0.000 A 
ENDROOT
BRANCH   4  13
ATOM     13  C   UNL     1       1.170   8.720  20.773  0.00  0.00    +0.000 A 
ATOM     14  C   UNL     1       0.566   9.626  19.896  0.00  0.00    +0.000 A 
ATOM     15  C   UNL     1      -0.022  10.787  20.392  0.00  0.00    +0.000 A 
ATOM     16  C   UNL     1       0.005  11.004  21.759  0.00  0.00    +0.000 A 
ATOM     17  N   UNL     1       0.541  10.138  22.643  0.00  0.00    +0.000 NA
ATOM     18  C   UNL     1       1.104   9.019  22.134  0.00  0.00    +0.000 A 
ENDBRANCH   4  13
TORSDOF 1
ENDMDL
MODEL 9
REMARK VINA RESULT:      -7.0      5.279      7.278
REMARK  Name = 
REMARK  1 active torsions:
REMARK  status: ('A' for Active; 'I' for Inactive)
REMARK    1  A    between atoms: C_4  and  C_5
REMARK                            x       y       z     vdW  Elec       q    Type
REMARK                         _______ _______ _______ _____ _____    ______ ____
ROOT
ATOM      1  O   UNL     1       3.849   6.703  17.615  0.00  0.00    +0.000 OA
ATOM      2  C   UNL     1       2.991   6.588  18.476  0.00  0.00    +0.000 C 
ATOM      3  C   UNL     1       2.109   7.717  18.911  0.00  0.00    +0.000 C 
ATOM      4  C   UNL     1       1.936   7.592  20.420  0.00  0.00    +0.000 C 
ATOM      5  O   UNL     1       1.259   6.363  20.754  0.00  0.00    +0.000 OA
ATOM      6  C   UNL     1       1.828   5.248  20.192  0.00  0.00    +0.000 A 
ATOM      7  C   UNL     1       1.471   4.015  20.734  0.00  0.00    +0.000 A 
ATOM      8  C   UNL     1       1.996   2.837  20.192  0.00  0.00    +0.000 A 
ATOM      9  C   UNL     1       2.878   2.893  19.110  0.00  0.00    +0.000 A 
ATOM     10 CL   UNL     1       3.498   1.437  18.435  0.00  0.00    +0.000 Cl
ATOM     11  C   UNL     1       3.239   4.117  18.560  0.00  0.00    +0.000 A 
ATOM     12  C   UNL     1       2.701   5.288  19.102  0.00  0.00    +0.000 A 
ENDROOT
BRANCH   4  13
ATOM     13  C   UNL     1       1.146   8.778  20.929  0.00  0.00    +0.000 A 
ATOM     14  C   UNL     1       0.780   8.919  22.271  0.00  0.00    +0.000 A 
ATOM     15  C   UNL     1      -0.078   9.946  22.654  0.00  0.00    +0.000 A 
ATOM     16  C   UNL     1      -0.541  10.812  21.678  0.00  0.00    +0.000 A 
ATOM     17  N   UNL     1      -0.182  10.737  20.380  0.00  0.00    +0.000 NA
ATOM     18  C   UNL     1       0.653   9.730  20.037  0.00  0.00    +0.000 A 
ENDBRANCH   4  13
TORSDOF 1
ENDMDL
