MODEL 1
REMARK VINA RESULT:     -10.1      0.000      0.000
REMARK  Name = 
REMARK  2 active torsions:
REMARK  status: ('A' for Active; 'I' for Inactive)
REMARK    1  A    between atoms: C_8  and  C_9
REMARK    2  A    between atoms: C_17  and  C_18
REMARK                            x       y       z     vdW  Elec       q    Type
REMARK                         _______ _______ _______ _____ _____    ______ ____
ROOT
ATOM      1  C   UNL     1       3.439   6.669  18.255  0.00  0.00    +0.000 C 
ATOM      2  N   UNL     1       3.912   6.741  17.035  0.00  0.00    +0.000 NA
ATOM      3  N   UNL     1       4.872   5.816  16.710  0.00  0.00    +0.000 N 
ATOM      4  C   UNL     1       5.263   5.450  15.450  0.00  0.00    +0.000 A 
ATOM      5  N   UNL     1       6.263   4.596  15.508  0.00  0.00    +0.000 NA
ATOM      6  N   UNL     1       6.551   4.380  16.841  0.00  0.00    +0.000 NA
ATOM      7  C   UNL     1       5.702   5.096  17.534  0.00  0.00    +0.000 A 
ATOM      8  S   UNL     1       5.541   5.203  19.241  0.00  0.00    +0.000 S 
ATOM      9  C   UNL     1       3.735   5.525  19.256  0.00  0.00    +0.000 C 
ENDROOT
BRANCH   1  17
ATOM     10  O   UNL     1      -0.183  10.054  23.474  0.00  0.00    +0.000 OA
ATOM     11  C   UNL     1       0.141   9.975  22.292  0.00  0.00    +0.000 C 
ATOM     12  C   UNL     1      -0.203  11.045  21.256  0.00  0.00    +0.000 C 
ATOM     13  O   UNL     1      -0.195  10.701  19.879  0.00  0.00    +0.000 OA
ATOM     14  C   UNL     1       0.696   9.719  19.554  0.00  0.00    +0.000 A 
ATOM     15  C   UNL     1       0.981   9.576  18.200  0.00  0.00    +0.000 A 
ATOM     16  C   UNL     1       1.856   8.581  17.771  0.00  0.00    +0.000 A 
ATOM     17  C   UNL     1       2.467   7.723  18.697  0.00  0.00    +0.000 A 
ATOM     18  C   UNL     1       2.140   7.837  20.059  0.00  0.00    +0.000 A 
ATOM     19  C   UNL     1       1.262   8.839  20.480  0.00  0.00    +0.000 A 
ATOM     20  N   UNL     1       0.923   8.950  21.829  0.00  0.00    +0.000 N 
ATOM     21  H   UNL     1       1.231   8.266  22.509  0.00  0.00    +0.000 HD
ENDBRANCH   1  17
BRANCH   9  22
ATOM     22  C   UNL     1       2.925   4.248  19.066  0.00  0.00    +0.000 A 
ATOM     23  C   UNL     1       3.481   3.209  18.291  0.00  0.00    +0.000 A 
ATOM     24  C   UNL     1       2.774   2.029  18.045  0.00  0.00    +0.000 A 
ATOM     25  C   UNL     1       1.499   1.857  18.573  0.00  0.00    +0.000 A 
ATOM     26  C   UNL     1       0.943   2.856  19.364  0.00  0.00    +0.000 A 
ATOM     27  C   UNL     1       1.655   4.029  19.612  0.00  0.00    +0.000 A 
ATOM     28  F   UNL     1       1.076   4.938  20.405  0.00  0.00    +0.000 F 
ENDBRANCH   9  22
TORSDOF 2
ENDMDL
MODEL 2
REMARK VINA RESULT:     -10.1      1.090      1.141
REMARK  Name = 
REMARK  2 active torsions:
REMARK  status: ('A' for Active; 'I' for Inactive)
REMARK    1  A    between atoms: C_8  and  C_9
REMARK    2  A    between atoms: C_17  and  C_18
REMARK                            x       y       z     vdW  Elec       q    Type
REMARK                         _______ _______ _______ _____ _____    ______ ____
ROOT
ATOM      1  C   UNL     1       4.081   6.582  18.019  0.00  0.00    +0.000 C 
ATOM      2  N   UNL     1       4.604   6.695  16.823  0.00  0.00    +0.000 NA
ATOM      3  N   UNL     1       5.666   5.867  16.555  0.00  0.00    +0.000 N 
ATOM      4  C   UNL     1       6.154   5.536  15.321  0.00  0.00    +0.000 A 
ATOM      5  N   UNL     1       7.230   4.786  15.436  0.00  0.00    +0.000 NA
ATOM      6  N   UNL     1       7.471   4.607  16.784  0.00  0.00    +0.000 NA
ATOM      7  C   UNL     1       6.521   5.239  17.426  0.00  0.00    +0.000 A 
ATOM      8  S   UNL     1       6.266   5.339  19.123  0.00  0.00    +0.000 S 
ATOM      9  C   UNL     1       4.439   5.479  19.045  0.00  0.00    +0.000 C 
ENDROOT
BRANCH   1  17
ATOM     10  O   UNL     1      -0.645   9.085  22.839  0.00  0.00    +0.000 OA
ATOM     11  C   UNL     1      -0.098   9.185  21.743  0.00  0.00    +0.000 C 
ATOM     12  C   UNL     1      -0.293  10.385  20.817  0.00  0.00    +0.000 C 
ATOM     13  O   UNL     1      -0.005  10.244  19.434  0.00  0.00    +0.000 OA
ATOM     14  C   UNL     1       0.983   9.343  19.160  0.00  0.00    +0.000 A 
ATOM     15  C   UNL     1       1.528   9.404  17.881  0.00  0.00    +0.000 A 
ATOM     16  C   UNL     1       2.520   8.504  17.501  0.00  0.00    +0.000 A 
ATOM     17  C   UNL     1       2.987   7.537  18.401  0.00  0.00    +0.000 A 
ATOM     18  C   UNL     1       2.401   7.444  19.675  0.00  0.00    +0.000 A 
ATOM     19  C   UNL     1       1.407   8.353  20.049  0.00  0.00    +0.000 A 
ATOM     20  N   UNL     1       0.811   8.258  21.308  0.00  0.00    +0.000 N 
ATOM     21  H   UNL     1       1.020   7.491  21.934  0.00  0.00    +0.000 HD
ENDBRANCH   1  17
BRANCH   9  22
ATOM     22  C   UNL     1       3.770   4.127  18.829  0.00  0.00    +0.000 A 
ATOM     23  C   UNL     1       4.372   2.983  19.393  0.00  0.00    +0.000 A 
ATOM     24  C   UNL     1       3.831   1.709  19.198  0.00  0.00    +0.000 A 
ATOM     25  C   UNL     1       2.675   1.549  18.443  0.00  0.00    +0.000 A 
ATOM     26  C   UNL     1       2.047   2.667  17.903  0.00  0.00    +0.000 A 
ATOM     27  C   UNL     1       2.587   3.936  18.106  0.00  0.00    +0.000 A 
ATOM     28  F   UNL     1       1.919   4.973  17.584  0.00  0.00    +0.000 F 
ENDBRANCH   9  22
TORSDOF 2
ENDMDL
MODEL 3
REMARK VINA RESULT:      -9.8      0.955      1.156
REMARK  Name = 
REMARK  2 active torsions:
REMARK  status: ('A' for Active; 'I' for Inactive)
REMARK    1  A    between atoms: C_8  and  C_9
REMARK    2  A    between atoms: C_17  and  C_18
REMARK                            x       y       z     vdW  Elec       q    Type
REMARK                         _______ _______ _______ _____ _____    ______ ____
ROOT
ATOM      1  C   UNL     1       3.547   6.694  18.221  0.00  0.00    +0.000 C 
ATOM      2  N   UNL     1       4.001   6.788  16.995  0.00  0.00    +0.000 NA
ATOM      3  N   UNL     1       4.978   5.888  16.650  0.00  0.00    +0.000 N 
ATOM      4  C   UNL     1       5.361   5.542  15.382  0.00  0.00    +0.000 A 
ATOM      5  N   UNL     1       6.383   4.713  15.420  0.00  0.00    +0.000 NA
ATOM      6  N   UNL     1       6.694   4.493  16.746  0.00  0.00    +0.000 NA
ATOM      7  C   UNL     1       5.837   5.182  17.456  0.00  0.00    +0.000 A 
ATOM      8  S   UNL     1       5.698   5.273  19.167  0.00  0.00    +0.000 S 
ATOM      9  C   UNL     1       3.885   5.550  19.209  0.00  0.00    +0.000 C 
ENDROOT
BRANCH   1  17
ATOM     10  O   UNL     1      -0.280   9.776  23.482  0.00  0.00    +0.000 OA
ATOM     11  C   UNL     1       0.089   9.764  22.310  0.00  0.00    +0.000 C 
ATOM     12  C   UNL     1      -0.219  10.890  21.324  0.00  0.00    +0.000 C 
ATOM     13  O   UNL     1      -0.158  10.625  19.932  0.00  0.00    +0.000 OA
ATOM     14  C   UNL     1       0.748   9.664  19.586  0.00  0.00    +0.000 A 
ATOM     15  C   UNL     1       1.084   9.598  18.238  0.00  0.00    +0.000 A 
ATOM     16  C   UNL     1       1.978   8.629  17.787  0.00  0.00    +0.000 A 
ATOM     17  C   UNL     1       2.555   7.721  18.685  0.00  0.00    +0.000 A 
ATOM     18  C   UNL     1       2.177   7.758  20.038  0.00  0.00    +0.000 A 
ATOM     19  C   UNL     1       1.281   8.734  20.481  0.00  0.00    +0.000 A 
ATOM     20  N   UNL     1       0.891   8.767  21.821  0.00  0.00    +0.000 N 
ATOM     21  H   UNL     1       1.175   8.046  22.472  0.00  0.00    +0.000 HD
ENDBRANCH   1  17
BRANCH   9  22
ATOM     22  C   UNL     1       3.104   4.256  19.020  0.00  0.00    +0.000 A 
ATOM     23  C   UNL     1       1.842   4.318  18.393  0.00  0.00    +0.000 A 
ATOM     24  C   UNL     1       1.058   3.174  18.225  0.00  0.00    +0.000 A 
ATOM     25  C   UNL     1       1.518   1.941  18.673  0.00  0.00    +0.000 A 
ATOM     26  C   UNL     1       2.772   1.850  19.267  0.00  0.00    +0.000 A 
ATOM     27  C   UNL     1       3.554   2.994  19.426  0.00  0.00    +0.000 A 
ATOM     28  F   UNL     1       4.763   2.834  19.979  0.00  0.00    +0.000 F 
ENDBRANCH   9  22
TORSDOF 2
ENDMDL
MODEL 4
REMARK VINA RESULT:      -9.5      1.210      1.960
REMARK  Name = 
REMARK  2 active torsions:
REMARK  status: ('A' for Active; 'I' for Inactive)
REMARK    1  A    between atoms: C_8  and  C_9
REMARK    2  A    between atoms: C_17  and  C_18
REMARK                            x       y       z     vdW  Elec       q    Type
REMARK                         _______ _______ _______ _____ _____    ______ ____
ROOT
ATOM      1  C   UNL     1       3.298   6.794  18.564  0.00  0.00    +0.000 C 
ATOM      2  N   UNL     1       3.743   7.017  17.352  0.00  0.00    +0.000 NA
ATOM      3  N   UNL     1       4.710   6.154  16.902  0.00  0.00    +0.000 N 
ATOM      4  C   UNL     1       5.080   5.946  15.601  0.00  0.00    +0.000 A 
ATOM      5  N   UNL     1       6.096   5.110  15.539  0.00  0.00    +0.000 NA
ATOM      6  N   UNL     1       6.416   4.745  16.831  0.00  0.00    +0.000 NA
ATOM      7  C   UNL     1       5.570   5.359  17.619  0.00  0.00    +0.000 A 
ATOM      8  S   UNL     1       5.445   5.263  19.330  0.00  0.00    +0.000 S 
ATOM      9  C   UNL     1       3.635   5.547  19.418  0.00  0.00    +0.000 C 
ENDROOT
BRANCH   1  17
ATOM     10  O   UNL     1      -0.974  12.546  17.865  0.00  0.00    +0.000 OA
ATOM     11  C   UNL     1      -0.575  11.601  18.540  0.00  0.00    +0.000 C 
ATOM     12  C   UNL     1      -1.199  11.206  19.879  0.00  0.00    +0.000 C 
ATOM     13  O   UNL     1      -0.443  10.421  20.788  0.00  0.00    +0.000 OA
ATOM     14  C   UNL     1       0.444   9.574  20.190  0.00  0.00    +0.000 A 
ATOM     15  C   UNL     1       0.962   8.565  20.995  0.00  0.00    +0.000 A 
ATOM     16  C   UNL     1       1.898   7.671  20.479  0.00  0.00    +0.000 A 
ATOM     17  C   UNL     1       2.318   7.771  19.145  0.00  0.00    +0.000 A 
ATOM     18  C   UNL     1       1.830   8.821  18.348  0.00  0.00    +0.000 A 
ATOM     19  C   UNL     1       0.891   9.712  18.874  0.00  0.00    +0.000 A 
ATOM     20  N   UNL     1       0.413  10.765  18.092  0.00  0.00    +0.000 N 
ATOM     21  H   UNL     1       0.793  10.955  17.174  0.00  0.00    +0.000 HD
ENDBRANCH   1  17
BRANCH   9  22
ATOM     22  C   UNL     1       2.842   4.286  19.096  0.00  0.00    +0.000 A 
ATOM     23  C   UNL     1       3.417   3.334  18.230  0.00  0.00    +0.000 A 
ATOM     24  C   UNL     1       2.726   2.176  17.862  0.00  0.00    +0.000 A 
ATOM     25  C   UNL     1       1.449   1.939  18.357  0.00  0.00    +0.000 A 
ATOM     26  C   UNL     1       0.873   2.850  19.237  0.00  0.00    +0.000 A 
ATOM     27  C   UNL     1       1.569   4.000  19.605  0.00  0.00    +0.000 A 
ATOM     28  F   UNL     1       0.972   4.822  20.478  0.00  0.00    +0.000 F 
ENDBRANCH   9  22
TORSDOF 2
ENDMDL
MODEL 5
REMARK VINA RESULT:      -9.5      2.469      3.855
REMARK  Name = 
REMARK  2 active torsions:
REMARK  status: ('A' for Active; 'I' for Inactive)
REMARK    1  A    between atoms: C_8  and  C_9
REMARK    2  A    between atoms: C_17  and  C_18
REMARK                            x       y       z     vdW  Elec       q    Type
REMARK                         _______ _______ _______ _____ _____    ______ ____
ROOT
ATOM      1  C   UNL     1       2.795   5.944  19.108  0.00  0.00    +0.000 C 
ATOM      2  N   UNL     1       2.651   5.071  20.075  0.00  0.00    +0.000 NA
ATOM      3  N   UNL     1       3.163   3.821  19.832  0.00  0.00    +0.000 N 
ATOM      4  C   UNL     1       3.457   2.862  20.762  0.00  0.00    +0.000 A 
ATOM      5  N   UNL     1       3.855   1.754  20.172  0.00  0.00    +0.000 NA
ATOM      6  N   UNL     1       3.831   1.974  18.810  0.00  0.00    +0.000 NA
ATOM      7  C   UNL     1       3.438   3.211  18.632  0.00  0.00    +0.000 A 
ATOM      8  S   UNL     1       3.256   4.070  17.156  0.00  0.00    +0.000 S 
ATOM      9  C   UNL     1       3.649   5.728  17.835  0.00  0.00    +0.000 C 
ENDROOT
BRANCH   1  17
ATOM     10  O   UNL     1      -0.479  10.849  23.238  0.00  0.00    +0.000 OA
ATOM     11  C   UNL     1       0.034  10.543  22.164  0.00  0.00    +0.000 C 
ATOM     12  C   UNL     1       0.286  11.547  21.040  0.00  0.00    +0.000 C 
ATOM     13  O   UNL     1       0.459  11.071  19.714  0.00  0.00    +0.000 OA
ATOM     14  C   UNL     1       1.020   9.829  19.637  0.00  0.00    +0.000 A 
ATOM     15  C   UNL     1       1.510   9.456  18.390  0.00  0.00    +0.000 A 
ATOM     16  C   UNL     1       2.073   8.195  18.208  0.00  0.00    +0.000 A 
ATOM     17  C   UNL     1       2.160   7.294  19.279  0.00  0.00    +0.000 A 
ATOM     18  C   UNL     1       1.619   7.653  20.525  0.00  0.00    +0.000 A 
ATOM     19  C   UNL     1       1.058   8.921  20.698  0.00  0.00    +0.000 A 
ATOM     20  N   UNL     1       0.508   9.279  21.930  0.00  0.00    +0.000 N 
ATOM     21  H   UNL     1       0.425   8.611  22.685  0.00  0.00    +0.000 HD
ENDBRANCH   1  17
BRANCH   9  22
ATOM     22  C   UNL     1       5.150   5.938  17.997  0.00  0.00    +0.000 A 
ATOM     23  C   UNL     1       5.776   5.444  19.160  0.00  0.00    +0.000 A 
ATOM     24  C   UNL     1       7.141   5.640  19.388  0.00  0.00    +0.000 A 
ATOM     25  C   UNL     1       7.913   6.326  18.457  0.00  0.00    +0.000 A 
ATOM     26  C   UNL     1       7.323   6.796  17.288  0.00  0.00    +0.000 A 
ATOM     27  C   UNL     1       5.962   6.593  17.063  0.00  0.00    +0.000 A 
ATOM     28  F   UNL     1       5.462   7.044  15.905  0.00  0.00    +0.000 F 
ENDBRANCH   9  22
TORSDOF 2
ENDMDL
MODEL 6
REMARK VINA RESULT:      -9.4      2.839      3.998
REMARK  Name = 
REMARK  2 active torsions:
REMARK  status: ('A' for Active; 'I' for Inactive)
REMARK    1  A    between atoms: C_8  and  C_9
REMARK    2  A    between atoms: C_17  and  C_18
REMARK                            x       y       z     vdW  Elec       q    Type
REMARK                         _______ _______ _______ _____ _____    ______ ____
ROOT
ATOM      1  C   UNL     1       2.182   6.187  19.302  0.00  0.00    +0.000 C 
ATOM      2  N   UNL     1       1.964   5.671  20.486  0.00  0.00    +0.000 NA
ATOM      3  N   UNL     1       2.087   4.307  20.576  0.00  0.00    +0.000 N 
ATOM      4  C   UNL     1       2.257   3.574  21.719  0.00  0.00    +0.000 A 
ATOM      5  N   UNL     1       2.255   2.286  21.445  0.00  0.00    +0.000 NA
ATOM      6  N   UNL     1       2.082   2.149  20.083  0.00  0.00    +0.000 NA
ATOM      7  C   UNL     1       2.005   3.358  19.586  0.00  0.00    +0.000 A 
ATOM      8  S   UNL     1       1.830   3.827  17.942  0.00  0.00    +0.000 S 
ATOM      9  C   UNL     1       2.744   5.411  18.085  0.00  0.00    +0.000 C 
ENDROOT
BRANCH   1  17
ATOM     10  O   UNL     1       0.174  12.580  21.933  0.00  0.00    +0.000 OA
ATOM     11  C   UNL     1       0.656  11.917  21.018  0.00  0.00    +0.000 C 
ATOM     12  C   UNL     1       1.274  12.541  19.767  0.00  0.00    +0.000 C 
ATOM     13  O   UNL     1       1.402  11.754  18.593  0.00  0.00    +0.000 OA
ATOM     14  C   UNL     1       1.580  10.422  18.832  0.00  0.00    +0.000 A 
ATOM     15  C   UNL     1       2.035   9.665  17.758  0.00  0.00    +0.000 A 
ATOM     16  C   UNL     1       2.218   8.290  17.899  0.00  0.00    +0.000 A 
ATOM     17  C   UNL     1       1.956   7.660  19.123  0.00  0.00    +0.000 A 
ATOM     18  C   UNL     1       1.450   8.418  20.192  0.00  0.00    +0.000 A 
ATOM     19  C   UNL     1       1.272   9.796  20.042  0.00  0.00    +0.000 A 
ATOM     20  N   UNL     1       0.757  10.553  21.096  0.00  0.00    +0.000 N 
ATOM     21  H   UNL     1       0.426  10.116  21.947  0.00  0.00    +0.000 HD
ENDBRANCH   1  17
BRANCH   9  22
ATOM     22  C   UNL     1       4.254   5.205  18.067  0.00  0.00    +0.000 A 
ATOM     23  C   UNL     1       4.994   5.564  19.213  0.00  0.00    +0.000 A 
ATOM     24  C   UNL     1       6.385   5.438  19.246  0.00  0.00    +0.000 A 
ATOM     25  C   UNL     1       7.068   4.943  18.140  0.00  0.00    +0.000 A 
ATOM     26  C   UNL     1       6.356   4.554  17.011  0.00  0.00    +0.000 A 
ATOM     27  C   UNL     1       4.967   4.676  16.985  0.00  0.00    +0.000 A 
ATOM     28  F   UNL     1       4.338   4.256  15.880  0.00  0.00    +0.000 F 
ENDBRANCH   9  22
TORSDOF 2
ENDMDL
MODEL 7
REMARK VINA RESULT:      -9.3      1.545      2.269
REMARK  Name = 
REMARK  2 active torsions:
REMARK  status: ('A' for Active; 'I' for Inactive)
REMARK    1  A    between atoms: C_8  and  C_9
REMARK    2  A    between atoms: C_17  and  C_18
REMARK                            x       y       z     vdW  Elec       q    Type
REMARK                         _______ _______ _______ _____ _____    ______ ____
ROOT
ATOM      1  C   UNL     1       3.451   6.910  18.430  0.00  0.00    +0.000 C 
ATOM      2  N   UNL     1       3.850   7.164  17.208  0.00  0.00    +0.000 NA
ATOM      3  N   UNL     1       4.859   6.365  16.731  0.00  0.00    +0.000 N 
ATOM      4  C   UNL     1       5.209   6.184  15.421  0.00  0.00    +0.000 A 
ATOM      5  N   UNL     1       6.274   5.415  15.330  0.00  0.00    +0.000 NA
ATOM      6  N   UNL     1       6.648   5.068  16.613  0.00  0.00    +0.000 NA
ATOM      7  C   UNL     1       5.785   5.625  17.424  0.00  0.00    +0.000 A 
ATOM      8  S   UNL     1       5.709   5.517  19.138  0.00  0.00    +0.000 S 
ATOM      9  C   UNL     1       3.887   5.685  19.271  0.00  0.00    +0.000 C 
ENDROOT
BRANCH   1  17
ATOM     10  O   UNL     1      -0.914  12.617  17.978  0.00  0.00    +0.000 OA
ATOM     11  C   UNL     1      -0.524  11.630  18.598  0.00  0.00    +0.000 C 
ATOM     12  C   UNL     1      -1.196  11.123  19.873  0.00  0.00    +0.000 C 
ATOM     13  O   UNL     1      -0.463  10.285  20.753  0.00  0.00    +0.000 OA
ATOM     14  C   UNL     1       0.468   9.503  20.133  0.00  0.00    +0.000 A 
ATOM     15  C   UNL     1       0.973   8.445  20.881  0.00  0.00    +0.000 A 
ATOM     16  C   UNL     1       1.950   7.611  20.341  0.00  0.00    +0.000 A 
ATOM     17  C   UNL     1       2.425   7.821  19.039  0.00  0.00    +0.000 A 
ATOM     18  C   UNL     1       1.949   8.919  18.303  0.00  0.00    +0.000 A 
ATOM     19  C   UNL     1       0.968   9.750  18.852  0.00  0.00    +0.000 A 
ATOM     20  N   UNL     1       0.501  10.850  18.132  0.00  0.00    +0.000 N 
ATOM     21  H   UNL     1       0.916  11.117  17.248  0.00  0.00    +0.000 HD
ENDBRANCH   1  17
BRANCH   9  22
ATOM     22  C   UNL     1       3.168   4.376  18.963  0.00  0.00    +0.000 A 
ATOM     23  C   UNL     1       1.933   4.432  18.285  0.00  0.00    +0.000 A 
ATOM     24  C   UNL     1       1.204   3.273  18.009  0.00  0.00    +0.000 A 
ATOM     25  C   UNL     1       1.695   2.031  18.396  0.00  0.00    +0.000 A 
ATOM     26  C   UNL     1       2.925   1.949  19.039  0.00  0.00    +0.000 A 
ATOM     27  C   UNL     1       3.652   3.108  19.307  0.00  0.00    +0.000 A 
ATOM     28  F   UNL     1       4.842   2.959  19.902  0.00  0.00    +0.000 F 
ENDBRANCH   9  22
TORSDOF 2
ENDMDL
MODEL 8
REMARK VINA RESULT:      -9.3      2.428      3.818
REMARK  Name = 
REMARK  2 active torsions:
REMARK  status: ('A' for Active; 'I' for Inactive)
REMARK    1  A    between atoms: C_8  and  C_9
REMARK    2  A    between atoms: C_17  and  C_18
REMARK                            x       y       z     vdW  Elec       q    Type
REMARK                         _______ _______ _______ _____ _____    ______ ____
ROOT
ATOM      1  C   UNL     1       2.902   5.456  18.942  0.00  0.00    +0.000 C 
ATOM      2  N   UNL     1       3.100   4.694  19.989  0.00  0.00    +0.000 NA
ATOM      3  N   UNL     1       3.548   3.423  19.727  0.00  0.00    +0.000 N 
ATOM      4  C   UNL     1       4.152   2.570  20.611  0.00  0.00    +0.000 A 
ATOM      5  N   UNL     1       4.377   1.404  20.044  0.00  0.00    +0.000 NA
ATOM      6  N   UNL     1       3.916   1.474  18.745  0.00  0.00    +0.000 NA
ATOM      7  C   UNL     1       3.448   2.685  18.574  0.00  0.00    +0.000 A 
ATOM      8  S   UNL     1       2.780   3.379  17.151  0.00  0.00    +0.000 S 
ATOM      9  C   UNL     1       3.316   5.100  17.493  0.00  0.00    +0.000 C 
ENDROOT
BRANCH   1  17
ATOM     10  O   UNL     1      -0.089  10.352  23.290  0.00  0.00    +0.000 OA
ATOM     11  C   UNL     1       0.378  10.057  22.193  0.00  0.00    +0.000 C 
ATOM     12  C   UNL     1       0.618  11.079  21.083  0.00  0.00    +0.000 C 
ATOM     13  O   UNL     1       0.732  10.629  19.742  0.00  0.00    +0.000 OA
ATOM     14  C   UNL     1       1.255   9.374  19.618  0.00  0.00    +0.000 A 
ATOM     15  C   UNL     1       1.692   9.017  18.346  0.00  0.00    +0.000 A 
ATOM     16  C   UNL     1       2.212   7.745  18.117  0.00  0.00    +0.000 A 
ATOM     17  C   UNL     1       2.311   6.818  19.164  0.00  0.00    +0.000 A 
ATOM     18  C   UNL     1       1.824   7.163  20.436  0.00  0.00    +0.000 A 
ATOM     19  C   UNL     1       1.305   8.442  20.657  0.00  0.00    +0.000 A 
ATOM     20  N   UNL     1       0.808   8.786  21.915  0.00  0.00    +0.000 N 
ATOM     21  H   UNL     1       0.733   8.104  22.658  0.00  0.00    +0.000 HD
ENDBRANCH   1  17
BRANCH   9  22
ATOM     22  C   UNL     1       4.783   5.322  17.145  0.00  0.00    +0.000 A 
ATOM     23  C   UNL     1       5.597   6.004  18.073  0.00  0.00    +0.000 A 
ATOM     24  C   UNL     1       6.939   6.275  17.798  0.00  0.00    +0.000 A 
ATOM     25  C   UNL     1       7.502   5.866  16.594  0.00  0.00    +0.000 A 
ATOM     26  C   UNL     1       6.726   5.166  15.677  0.00  0.00    +0.000 A 
ATOM     27  C   UNL     1       5.388   4.892  15.958  0.00  0.00    +0.000 A 
ATOM     28  F   UNL     1       4.704   4.189  15.047  0.00  0.00    +0.000 F 
ENDBRANCH   9  22
TORSDOF 2
ENDMDL
MODEL 9
REMARK VINA RESULT:      -9.2      2.328      3.661
REMARK  Name = 
REMARK  2 active torsions:
REMARK  status: ('A' for Active; 'I' for Inactive)
REMARK    1  A    between atoms: C_8  and  C_9
REMARK    2  A    between atoms: C_17  and  C_18
REMARK                            x       y       z     vdW  Elec       q    Type
REMARK                         _______ _______ _______ _____ _____    ______ ____
ROOT
ATOM      1  C   UNL     1       3.044   5.204  18.879  0.00  0.00    +0.000 C 
ATOM      2  N   UNL     1       3.421   4.545  19.948  0.00  0.00    +0.000 NA
ATOM      3  N   UNL     1       3.847   3.258  19.737  0.00  0.00    +0.000 N 
ATOM      4  C   UNL     1       4.599   2.495  20.589  0.00  0.00    +0.000 A 
ATOM      5  N   UNL     1       4.755   1.281  20.104  0.00  0.00    +0.000 NA
ATOM      6  N   UNL     1       4.092   1.226  18.894  0.00  0.00    +0.000 NA
ATOM      7  C   UNL     1       3.579   2.413  18.688  0.00  0.00    +0.000 A 
ATOM      8  S   UNL     1       2.680   2.965  17.332  0.00  0.00    +0.000 S 
ATOM      9  C   UNL     1       3.230   4.713  17.422  0.00  0.00    +0.000 C 
ENDROOT
BRANCH   1  17
ATOM     10  O   UNL     1       0.147  10.261  23.104  0.00  0.00    +0.000 OA
ATOM     11  C   UNL     1       0.600   9.928  22.012  0.00  0.00    +0.000 C 
ATOM     12  C   UNL     1       0.839  10.913  20.869  0.00  0.00    +0.000 C 
ATOM     13  O   UNL     1       0.935  10.421  19.541  0.00  0.00    +0.000 OA
ATOM     14  C   UNL     1       1.444   9.157  19.451  0.00  0.00    +0.000 A 
ATOM     15  C   UNL     1       1.864   8.757  18.187  0.00  0.00    +0.000 A 
ATOM     16  C   UNL     1       2.369   7.473  17.992  0.00  0.00    +0.000 A 
ATOM     17  C   UNL     1       2.469   6.578  19.065  0.00  0.00    +0.000 A 
ATOM     18  C   UNL     1       1.999   6.967  20.331  0.00  0.00    +0.000 A 
ATOM     19  C   UNL     1       1.495   8.257  20.517  0.00  0.00    +0.000 A 
ATOM     20  N   UNL     1       1.013   8.645  21.769  0.00  0.00    +0.000 N 
ATOM     21  H   UNL     1       0.939   7.986  22.533  0.00  0.00    +0.000 HD
ENDBRANCH   1  17
BRANCH   9  22
ATOM     22  C   UNL     1       4.618   4.908  16.826  0.00  0.00    +0.000 A 
ATOM     23  C   UNL     1       4.914   4.286  15.595  0.00  0.00    +0.000 A 
ATOM     24  C   UNL     1       6.181   4.391  15.015  0.00  0.00    +0.000 A 
ATOM     25  C   UNL     1       7.178   5.127  15.646  0.00  0.00    +0.000 A 
ATOM     26  C   UNL     1       6.900   5.774  16.845  0.00  0.00    +0.000 A 
ATOM     27  C   UNL     1       5.633   5.670  17.417  0.00  0.00    +0.000 A 
ATOM     28  F   UNL     1       5.422   6.341  18.556  0.00  0.00    +0.000 F 
ENDBRANCH   9  22
TORSDOF 2
ENDMDL
