MODEL 1
REMARK VINA RESULT:      -6.8      0.000      0.000
REMARK  Name = 
REMARK  5 active torsions:
REMARK  status: ('A' for Active; 'I' for Inactive)
REMARK    1  A    between atoms: C_1  and  C_2
REMARK    2  A    between atoms: C_4  and  C_5
REMARK    3  A    between atoms: C_6  and  C_7
REMARK    4  A    between atoms: N_9  and  N_10
REMARK    5  A    between atoms: C_11  and  C_13
REMARK                            x       y       z     vdW  Elec       q    Type
REMARK                         _______ _______ _______ _____ _____    ______ ____
ROOT
ATOM      1  C   UNL     1       4.514   6.182  17.878  0.00  0.00    +0.000 C 
ATOM      2  O   UNL     1       4.572   5.728  19.025  0.00  0.00    +0.000 OA
ATOM      3  N   UNL     1       3.615   7.198  17.593  0.00  0.00    +0.000 N 
ATOM      4  H   UNL     1       3.523   7.636  16.680  0.00  0.00    +0.000 HD
ENDROOT
BRANCH   1  10
ATOM      5  C   UNL     1       6.607   3.844  13.612  0.00  0.00    +0.000 C 
ATOM      6  C   UNL     1       6.335   4.646  14.837  0.00  0.00    +0.000 A 
ATOM      7  N   UNL     1       7.230   5.402  15.431  0.00  0.00    +0.000 NA
ATOM      8  C   UNL     1       6.680   6.012  16.546  0.00  0.00    +0.000 A 
ATOM      9  C   UNL     1       7.555   6.909  17.348  0.00  0.00    +0.000 C 
ATOM     10  C   UNL     1       5.347   5.704  16.789  0.00  0.00    +0.000 A 
ATOM     11  S   UNL     1       4.785   4.627  15.575  0.00  0.00    +0.000 S 
ENDBRANCH   1  10
BRANCH   3  12
ATOM     12  N   UNL     1       2.831   7.705  18.641  0.00  0.00    +0.000 N 
ATOM     13  C   UNL     1       2.037   8.806  18.409  0.00  0.00    +0.000 C 
ATOM     14  O   UNL     1       1.991   9.376  17.320  0.00  0.00    +0.000 OA
ATOM     15  H   UNL     1       2.770   7.122  19.474  0.00  0.00    +0.000 HD
BRANCH  13  16
ATOM     16  C   UNL     1       1.200   9.273  19.550  0.00  0.00    +0.000 A 
ATOM     17  C   UNL     1       1.125   8.564  20.759  0.00  0.00    +0.000 A 
ATOM     18  C   UNL     1       0.344   9.054  21.813  0.00  0.00    +0.000 A 
ATOM     19  C   UNL     1      -0.357  10.250  21.661  0.00  0.00    +0.000 A 
ATOM     20 BR   UNL     1      -1.400  10.913  23.091  0.00  0.00    +0.000 Br
ATOM     21  C   UNL     1      -0.283  10.966  20.468  0.00  0.00    +0.000 A 
ATOM     22  C   UNL     1       0.500  10.481  19.416  0.00  0.00    +0.000 A 
ENDBRANCH  13  16
ENDBRANCH   3  12
TORSDOF 3
ENDMDL
MODEL 2
REMARK VINA RESULT:      -6.7      1.295      1.712
REMARK  Name = 
REMARK  5 active torsions:
REMARK  status: ('A' for Active; 'I' for Inactive)
REMARK    1  A    between atoms: C_1  and  C_2
REMARK    2  A    between atoms: C_4  and  C_5
REMARK    3  A    between atoms: C_6  and  C_7
REMARK    4  A    between atoms: N_9  and  N_10
REMARK    5  A    between atoms: C_11  and  C_13
REMARK                            x       y       z     vdW  Elec       q    Type
REMARK                         _______ _______ _______ _____ _____    ______ ____
ROOT
ATOM      1  C   UNL     1       3.745   6.051  18.357  0.00  0.00    +0.000 C 
ATOM      2  O   UNL     1       3.768   5.719  19.546  0.00  0.00    +0.000 OA
ATOM      3  N   UNL     1       2.926   7.095  17.958  0.00  0.00    +0.000 N 
ATOM      4  H   UNL     1       2.868   7.439  17.002  0.00  0.00    +0.000 HD
ENDROOT
BRANCH   1  10
ATOM      5  C   UNL     1       6.991   4.743  14.382  0.00  0.00    +0.000 C 
ATOM      6  C   UNL     1       6.021   4.767  15.512  0.00  0.00    +0.000 A 
ATOM      7  N   UNL     1       5.426   3.697  15.989  0.00  0.00    +0.000 NA
ATOM      8  C   UNL     1       4.578   4.043  17.028  0.00  0.00    +0.000 A 
ATOM      9  C   UNL     1       3.814   2.951  17.691  0.00  0.00    +0.000 C 
ATOM     10  C   UNL     1       4.539   5.398  17.332  0.00  0.00    +0.000 A 
ATOM     11  S   UNL     1       5.605   6.243  16.283  0.00  0.00    +0.000 S 
ENDBRANCH   1  10
BRANCH   3  12
ATOM     12  N   UNL     1       2.183   7.770  18.938  0.00  0.00    +0.000 N 
ATOM     13  C   UNL     1       1.648   9.004  18.641  0.00  0.00    +0.000 C 
ATOM     14  O   UNL     1       1.803   9.551  17.551  0.00  0.00    +0.000 OA
ATOM     15  H   UNL     1       1.940   7.226  19.765  0.00  0.00    +0.000 HD
BRANCH  13  16
ATOM     16  C   UNL     1       0.837   9.651  19.711  0.00  0.00    +0.000 A 
ATOM     17  C   UNL     1       0.642   9.052  20.965  0.00  0.00    +0.000 A 
ATOM     18  C   UNL     1      -0.107   9.709  21.948  0.00  0.00    +0.000 A 
ATOM     19  C   UNL     1      -0.657  10.962  21.682  0.00  0.00    +0.000 A 
ATOM     20 BR   UNL     1      -1.658  11.850  23.017  0.00  0.00    +0.000 Br
ATOM     21  C   UNL     1      -0.463  11.570  20.443  0.00  0.00    +0.000 A 
ATOM     22  C   UNL     1       0.289  10.918  19.461  0.00  0.00    +0.000 A 
ENDBRANCH  13  16
ENDBRANCH   3  12
TORSDOF 3
ENDMDL
MODEL 3
REMARK VINA RESULT:      -6.7      1.273      2.001
REMARK  Name = 
REMARK  5 active torsions:
REMARK  status: ('A' for Active; 'I' for Inactive)
REMARK    1  A    between atoms: C_1  and  C_2
REMARK    2  A    between atoms: C_4  and  C_5
REMARK    3  A    between atoms: C_6  and  C_7
REMARK    4  A    between atoms: N_9  and  N_10
REMARK    5  A    between atoms: C_11  and  C_13
REMARK                            x       y       z     vdW  Elec       q    Type
REMARK                         _______ _______ _______ _____ _____    ______ ____
ROOT
ATOM      1  C   UNL     1       3.808   6.046  18.327  0.00  0.00    +0.000 C 
ATOM      2  O   UNL     1       3.918   5.795  19.531  0.00  0.00    +0.000 OA
ATOM      3  N   UNL     1       2.910   7.019  17.914  0.00  0.00    +0.000 N 
ATOM      4  H   UNL     1       2.779   7.296  16.945  0.00  0.00    +0.000 HD
ENDROOT
BRANCH   1  10
ATOM      5  C   UNL     1       6.984   4.640  14.330  0.00  0.00    +0.000 C 
ATOM      6  C   UNL     1       6.025   4.693  15.468  0.00  0.00    +0.000 A 
ATOM      7  N   UNL     1       5.409   3.641  15.956  0.00  0.00    +0.000 NA
ATOM      8  C   UNL     1       4.579   4.012  17.001  0.00  0.00    +0.000 A 
ATOM      9  C   UNL     1       3.794   2.942  17.676  0.00  0.00    +0.000 C 
ATOM     10  C   UNL     1       4.576   5.369  17.299  0.00  0.00    +0.000 A 
ATOM     11  S   UNL     1       5.653   6.182  16.236  0.00  0.00    +0.000 S 
ENDBRANCH   1  10
BRANCH   3  12
ATOM     12  N   UNL     1       2.189   7.717  18.895  0.00  0.00    +0.000 N 
ATOM     13  C   UNL     1       1.718   8.979  18.606  0.00  0.00    +0.000 C 
ATOM     14  O   UNL     1       1.911   9.529  17.524  0.00  0.00    +0.000 OA
ATOM     15  H   UNL     1       1.912   7.177  19.713  0.00  0.00    +0.000 HD
BRANCH  13  16
ATOM     16  C   UNL     1       0.926   9.652  19.675  0.00  0.00    +0.000 A 
ATOM     17  C   UNL     1       0.397  10.941  19.512  0.00  0.00    +0.000 A 
ATOM     18  C   UNL     1      -0.361  11.523  20.535  0.00  0.00    +0.000 A 
ATOM     19  C   UNL     1      -0.593  10.818  21.716  0.00  0.00    +0.000 A 
ATOM     20 BR   UNL     1      -1.627  11.604  23.089  0.00  0.00    +0.000 Br
ATOM     21  C   UNL     1      -0.078   9.535  21.885  0.00  0.00    +0.000 A 
ATOM     22  C   UNL     1       0.675   8.949  20.863  0.00  0.00    +0.000 A 
ENDBRANCH  13  16
ENDBRANCH   3  12
TORSDOF 3
ENDMDL
MODEL 4
REMARK VINA RESULT:      -6.5      2.453      3.212
REMARK  Name = 
REMARK  5 active torsions:
REMARK  status: ('A' for Active; 'I' for Inactive)
REMARK    1  A    between atoms: C_1  and  C_2
REMARK    2  A    between atoms: C_4  and  C_5
REMARK    3  A    between atoms: C_6  and  C_7
REMARK    4  A    between atoms: N_9  and  N_10
REMARK    5  A    between atoms: C_11  and  C_13
REMARK                            x       y       z     vdW  Elec       q    Type
REMARK                         _______ _______ _______ _____ _____    ______ ____
ROOT
ATOM      1  C   UNL     1       2.185   5.810  19.973  0.00  0.00    +0.000 C 
ATOM      2  O   UNL     1       1.190   5.367  20.555  0.00  0.00    +0.000 OA
ATOM      3  N   UNL     1       2.463   7.166  20.037  0.00  0.00    +0.000 N 
ATOM      4  H   UNL     1       3.272   7.602  19.602  0.00  0.00    +0.000 HD
ENDROOT
BRANCH   1  10
ATOM      5  C   UNL     1       5.527   3.675  16.463  0.00  0.00    +0.000 C 
ATOM      6  C   UNL     1       4.632   3.972  17.615  0.00  0.00    +0.000 A 
ATOM      7  N   UNL     1       4.388   3.125  18.590  0.00  0.00    +0.000 NA
ATOM      8  C   UNL     1       3.514   3.686  19.506  0.00  0.00    +0.000 A 
ATOM      9  C   UNL     1       3.120   2.863  20.682  0.00  0.00    +0.000 C 
ATOM     10  C   UNL     1       3.097   4.978  19.209  0.00  0.00    +0.000 A 
ATOM     11  S   UNL     1       3.836   5.487  17.744  0.00  0.00    +0.000 S 
ENDBRANCH   1  10
BRANCH   3  12
ATOM     12  N   UNL     1       1.620   7.982  20.806  0.00  0.00    +0.000 N 
ATOM     13  C   UNL     1       1.045   9.089  20.221  0.00  0.00    +0.000 C 
ATOM     14  O   UNL     1       1.248   9.404  19.050  0.00  0.00    +0.000 OA
ATOM     15  H   UNL     1       1.348   7.610  21.714  0.00  0.00    +0.000 HD
BRANCH  13  16
ATOM     16  C   UNL     1       0.129   9.893  21.080  0.00  0.00    +0.000 A 
ATOM     17  C   UNL     1      -0.114   9.565  22.422  0.00  0.00    +0.000 A 
ATOM     18  C   UNL     1      -0.964  10.364  23.197  0.00  0.00    +0.000 A 
ATOM     19  C   UNL     1      -1.566  11.489  22.634  0.00  0.00    +0.000 A 
ATOM     20 BR   UNL     1      -2.703  12.570  23.688  0.00  0.00    +0.000 Br
ATOM     21  C   UNL     1      -1.325  11.827  21.304  0.00  0.00    +0.000 A 
ATOM     22  C   UNL     1      -0.473  11.034  20.529  0.00  0.00    +0.000 A 
ENDBRANCH  13  16
ENDBRANCH   3  12
TORSDOF 3
ENDMDL
MODEL 5
REMARK VINA RESULT:      -6.5      0.753      1.315
REMARK  Name = 
REMARK  5 active torsions:
REMARK  status: ('A' for Active; 'I' for Inactive)
REMARK    1  A    between atoms: C_1  and  C_2
REMARK    2  A    between atoms: C_4  and  C_5
REMARK    3  A    between atoms: C_6  and  C_7
REMARK    4  A    between atoms: N_9  and  N_10
REMARK    5  A    between atoms: C_11  and  C_13
REMARK                            x       y       z     vdW  Elec       q    Type
REMARK                         _______ _______ _______ _____ _____    ______ ____
ROOT
ATOM      1  C   UNL     1       4.794   5.900  17.913  0.00  0.00    +0.000 C 
ATOM      2  O   UNL     1       5.107   5.790  19.102  0.00  0.00    +0.000 OA
ATOM      3  N   UNL     1       3.646   6.598  17.574  0.00  0.00    +0.000 N 
ATOM      4  H   UNL     1       3.334   6.750  16.618  0.00  0.00    +0.000 HD
ENDROOT
BRANCH   1  10
ATOM      5  C   UNL     1       6.664   3.980  13.345  0.00  0.00    +0.000 C 
ATOM      6  C   UNL     1       6.457   4.441  14.746  0.00  0.00    +0.000 A 
ATOM      7  N   UNL     1       7.369   4.354  15.687  0.00  0.00    +0.000 NA
ATOM      8  C   UNL     1       6.877   4.856  16.881  0.00  0.00    +0.000 A 
ATOM      9  C   UNL     1       7.777   4.834  18.065  0.00  0.00    +0.000 C 
ATOM     10  C   UNL     1       5.571   5.329  16.828  0.00  0.00    +0.000 A 
ATOM     11  S   UNL     1       4.965   5.136  15.233  0.00  0.00    +0.000 S 
ENDBRANCH   1  10
BRANCH   3  12
ATOM     12  N   UNL     1       2.903   7.196  18.603  0.00  0.00    +0.000 N 
ATOM     13  C   UNL     1       2.238   8.376  18.349  0.00  0.00    +0.000 C 
ATOM     14  O   UNL     1       2.275   8.939  17.257  0.00  0.00    +0.000 OA
ATOM     15  H   UNL     1       2.763   6.630  19.438  0.00  0.00    +0.000 HD
BRANCH  13  16
ATOM     16  C   UNL     1       1.436   8.940  19.472  0.00  0.00    +0.000 A 
ATOM     17  C   UNL     1       0.601  10.055  19.306  0.00  0.00    +0.000 A 
ATOM     18  C   UNL     1      -0.152  10.535  20.384  0.00  0.00    +0.000 A 
ATOM     19  C   UNL     1      -0.075   9.900  21.624  0.00  0.00    +0.000 A 
ATOM     20 BR   UNL     1      -1.103  10.544  23.073  0.00  0.00    +0.000 Br
ATOM     21  C   UNL     1       0.745   8.787  21.798  0.00  0.00    +0.000 A 
ATOM     22  C   UNL     1       1.495   8.304  20.721  0.00  0.00    +0.000 A 
ENDBRANCH  13  16
ENDBRANCH   3  12
TORSDOF 3
ENDMDL
MODEL 6
REMARK VINA RESULT:      -6.4      1.833      2.764
REMARK  Name = 
REMARK  5 active torsions:
REMARK  status: ('A' for Active; 'I' for Inactive)
REMARK    1  A    between atoms: C_1  and  C_2
REMARK    2  A    between atoms: C_4  and  C_5
REMARK    3  A    between atoms: C_6  and  C_7
REMARK    4  A    between atoms: N_9  and  N_10
REMARK    5  A    between atoms: C_11  and  C_13
REMARK                            x       y       z     vdW  Elec       q    Type
REMARK                         _______ _______ _______ _____ _____    ______ ____
ROOT
ATOM      1  C   UNL     1       2.795   6.363  19.070  0.00  0.00    +0.000 C 
ATOM      2  O   UNL     1       2.364   5.923  20.140  0.00  0.00    +0.000 OA
ATOM      3  N   UNL     1       2.492   7.664  18.697  0.00  0.00    +0.000 N 
ATOM      4  H   UNL     1       2.826   8.103  17.844  0.00  0.00    +0.000 HD
ENDROOT
BRANCH   1  10
ATOM      5  C   UNL     1       6.545   4.377  15.901  0.00  0.00    +0.000 C 
ATOM      6  C   UNL     1       5.318   4.648  16.699  0.00  0.00    +0.000 A 
ATOM      7  N   UNL     1       4.263   3.864  16.709  0.00  0.00    +0.000 NA
ATOM      8  C   UNL     1       3.284   4.386  17.538  0.00  0.00    +0.000 A 
ATOM      9  C   UNL     1       2.010   3.628  17.669  0.00  0.00    +0.000 C 
ATOM     10  C   UNL     1       3.615   5.584  18.160  0.00  0.00    +0.000 A 
ATOM     11  S   UNL     1       5.200   6.047  17.686  0.00  0.00    +0.000 S 
ENDBRANCH   1  10
BRANCH   3  12
ATOM     12  N   UNL     1       1.738   8.449  19.582  0.00  0.00    +0.000 N 
ATOM     13  C   UNL     1       0.943   9.453  19.073  0.00  0.00    +0.000 C 
ATOM     14  O   UNL     1       0.873   9.701  17.871  0.00  0.00    +0.000 OA
ATOM     15  H   UNL     1       1.695   8.119  20.545  0.00  0.00    +0.000 HD
BRANCH  13  16
ATOM     16  C   UNL     1       0.137  10.226  20.061  0.00  0.00    +0.000 A 
ATOM     17  C   UNL     1      -0.725  11.262  19.672  0.00  0.00    +0.000 A 
ATOM     18  C   UNL     1      -1.481  11.944  20.633  0.00  0.00    +0.000 A 
ATOM     19  C   UNL     1      -1.379  11.590  21.978  0.00  0.00    +0.000 A 
ATOM     20 BR   UNL     1      -2.410  12.506  23.270  0.00  0.00    +0.000 Br
ATOM     21  C   UNL     1      -0.530  10.557  22.374  0.00  0.00    +0.000 A 
ATOM     22  C   UNL     1       0.222   9.872  21.415  0.00  0.00    +0.000 A 
ENDBRANCH  13  16
ENDBRANCH   3  12
TORSDOF 3
ENDMDL
MODEL 7
REMARK VINA RESULT:      -6.4      1.960      2.895
REMARK  Name = 
REMARK  5 active torsions:
REMARK  status: ('A' for Active; 'I' for Inactive)
REMARK    1  A    between atoms: C_1  and  C_2
REMARK    2  A    between atoms: C_4  and  C_5
REMARK    3  A    between atoms: C_6  and  C_7
REMARK    4  A    between atoms: N_9  and  N_10
REMARK    5  A    between atoms: C_11  and  C_13
REMARK                            x       y       z     vdW  Elec       q    Type
REMARK                         _______ _______ _______ _____ _____    ______ ____
ROOT
ATOM      1  C   UNL     1       2.920   7.406  18.008  0.00  0.00    +0.000 C 
ATOM      2  O   UNL     1       2.581   8.374  17.322  0.00  0.00    +0.000 OA
ATOM      3  N   UNL     1       2.603   7.383  19.357  0.00  0.00    +0.000 N 
ATOM      4  H   UNL     1       2.830   6.613  19.982  0.00  0.00    +0.000 HD
ENDROOT
BRANCH   1  10
ATOM      5  C   UNL     1       6.351   4.054  15.762  0.00  0.00    +0.000 C 
ATOM      6  C   UNL     1       5.203   4.705  16.451  0.00  0.00    +0.000 A 
ATOM      7  N   UNL     1       4.146   4.057  16.886  0.00  0.00    +0.000 NA
ATOM      8  C   UNL     1       3.251   4.936  17.472  0.00  0.00    +0.000 A 
ATOM      9  C   UNL     1       1.987   4.375  18.021  0.00  0.00    +0.000 C 
ATOM     10  C   UNL     1       3.648   6.268  17.476  0.00  0.00    +0.000 A 
ATOM     11  S   UNL     1       5.188   6.399  16.726  0.00  0.00    +0.000 S 
ENDBRANCH   1  10
BRANCH   3  12
ATOM     12  N   UNL     1       1.862   8.452  19.884  0.00  0.00    +0.000 N 
ATOM     13  C   UNL     1       1.030   8.223  20.958  0.00  0.00    +0.000 C 
ATOM     14  O   UNL     1       0.898   7.115  21.473  0.00  0.00    +0.000 OA
ATOM     15  H   UNL     1       2.112   9.378  19.541  0.00  0.00    +0.000 HD
BRANCH  13  16
ATOM     16  C   UNL     1       0.300   9.407  21.495  0.00  0.00    +0.000 A 
ATOM     17  C   UNL     1      -0.360   9.378  22.732  0.00  0.00    +0.000 A 
ATOM     18  C   UNL     1      -1.012  10.523  23.207  0.00  0.00    +0.000 A 
ATOM     19  C   UNL     1      -1.001  11.694  22.450  0.00  0.00    +0.000 A 
ATOM     20 BR   UNL     1      -1.873  13.239  23.101  0.00  0.00    +0.000 Br
ATOM     21  C   UNL     1      -0.342  11.735  21.223  0.00  0.00    +0.000 A 
ATOM     22  C   UNL     1       0.313  10.595  20.748  0.00  0.00    +0.000 A 
ENDBRANCH  13  16
ENDBRANCH   3  12
TORSDOF 3
ENDMDL
MODEL 8
REMARK VINA RESULT:      -6.4      4.248      8.570
REMARK  Name = 
REMARK  5 active torsions:
REMARK  status: ('A' for Active; 'I' for Inactive)
REMARK    1  A    between atoms: C_1  and  C_2
REMARK    2  A    between atoms: C_4  and  C_5
REMARK    3  A    between atoms: C_6  and  C_7
REMARK    4  A    between atoms: N_9  and  N_10
REMARK    5  A    between atoms: C_11  and  C_13
REMARK                            x       y       z     vdW  Elec       q    Type
REMARK                         _______ _______ _______ _____ _____    ______ ____
ROOT
ATOM      1  C   UNL     1       1.081   9.944  18.966  0.00  0.00    +0.000 C 
ATOM      2  O   UNL     1       1.554  10.484  17.962  0.00  0.00    +0.000 OA
ATOM      3  N   UNL     1       1.389   8.619  19.235  0.00  0.00    +0.000 N 
ATOM      4  H   UNL     1       1.055   8.113  20.051  0.00  0.00    +0.000 HD
ENDROOT
BRANCH   1  10
ATOM      5  C   UNL     1      -1.476  11.911  23.166  0.00  0.00    +0.000 C 
ATOM      6  C   UNL     1      -0.991  11.544  21.807  0.00  0.00    +0.000 A 
ATOM      7  N   UNL     1      -1.550  11.961  20.693  0.00  0.00    +0.000 NA
ATOM      8  C   UNL     1      -0.879  11.445  19.597  0.00  0.00    +0.000 A 
ATOM      9  C   UNL     1      -1.379  11.812  18.244  0.00  0.00    +0.000 C 
ATOM     10  C   UNL     1       0.202  10.627  19.898  0.00  0.00    +0.000 A 
ATOM     11  S   UNL     1       0.370  10.519  21.604  0.00  0.00    +0.000 S 
ENDBRANCH   1  10
BRANCH   3  12
ATOM     12  N   UNL     1       2.271   7.954  18.372  0.00  0.00    +0.000 N 
ATOM     13  C   UNL     1       2.731   6.702  18.720  0.00  0.00    +0.000 C 
ATOM     14  O   UNL     1       2.410   6.143  19.767  0.00  0.00    +0.000 OA
ATOM     15  H   UNL     1       2.390   8.370  17.450  0.00  0.00    +0.000 HD
BRANCH  13  16
ATOM     16  C   UNL     1       3.635   6.032  17.742  0.00  0.00    +0.000 A 
ATOM     17  C   UNL     1       3.631   4.642  17.554  0.00  0.00    +0.000 A 
ATOM     18  C   UNL     1       4.480   4.059  16.606  0.00  0.00    +0.000 A 
ATOM     19  C   UNL     1       5.329   4.863  15.846  0.00  0.00    +0.000 A 
ATOM     20 BR   UNL     1       6.466   4.072  14.560  0.00  0.00    +0.000 Br
ATOM     21  C   UNL     1       5.336   6.245  16.020  0.00  0.00    +0.000 A 
ATOM     22  C   UNL     1       4.485   6.830  16.963  0.00  0.00    +0.000 A 
ENDBRANCH  13  16
ENDBRANCH   3  12
TORSDOF 3
ENDMDL
MODEL 9
REMARK VINA RESULT:      -6.4      1.923      3.032
REMARK  Name = 
REMARK  5 active torsions:
REMARK  status: ('A' for Active; 'I' for Inactive)
REMARK    1  A    between atoms: C_1  and  C_2
REMARK    2  A    between atoms: C_4  and  C_5
REMARK    3  A    between atoms: C_6  and  C_7
REMARK    4  A    between atoms: N_9  and  N_10
REMARK    5  A    between atoms: C_11  and  C_13
REMARK                            x       y       z     vdW  Elec       q    Type
REMARK                         _______ _______ _______ _____ _____    ______ ____
ROOT
ATOM      1  C   UNL     1       2.929   7.464  17.980  0.00  0.00    +0.000 C 
ATOM      2  O   UNL     1       2.537   8.387  17.261  0.00  0.00    +0.000 OA
ATOM      3  N   UNL     1       2.607   7.468  19.329  0.00  0.00    +0.000 N 
ATOM      4  H   UNL     1       2.875   6.734  19.980  0.00  0.00    +0.000 HD
ENDROOT
BRANCH   1  10
ATOM      5  C   UNL     1       6.591   4.241  15.918  0.00  0.00    +0.000 C 
ATOM      6  C   UNL     1       5.386   4.850  16.548  0.00  0.00    +0.000 A 
ATOM      7  N   UNL     1       4.336   4.163  16.933  0.00  0.00    +0.000 NA
ATOM      8  C   UNL     1       3.380   5.008  17.472  0.00  0.00    +0.000 A 
ATOM      9  C   UNL     1       2.113   4.399  17.961  0.00  0.00    +0.000 C 
ATOM     10  C   UNL     1       3.725   6.354  17.489  0.00  0.00    +0.000 A 
ATOM     11  S   UNL     1       5.293   6.543  16.814  0.00  0.00    +0.000 S 
ENDBRANCH   1  10
BRANCH   3  12
ATOM     12  N   UNL     1       1.802   8.509  19.816  0.00  0.00    +0.000 N 
ATOM     13  C   UNL     1       0.989   8.271  20.903  0.00  0.00    +0.000 C 
ATOM     14  O   UNL     1       0.928   7.178  21.462  0.00  0.00    +0.000 OA
ATOM     15  H   UNL     1       1.993   9.434  19.436  0.00  0.00    +0.000 HD
BRANCH  13  16
ATOM     16  C   UNL     1       0.188   9.428  21.397  0.00  0.00    +0.000 A 
ATOM     17  C   UNL     1      -0.187  10.488  20.558  0.00  0.00    +0.000 A 
ATOM     18  C   UNL     1      -0.962  11.541  21.061  0.00  0.00    +0.000 A 
ATOM     19  C   UNL     1      -1.363  11.532  22.396  0.00  0.00    +0.000 A 
ATOM     20 BR   UNL     1      -2.417  12.950  23.066  0.00  0.00    +0.000 Br
ATOM     21  C   UNL     1      -1.002  10.481  23.236  0.00  0.00    +0.000 A 
ATOM     22  C   UNL     1      -0.233   9.426  22.735  0.00  0.00    +0.000 A 
ENDBRANCH  13  16
ENDBRANCH   3  12
TORSDOF 3
ENDMDL
