MODEL 1
REMARK VINA RESULT:      -7.5      0.000      0.000
REMARK  Name = 
REMARK  8 active torsions:
REMARK  status: ('A' for Active; 'I' for Inactive)
REMARK    1  A    between atoms: C_1  and  O_2
REMARK    2  A    between atoms: O_2  and  C_3
REMARK    3  A    between atoms: C_6  and  C_7
REMARK    4  A    between atoms: C_7  and  O_9
REMARK    5  A    between atoms: O_9  and  C_10
REMARK    6  A    between atoms: C_10  and  C_11
REMARK    7  A    between atoms: C_11  and  N_12
REMARK    8  A    between atoms: C_13  and  C_15
REMARK                            x       y       z     vdW  Elec       q    Type
REMARK                         _______ _______ _______ _____ _____    ______ ____
ROOT
ATOM      1  N   UNL     1       5.322   3.150  18.929  0.00  0.00    +0.000 N 
ATOM      2  C   UNL     1       5.552   4.508  18.868  0.00  0.00    +0.000 C 
ATOM      3  O   UNL     1       5.133   5.259  19.744  0.00  0.00    +0.000 OA
ATOM      4  H   UNL     1       5.743   2.538  18.238  0.00  0.00    +0.000 HD
ENDROOT
BRANCH   2   5
ATOM      5  C   UNL     1       6.298   4.972  17.725  0.00  0.00    +0.000 A 
ATOM      6  C   UNL     1       7.312   5.913  17.630  0.00  0.00    +0.000 A 
ATOM      7 CL   UNL     1       8.013   6.831  18.889  0.00  0.00    +0.000 Cl
ATOM      8  N   UNL     1       7.716   6.107  16.337  0.00  0.00    +0.000 NA
ATOM      9  C   UNL     1       6.966   5.308  15.617  0.00  0.00    +0.000 A 
ATOM     10  C   UNL     1       6.922   5.109  14.208  0.00  0.00    +0.000 A 
ATOM     11  C   UNL     1       6.081   4.198  13.683  0.00  0.00    +0.000 A 
ATOM     12  C   UNL     1       5.215   3.400  14.532  0.00  0.00    +0.000 A 
ATOM     13  C   UNL     1       5.234   3.598  15.863  0.00  0.00    +0.000 A 
ATOM     14  N   UNL     1       6.095   4.561  16.410  0.00  0.00    +0.000 N 
ENDBRANCH   2   5
BRANCH   1  15
ATOM     15  C   UNL     1       4.610   2.526  20.030  0.00  0.00    +0.000 C 
BRANCH  15  16
ATOM     16  C   UNL     1       3.437   1.665  19.556  0.00  0.00    +0.000 C 
BRANCH  16  17
ATOM     17  O   UNL     1       2.856   2.209  18.352  0.00  0.00    +0.000 OA
BRANCH  17  18
ATOM     18  C   UNL     1       1.627   2.753  18.518  0.00  0.00    +0.000 C 
ATOM     19  O   UNL     1       0.566   2.191  18.287  0.00  0.00    +0.000 OA
BRANCH  18  23
ATOM     20  C   UNL     1       1.920   6.851  19.766  0.00  0.00    +0.000 A 
ATOM     21  C   UNL     1       2.195   6.477  18.450  0.00  0.00    +0.000 A 
ATOM     22  C   UNL     1       2.075   5.142  18.059  0.00  0.00    +0.000 A 
ATOM     23  C   UNL     1       1.701   4.160  18.988  0.00  0.00    +0.000 A 
ATOM     24  C   UNL     1       1.438   4.534  20.309  0.00  0.00    +0.000 A 
ATOM     25  C   UNL     1       1.549   5.877  20.694  0.00  0.00    +0.000 A 
BRANCH  20  27
ATOM     26  C   UNL     1       1.376   8.663  21.178  0.00  0.00    +0.000 C 
ATOM     27  O   UNL     1       2.087   8.180  20.043  0.00  0.00    +0.000 OA
ENDBRANCH  20  27
ENDBRANCH  18  23
ENDBRANCH  17  18
ENDBRANCH  16  17
ENDBRANCH  15  16
ENDBRANCH   1  15
TORSDOF 7
ENDMDL
MODEL 2
REMARK VINA RESULT:      -7.5      0.454      1.039
REMARK  Name = 
REMARK  8 active torsions:
REMARK  status: ('A' for Active; 'I' for Inactive)
REMARK    1  A    between atoms: C_1  and  O_2
REMARK    2  A    between atoms: O_2  and  C_3
REMARK    3  A    between atoms: C_6  and  C_7
REMARK    4  A    between atoms: C_7  and  O_9
REMARK    5  A    between atoms: O_9  and  C_10
REMARK    6  A    between atoms: C_10  and  C_11
REMARK    7  A    between atoms: C_11  and  N_12
REMARK    8  A    between atoms: C_13  and  C_15
REMARK                            x       y       z     vdW  Elec       q    Type
REMARK                         _______ _______ _______ _____ _____    ______ ____
ROOT
ATOM      1  N   UNL     1       5.275   3.133  18.897  0.00  0.00    +0.000 N 
ATOM      2  C   UNL     1       5.530   4.487  18.862  0.00  0.00    +0.000 C 
ATOM      3  O   UNL     1       5.117   5.231  19.748  0.00  0.00    +0.000 OA
ATOM      4  H   UNL     1       5.691   2.526  18.199  0.00  0.00    +0.000 HD
ENDROOT
BRANCH   2   5
ATOM      5  C   UNL     1       6.294   4.957  17.733  0.00  0.00    +0.000 A 
ATOM      6  C   UNL     1       7.320   5.887  17.662  0.00  0.00    +0.000 A 
ATOM      7 CL   UNL     1       8.019   6.778  18.941  0.00  0.00    +0.000 Cl
ATOM      8  N   UNL     1       7.741   6.093  16.376  0.00  0.00    +0.000 NA
ATOM      9  C   UNL     1       6.989   5.314  15.637  0.00  0.00    +0.000 A 
ATOM     10  C   UNL     1       6.957   5.135  14.225  0.00  0.00    +0.000 A 
ATOM     11  C   UNL     1       6.111   4.242  13.679  0.00  0.00    +0.000 A 
ATOM     12  C   UNL     1       5.226   3.444  14.508  0.00  0.00    +0.000 A 
ATOM     13  C   UNL     1       5.234   3.623  15.842  0.00  0.00    +0.000 A 
ATOM     14  N   UNL     1       6.101   4.567  16.411  0.00  0.00    +0.000 N 
ENDBRANCH   2   5
BRANCH   1  15
ATOM     15  C   UNL     1       4.542   2.503  19.982  0.00  0.00    +0.000 C 
BRANCH  15  16
ATOM     16  C   UNL     1       3.399   1.619  19.479  0.00  0.00    +0.000 C 
BRANCH  16  17
ATOM     17  O   UNL     1       2.133   2.067  20.009  0.00  0.00    +0.000 OA
BRANCH  17  18
ATOM     18  C   UNL     1       1.365   2.749  19.126  0.00  0.00    +0.000 C 
ATOM     19  O   UNL     1       0.566   2.249  18.347  0.00  0.00    +0.000 OA
BRANCH  18  23
ATOM     20  C   UNL     1       2.050   6.980  19.388  0.00  0.00    +0.000 A 
ATOM     21  C   UNL     1       1.665   6.242  20.507  0.00  0.00    +0.000 A 
ATOM     22  C   UNL     1       1.467   4.863  20.406  0.00  0.00    +0.000 A 
ATOM     23  C   UNL     1       1.627   4.210  19.176  0.00  0.00    +0.000 A 
ATOM     24  C   UNL     1       2.001   4.953  18.052  0.00  0.00    +0.000 A 
ATOM     25  C   UNL     1       2.210   6.334  18.161  0.00  0.00    +0.000 A 
BRANCH  20  27
ATOM     26  C   UNL     1       1.204   8.930  20.413  0.00  0.00    +0.000 C 
ATOM     27  O   UNL     1       2.199   8.323  19.596  0.00  0.00    +0.000 OA
ENDBRANCH  20  27
ENDBRANCH  18  23
ENDBRANCH  17  18
ENDBRANCH  16  17
ENDBRANCH  15  16
ENDBRANCH   1  15
TORSDOF 7
ENDMDL
MODEL 3
REMARK VINA RESULT:      -7.2      1.723      2.505
REMARK  Name = 
REMARK  8 active torsions:
REMARK  status: ('A' for Active; 'I' for Inactive)
REMARK    1  A    between atoms: C_1  and  O_2
REMARK    2  A    between atoms: O_2  and  C_3
REMARK    3  A    between atoms: C_6  and  C_7
REMARK    4  A    between atoms: C_7  and  O_9
REMARK    5  A    between atoms: O_9  and  C_10
REMARK    6  A    between atoms: C_10  and  C_11
REMARK    7  A    between atoms: C_11  and  N_12
REMARK    8  A    between atoms: C_13  and  C_15
REMARK                            x       y       z     vdW  Elec       q    Type
REMARK                         _______ _______ _______ _____ _____    ______ ____
ROOT
ATOM      1  N   UNL     1       4.620   2.724  17.774  0.00  0.00    +0.000 N 
ATOM      2  C   UNL     1       4.392   3.600  16.734  0.00  0.00    +0.000 C 
ATOM      3  O   UNL     1       3.257   3.791  16.306  0.00  0.00    +0.000 OA
ATOM      4  H   UNL     1       5.552   2.640  18.164  0.00  0.00    +0.000 HD
ENDROOT
BRANCH   2   5
ATOM      5  C   UNL     1       5.557   4.256  16.194  0.00  0.00    +0.000 A 
ATOM      6  C   UNL     1       6.476   5.103  16.795  0.00  0.00    +0.000 A 
ATOM      7 CL   UNL     1       6.510   5.632  18.419  0.00  0.00    +0.000 Cl
ATOM      8  N   UNL     1       7.411   5.563  15.907  0.00  0.00    +0.000 NA
ATOM      9  C   UNL     1       7.088   5.024  14.756  0.00  0.00    +0.000 A 
ATOM     10  C   UNL     1       7.686   5.171  13.473  0.00  0.00    +0.000 A 
ATOM     11  C   UNL     1       7.199   4.485  12.421  0.00  0.00    +0.000 A 
ATOM     12  C   UNL     1       6.068   3.586  12.572  0.00  0.00    +0.000 A 
ATOM     13  C   UNL     1       5.483   3.460  13.777  0.00  0.00    +0.000 A 
ATOM     14  N   UNL     1       5.978   4.188  14.869  0.00  0.00    +0.000 N 
ENDBRANCH   2   5
BRANCH   1  15
ATOM     15  C   UNL     1       3.548   2.007  18.441  0.00  0.00    +0.000 C 
BRANCH  15  16
ATOM     16  C   UNL     1       2.985   2.777  19.637  0.00  0.00    +0.000 C 
BRANCH  16  17
ATOM     17  O   UNL     1       3.484   4.131  19.656  0.00  0.00    +0.000 OA
BRANCH  17  18
ATOM     18  C   UNL     1       2.722   5.000  20.361  0.00  0.00    +0.000 C 
ATOM     19  O   UNL     1       2.200   4.770  21.443  0.00  0.00    +0.000 OA
BRANCH  18  23
ATOM     20  C   UNL     1       2.109   8.762  18.381  0.00  0.00    +0.000 A 
ATOM     21  C   UNL     1       1.604   8.530  19.661  0.00  0.00    +0.000 A 
ATOM     22  C   UNL     1       1.831   7.307  20.296  0.00  0.00    +0.000 A 
ATOM     23  C   UNL     1       2.546   6.291  19.646  0.00  0.00    +0.000 A 
ATOM     24  C   UNL     1       3.042   6.520  18.359  0.00  0.00    +0.000 A 
ATOM     25  C   UNL     1       2.821   7.753  17.730  0.00  0.00    +0.000 A 
BRANCH  20  27
ATOM     26  C   UNL     1       1.240  10.924  18.752  0.00  0.00    +0.000 C 
ATOM     27  O   UNL     1       1.813   9.985  17.848  0.00  0.00    +0.000 OA
ENDBRANCH  20  27
ENDBRANCH  18  23
ENDBRANCH  17  18
ENDBRANCH  16  17
ENDBRANCH  15  16
ENDBRANCH   1  15
TORSDOF 7
ENDMDL
MODEL 4
REMARK VINA RESULT:      -7.0      4.103      6.307
REMARK  Name = 
REMARK  8 active torsions:
REMARK  status: ('A' for Active; 'I' for Inactive)
REMARK    1  A    between atoms: C_1  and  O_2
REMARK    2  A    between atoms: O_2  and  C_3
REMARK    3  A    between atoms: C_6  and  C_7
REMARK    4  A    between atoms: C_7  and  O_9
REMARK    5  A    between atoms: O_9  and  C_10
REMARK    6  A    between atoms: C_10  and  C_11
REMARK    7  A    between atoms: C_11  and  N_12
REMARK    8  A    between atoms: C_13  and  C_15
REMARK                            x       y       z     vdW  Elec       q    Type
REMARK                         _______ _______ _______ _____ _____    ______ ____
ROOT
ATOM      1  N   UNL     1       1.947   7.299  20.589  0.00  0.00    +0.000 N 
ATOM      2  C   UNL     1       2.237   7.301  19.241  0.00  0.00    +0.000 C 
ATOM      3  O   UNL     1       2.151   8.331  18.578  0.00  0.00    +0.000 OA
ATOM      4  H   UNL     1       2.101   6.458  21.134  0.00  0.00    +0.000 HD
ENDROOT
BRANCH   2   5
ATOM      5  C   UNL     1       2.633   6.035  18.678  0.00  0.00    +0.000 A 
ATOM      6  C   UNL     1       2.188   4.749  18.945  0.00  0.00    +0.000 A 
ATOM      7 CL   UNL     1       0.983   4.265  20.056  0.00  0.00    +0.000 Cl
ATOM      8  N   UNL     1       2.872   3.806  18.228  0.00  0.00    +0.000 NA
ATOM      9  C   UNL     1       3.747   4.479  17.519  0.00  0.00    +0.000 A 
ATOM     10  C   UNL     1       4.746   4.021  16.615  0.00  0.00    +0.000 A 
ATOM     11  C   UNL     1       5.522   4.908  15.964  0.00  0.00    +0.000 A 
ATOM     12  C   UNL     1       5.356   6.337  16.163  0.00  0.00    +0.000 A 
ATOM     13  C   UNL     1       4.429   6.777  17.033  0.00  0.00    +0.000 A 
ATOM     14  N   UNL     1       3.633   5.854  17.727  0.00  0.00    +0.000 N 
ENDBRANCH   2   5
BRANCH   1  15
ATOM     15  C   UNL     1       1.560   8.501  21.307  0.00  0.00    +0.000 C 
BRANCH  15  16
ATOM     16  C   UNL     1       0.069   8.813  21.164  0.00  0.00    +0.000 C 
BRANCH  16  17
ATOM     17  O   UNL     1      -0.164  10.236  21.213  0.00  0.00    +0.000 OA
BRANCH  17  18
ATOM     18  C   UNL     1       0.152  10.897  20.074  0.00  0.00    +0.000 C 
ATOM     19  O   UNL     1       1.210  11.472  19.857  0.00  0.00    +0.000 OA
BRANCH  18  23
ATOM     20  C   UNL     1      -2.998  10.798  17.157  0.00  0.00    +0.000 A 
ATOM     21  C   UNL     1      -1.887   9.961  17.047  0.00  0.00    +0.000 A 
ATOM     22  C   UNL     1      -0.883   9.994  18.017  0.00  0.00    +0.000 A 
ATOM     23  C   UNL     1      -0.966  10.884  19.097  0.00  0.00    +0.000 A 
ATOM     24  C   UNL     1      -2.074  11.731  19.199  0.00  0.00    +0.000 A 
ATOM     25  C   UNL     1      -3.085  11.687  18.229  0.00  0.00    +0.000 A 
BRANCH  20  27
ATOM     26  C   UNL     1      -3.387  10.272  14.889  0.00  0.00    +0.000 C 
ATOM     27  O   UNL     1      -3.910  10.695  16.144  0.00  0.00    +0.000 OA
ENDBRANCH  20  27
ENDBRANCH  18  23
ENDBRANCH  17  18
ENDBRANCH  16  17
ENDBRANCH  15  16
ENDBRANCH   1  15
TORSDOF 7
ENDMDL
MODEL 5
REMARK VINA RESULT:      -7.0      4.798      7.928
REMARK  Name = 
REMARK  8 active torsions:
REMARK  status: ('A' for Active; 'I' for Inactive)
REMARK    1  A    between atoms: C_1  and  O_2
REMARK    2  A    between atoms: O_2  and  C_3
REMARK    3  A    between atoms: C_6  and  C_7
REMARK    4  A    between atoms: C_7  and  O_9
REMARK    5  A    between atoms: O_9  and  C_10
REMARK    6  A    between atoms: C_10  and  C_11
REMARK    7  A    between atoms: C_11  and  N_12
REMARK    8  A    between atoms: C_13  and  C_15
REMARK                            x       y       z     vdW  Elec       q    Type
REMARK                         _______ _______ _______ _____ _____    ______ ____
ROOT
ATOM      1  N   UNL     1       6.216   5.836  19.324  0.00  0.00    +0.000 N 
ATOM      2  C   UNL     1       5.377   4.974  18.651  0.00  0.00    +0.000 C 
ATOM      3  O   UNL     1       5.820   4.172  17.833  0.00  0.00    +0.000 OA
ATOM      4  H   UNL     1       5.840   6.434  20.052  0.00  0.00    +0.000 HD
ENDROOT
BRANCH   2   5
ATOM      5  C   UNL     1       3.974   5.083  18.965  0.00  0.00    +0.000 A 
ATOM      6  C   UNL     1       3.051   6.066  18.645  0.00  0.00    +0.000 A 
ATOM      7 CL   UNL     1       3.308   7.492  17.739  0.00  0.00    +0.000 Cl
ATOM      8  N   UNL     1       1.821   5.818  19.191  0.00  0.00    +0.000 NA
ATOM      9  C   UNL     1       1.959   4.697  19.857  0.00  0.00    +0.000 A 
ATOM     10  C   UNL     1       1.022   3.975  20.648  0.00  0.00    +0.000 A 
ATOM     11  C   UNL     1       1.380   2.811  21.222  0.00  0.00    +0.000 A 
ATOM     12  C   UNL     1       2.715   2.267  21.044  0.00  0.00    +0.000 A 
ATOM     13  C   UNL     1       3.614   2.955  20.317  0.00  0.00    +0.000 A 
ATOM     14  N   UNL     1       3.249   4.178  19.734  0.00  0.00    +0.000 N 
ENDBRANCH   2   5
BRANCH   1  15
ATOM     15  C   UNL     1       7.656   5.830  19.137  0.00  0.00    +0.000 C 
BRANCH  15  16
ATOM     16  C   UNL     1       8.120   6.889  18.135  0.00  0.00    +0.000 C 
BRANCH  16  17
ATOM     17  O   UNL     1       8.676   8.033  18.817  0.00  0.00    +0.000 OA
BRANCH  17  18
ATOM     18  C   UNL     1       8.380   9.225  18.247  0.00  0.00    +0.000 C 
ATOM     19  O   UNL     1       7.479   9.423  17.444  0.00  0.00    +0.000 OA
BRANCH  18  23
ATOM     20  C   UNL     1      11.013  12.327  19.621  0.00  0.00    +0.000 A 
ATOM     21  C   UNL     1      10.232  11.595  20.516  0.00  0.00    +0.000 A 
ATOM     22  C   UNL     1       9.397  10.576  20.052  0.00  0.00    +0.000 A 
ATOM     23  C   UNL     1       9.314  10.295  18.681  0.00  0.00    +0.000 A 
ATOM     24  C   UNL     1      10.088  11.037  17.783  0.00  0.00    +0.000 A 
ATOM     25  C   UNL     1      10.933  12.051  18.255  0.00  0.00    +0.000 A 
BRANCH  20  27
ATOM     26  C   UNL     1      11.417  14.642  19.836  0.00  0.00    +0.000 C 
ATOM     27  O   UNL     1      11.779  13.310  20.183  0.00  0.00    +0.000 OA
ENDBRANCH  20  27
ENDBRANCH  18  23
ENDBRANCH  17  18
ENDBRANCH  16  17
ENDBRANCH  15  16
ENDBRANCH   1  15
TORSDOF 7
ENDMDL
MODEL 6
REMARK VINA RESULT:      -6.9      3.112      5.912
REMARK  Name = 
REMARK  8 active torsions:
REMARK  status: ('A' for Active; 'I' for Inactive)
REMARK    1  A    between atoms: C_1  and  O_2
REMARK    2  A    between atoms: O_2  and  C_3
REMARK    3  A    between atoms: C_6  and  C_7
REMARK    4  A    between atoms: C_7  and  O_9
REMARK    5  A    between atoms: O_9  and  C_10
REMARK    6  A    between atoms: C_10  and  C_11
REMARK    7  A    between atoms: C_11  and  N_12
REMARK    8  A    between atoms: C_13  and  C_15
REMARK                            x       y       z     vdW  Elec       q    Type
REMARK                         _______ _______ _______ _____ _____    ______ ____
ROOT
ATOM      1  N   UNL     1       3.137   7.408  18.303  0.00  0.00    +0.000 N 
ATOM      2  C   UNL     1       3.981   6.523  17.666  0.00  0.00    +0.000 C 
ATOM      3  O   UNL     1       4.488   6.803  16.583  0.00  0.00    +0.000 OA
ATOM      4  H   UNL     1       2.793   7.192  19.232  0.00  0.00    +0.000 HD
ENDROOT
BRANCH   2   5
ATOM      5  C   UNL     1       4.215   5.273  18.344  0.00  0.00    +0.000 A 
ATOM      6  C   UNL     1       5.349   4.789  18.980  0.00  0.00    +0.000 A 
ATOM      7 CL   UNL     1       6.860   5.565  19.165  0.00  0.00    +0.000 Cl
ATOM      8  N   UNL     1       5.173   3.516  19.451  0.00  0.00    +0.000 NA
ATOM      9  C   UNL     1       3.948   3.190  19.113  0.00  0.00    +0.000 A 
ATOM     10  C   UNL     1       3.232   1.976  19.313  0.00  0.00    +0.000 A 
ATOM     11  C   UNL     1       1.953   1.875  18.905  0.00  0.00    +0.000 A 
ATOM     12  C   UNL     1       1.280   2.991  18.264  0.00  0.00    +0.000 A 
ATOM     13  C   UNL     1       1.958   4.134  18.051  0.00  0.00    +0.000 A 
ATOM     14  N   UNL     1       3.296   4.234  18.458  0.00  0.00    +0.000 N 
ENDBRANCH   2   5
BRANCH   1  15
ATOM     15  C   UNL     1       2.825   8.719  17.760  0.00  0.00    +0.000 C 
BRANCH  15  16
ATOM     16  C   UNL     1       1.341   9.069  17.896  0.00  0.00    +0.000 C 
BRANCH  16  17
ATOM     17  O   UNL     1       1.131  10.000  18.978  0.00  0.00    +0.000 OA
BRANCH  17  18
ATOM     18  C   UNL     1       0.931   9.421  20.186  0.00  0.00    +0.000 C 
ATOM     19  O   UNL     1       1.414   8.359  20.552  0.00  0.00    +0.000 OA
BRANCH  18  23
ATOM     20  C   UNL     1      -1.752  11.606  22.730  0.00  0.00    +0.000 A 
ATOM     21  C   UNL     1      -1.045  10.501  23.206  0.00  0.00    +0.000 A 
ATOM     22  C   UNL     1      -0.163   9.816  22.369  0.00  0.00    +0.000 A 
ATOM     23  C   UNL     1       0.005  10.214  21.035  0.00  0.00    +0.000 A 
ATOM     24  C   UNL     1      -0.712  11.314  20.555  0.00  0.00    +0.000 A 
ATOM     25  C   UNL     1      -1.588  12.005  21.402  0.00  0.00    +0.000 A 
BRANCH  20  27
ATOM     26  C   UNL     1      -3.642  12.980  23.065  0.00  0.00    +0.000 C 
ATOM     27  O   UNL     1      -2.600  12.190  23.629  0.00  0.00    +0.000 OA
ENDBRANCH  20  27
ENDBRANCH  18  23
ENDBRANCH  17  18
ENDBRANCH  16  17
ENDBRANCH  15  16
ENDBRANCH   1  15
TORSDOF 7
ENDMDL
MODEL 7
REMARK VINA RESULT:      -6.9      4.217      6.569
REMARK  Name = 
REMARK  8 active torsions:
REMARK  status: ('A' for Active; 'I' for Inactive)
REMARK    1  A    between atoms: C_1  and  O_2
REMARK    2  A    between atoms: O_2  and  C_3
REMARK    3  A    between atoms: C_6  and  C_7
REMARK    4  A    between atoms: C_7  and  O_9
REMARK    5  A    between atoms: O_9  and  C_10
REMARK    6  A    between atoms: C_10  and  C_11
REMARK    7  A    between atoms: C_11  and  N_12
REMARK    8  A    between atoms: C_13  and  C_15
REMARK                            x       y       z     vdW  Elec       q    Type
REMARK                         _______ _______ _______ _____ _____    ______ ____
ROOT
ATOM      1  N   UNL     1       2.793   7.443  18.435  0.00  0.00    +0.000 N 
ATOM      2  C   UNL     1       3.723   6.703  17.735  0.00  0.00    +0.000 C 
ATOM      3  O   UNL     1       4.167   7.100  16.661  0.00  0.00    +0.000 OA
ATOM      4  H   UNL     1       2.499   7.136  19.356  0.00  0.00    +0.000 HD
ENDROOT
BRANCH   2   5
ATOM      5  C   UNL     1       4.124   5.458  18.339  0.00  0.00    +0.000 A 
ATOM      6  C   UNL     1       5.362   5.033  18.799  0.00  0.00    +0.000 A 
ATOM      7 CL   UNL     1       6.835   5.899  18.795  0.00  0.00    +0.000 Cl
ATOM      8  N   UNL     1       5.329   3.743  19.253  0.00  0.00    +0.000 NA
ATOM      9  C   UNL     1       4.092   3.347  19.079  0.00  0.00    +0.000 A 
ATOM     10  C   UNL     1       3.484   2.087  19.342  0.00  0.00    +0.000 A 
ATOM     11  C   UNL     1       2.168   1.913  19.112  0.00  0.00    +0.000 A 
ATOM     12  C   UNL     1       1.347   2.997  18.602  0.00  0.00    +0.000 A 
ATOM     13  C   UNL     1       1.919   4.184  18.329  0.00  0.00    +0.000 A 
ATOM     14  N   UNL     1       3.293   4.361  18.550  0.00  0.00    +0.000 N 
ENDBRANCH   2   5
BRANCH   1  15
ATOM     15  C   UNL     1       2.310   8.731  17.971  0.00  0.00    +0.000 C 
BRANCH  15  16
ATOM     16  C   UNL     1       1.231   9.315  18.886  0.00  0.00    +0.000 C 
BRANCH  16  17
ATOM     17  O   UNL     1       0.578  10.438  18.257  0.00  0.00    +0.000 OA
BRANCH  17  18
ATOM     18  C   UNL     1      -0.236  11.145  19.076  0.00  0.00    +0.000 C 
ATOM     19  O   UNL     1       0.123  11.774  20.062  0.00  0.00    +0.000 OA
BRANCH  18  23
ATOM     20  C   UNL     1      -4.387  10.938  17.996  0.00  0.00    +0.000 A 
ATOM     21  C   UNL     1      -3.915  11.928  18.858  0.00  0.00    +0.000 A 
ATOM     22  C   UNL     1      -2.558  11.990  19.182  0.00  0.00    +0.000 A 
ATOM     23  C   UNL     1      -1.659  11.046  18.665  0.00  0.00    +0.000 A 
ATOM     24  C   UNL     1      -2.135  10.048  17.809  0.00  0.00    +0.000 A 
ATOM     25  C   UNL     1      -3.496   9.996  17.479  0.00  0.00    +0.000 A 
BRANCH  20  27
ATOM     26  C   UNL     1      -6.549  10.506  18.836  0.00  0.00    +0.000 C 
ATOM     27  O   UNL     1      -5.734  10.960  17.761  0.00  0.00    +0.000 OA
ENDBRANCH  20  27
ENDBRANCH  18  23
ENDBRANCH  17  18
ENDBRANCH  16  17
ENDBRANCH  15  16
ENDBRANCH   1  15
TORSDOF 7
ENDMDL
MODEL 8
REMARK VINA RESULT:      -6.9      4.414      7.427
REMARK  Name = 
REMARK  8 active torsions:
REMARK  status: ('A' for Active; 'I' for Inactive)
REMARK    1  A    between atoms: C_1  and  O_2
REMARK    2  A    between atoms: O_2  and  C_3
REMARK    3  A    between atoms: C_6  and  C_7
REMARK    4  A    between atoms: C_7  and  O_9
REMARK    5  A    between atoms: O_9  and  C_10
REMARK    6  A    between atoms: C_10  and  C_11
REMARK    7  A    between atoms: C_11  and  N_12
REMARK    8  A    between atoms: C_13  and  C_15
REMARK                            x       y       z     vdW  Elec       q    Type
REMARK                         _______ _______ _______ _____ _____    ______ ____
ROOT
ATOM      1  N   UNL     1       4.453   6.239  17.554  0.00  0.00    +0.000 N 
ATOM      2  C   UNL     1       3.290   6.815  18.019  0.00  0.00    +0.000 C 
ATOM      3  O   UNL     1       2.966   7.949  17.675  0.00  0.00    +0.000 OA
ATOM      4  H   UNL     1       4.662   5.274  17.786  0.00  0.00    +0.000 HD
ENDROOT
BRANCH   2   5
ATOM      5  C   UNL     1       2.504   6.013  18.921  0.00  0.00    +0.000 A 
ATOM      6  C   UNL     1       1.864   6.349  20.105  0.00  0.00    +0.000 A 
ATOM      7 CL   UNL     1       1.808   7.876  20.870  0.00  0.00    +0.000 Cl
ATOM      8  N   UNL     1       1.268   5.268  20.695  0.00  0.00    +0.000 NA
ATOM      9  C   UNL     1       1.529   4.255  19.904  0.00  0.00    +0.000 A 
ATOM     10  C   UNL     1       1.188   2.879  20.028  0.00  0.00    +0.000 A 
ATOM     11  C   UNL     1       1.539   2.009  19.062  0.00  0.00    +0.000 A 
ATOM     12  C   UNL     1       2.261   2.450  17.882  0.00  0.00    +0.000 A 
ATOM     13  C   UNL     1       2.607   3.746  17.768  0.00  0.00    +0.000 A 
ATOM     14  N   UNL     1       2.259   4.650  18.782  0.00  0.00    +0.000 N 
ENDBRANCH   2   5
BRANCH   1  15
ATOM     15  C   UNL     1       5.338   6.909  16.618  0.00  0.00    +0.000 C 
BRANCH  15  16
ATOM     16  C   UNL     1       6.813   6.752  16.993  0.00  0.00    +0.000 C 
BRANCH  16  17
ATOM     17  O   UNL     1       7.461   8.039  17.074  0.00  0.00    +0.000 OA
BRANCH  17  18
ATOM     18  C   UNL     1       8.220   8.216  18.182  0.00  0.00    +0.000 C 
ATOM     19  O   UNL     1       8.546   7.336  18.966  0.00  0.00    +0.000 OA
BRANCH  18  23
ATOM     20  C   UNL     1       9.344  12.303  18.871  0.00  0.00    +0.000 A 
ATOM     21  C   UNL     1       9.762  11.286  19.730  0.00  0.00    +0.000 A 
ATOM     22  C   UNL     1       9.402   9.960  19.478  0.00  0.00    +0.000 A 
ATOM     23  C   UNL     1       8.598   9.640  18.374  0.00  0.00    +0.000 A 
ATOM     24  C   UNL     1       8.170  10.661  17.521  0.00  0.00    +0.000 A 
ATOM     25  C   UNL     1       8.543  11.989  17.772  0.00  0.00    +0.000 A 
BRANCH  20  27
ATOM     26  C   UNL     1      10.860  13.634  20.097  0.00  0.00    +0.000 C 
ATOM     27  O   UNL     1       9.739  13.564  19.223  0.00  0.00    +0.000 OA
ENDBRANCH  20  27
ENDBRANCH  18  23
ENDBRANCH  17  18
ENDBRANCH  16  17
ENDBRANCH  15  16
ENDBRANCH   1  15
TORSDOF 7
ENDMDL
MODEL 9
REMARK VINA RESULT:      -6.9      4.242      6.815
REMARK  Name = 
REMARK  8 active torsions:
REMARK  status: ('A' for Active; 'I' for Inactive)
REMARK    1  A    between atoms: C_1  and  O_2
REMARK    2  A    between atoms: O_2  and  C_3
REMARK    3  A    between atoms: C_6  and  C_7
REMARK    4  A    between atoms: C_7  and  O_9
REMARK    5  A    between atoms: O_9  and  C_10
REMARK    6  A    between atoms: C_10  and  C_11
REMARK    7  A    between atoms: C_11  and  N_12
REMARK    8  A    between atoms: C_13  and  C_15
REMARK                            x       y       z     vdW  Elec       q    Type
REMARK                         _______ _______ _______ _____ _____    ______ ____
ROOT
ATOM      1  N   UNL     1       2.344   7.177  17.872  0.00  0.00    +0.000 N 
ATOM      2  C   UNL     1       3.526   6.480  17.741  0.00  0.00    +0.000 C 
ATOM      3  O   UNL     1       4.578   7.063  17.490  0.00  0.00    +0.000 OA
ATOM      4  H   UNL     1       1.503   6.688  18.157  0.00  0.00    +0.000 HD
ENDROOT
BRANCH   2   5
ATOM      5  C   UNL     1       3.440   5.051  17.910  0.00  0.00    +0.000 A 
ATOM      6  C   UNL     1       4.010   4.019  17.180  0.00  0.00    +0.000 A 
ATOM      7 CL   UNL     1       5.032   4.140  15.817  0.00  0.00    +0.000 Cl
ATOM      8  N   UNL     1       3.626   2.789  17.639  0.00  0.00    +0.000 NA
ATOM      9  C   UNL     1       2.817   3.031  18.642  0.00  0.00    +0.000 A 
ATOM     10  C   UNL     1       2.093   2.135  19.477  0.00  0.00    +0.000 A 
ATOM     11  C   UNL     1       1.336   2.614  20.483  0.00  0.00    +0.000 A 
ATOM     12  C   UNL     1       1.247   4.040  20.739  0.00  0.00    +0.000 A 
ATOM     13  C   UNL     1       1.910   4.896  19.939  0.00  0.00    +0.000 A 
ATOM     14  N   UNL     1       2.683   4.399  18.880  0.00  0.00    +0.000 N 
ENDBRANCH   2   5
BRANCH   1  15
ATOM     15  C   UNL     1       2.272   8.623  17.757  0.00  0.00    +0.000 C 
BRANCH  15  16
ATOM     16  C   UNL     1       1.574   9.271  18.954  0.00  0.00    +0.000 C 
BRANCH  16  17
ATOM     17  O   UNL     1       0.940  10.509  18.570  0.00  0.00    +0.000 OA
BRANCH  17  18
ATOM     18  C   UNL     1      -0.046  10.918  19.404  0.00  0.00    +0.000 C 
ATOM     19  O   UNL     1       0.101  11.224  20.579  0.00  0.00    +0.000 OA
BRANCH  18  23
ATOM     20  C   UNL     1      -3.936  10.984  17.586  0.00  0.00    +0.000 A 
ATOM     21  C   UNL     1      -3.630  11.814  18.665  0.00  0.00    +0.000 A 
ATOM     22  C   UNL     1      -2.353  11.792  19.230  0.00  0.00    +0.000 A 
ATOM     23  C   UNL     1      -1.373  10.919  18.736  0.00  0.00    +0.000 A 
ATOM     24  C   UNL     1      -1.684  10.079  17.663  0.00  0.00    +0.000 A 
ATOM     25  C   UNL     1      -2.963  10.113  17.092  0.00  0.00    +0.000 A 
BRANCH  20  27
ATOM     26  C   UNL     1      -6.226  11.175  18.126  0.00  0.00    +0.000 C 
ATOM     27  O   UNL     1      -5.219  11.075  17.124  0.00  0.00    +0.000 OA
ENDBRANCH  20  27
ENDBRANCH  18  23
ENDBRANCH  17  18
ENDBRANCH  16  17
ENDBRANCH  15  16
ENDBRANCH   1  15
TORSDOF 7
ENDMDL
