MODEL 1
REMARK VINA RESULT:      -7.8      0.000      0.000
REMARK  Name = 
REMARK  6 active torsions:
REMARK  status: ('A' for Active; 'I' for Inactive)
REMARK    1  A    between atoms: C_1  and  C_2
REMARK    2  A    between atoms: C_4  and  C_5
REMARK    3  A    between atoms: C_9  and  C_10
REMARK    4  A    between atoms: C_10  and  S_12
REMARK    5  A    between atoms: S_12  and  C_13
REMARK    6  A    between atoms: C_17  and  C_18
REMARK                            x       y       z     vdW  Elec       q    Type
REMARK                         _______ _______ _______ _____ _____    ______ ____
ROOT
ATOM      1  C   UNL     1       5.474   5.093  18.947  0.00  0.00    +0.000 C 
ATOM      2  O   UNL     1       6.196   5.070  19.939  0.00  0.00    +0.000 OA
ENDROOT
BRANCH   1   7
ATOM      3  C   UNL     1       6.497   4.174  13.870  0.00  0.00    +0.000 C 
ATOM      4  C   UNL     1       6.418   4.768  15.233  0.00  0.00    +0.000 A 
ATOM      5  N   UNL     1       7.029   5.870  15.597  0.00  0.00    +0.000 NA
ATOM      6  C   UNL     1       6.802   6.148  16.956  0.00  0.00    +0.000 A 
ATOM      7  C   UNL     1       5.963   5.234  17.587  0.00  0.00    +0.000 A 
ATOM      8  S   UNL     1       5.504   4.006  16.457  0.00  0.00    +0.000 S 
BRANCH   6   9
ATOM      9  C   UNL     1       7.518   7.317  17.575  0.00  0.00    +0.000 C 
ATOM     10  F   UNL     1       6.671   8.289  18.007  0.00  0.00    +0.000 F 
ATOM     11  F   UNL     1       8.265   6.959  18.650  0.00  0.00    +0.000 F 
ATOM     12  F   UNL     1       8.359   7.910  16.685  0.00  0.00    +0.000 F 
ENDBRANCH   6   9
ENDBRANCH   1   7
BRANCH   1  13
ATOM     13  S   UNL     1       3.755   4.760  19.104  0.00  0.00    +0.000 S 
BRANCH  13  14
ATOM     14  C   UNL     1       2.983   6.370  19.070  0.00  0.00    +0.000 A 
ATOM     15  C   UNL     1       3.094   7.115  17.889  0.00  0.00    +0.000 A 
ATOM     16  C   UNL     1       2.483   8.365  17.765  0.00  0.00    +0.000 A 
ATOM     17  C   UNL     1       1.748   8.890  18.825  0.00  0.00    +0.000 A 
ATOM     18  C   UNL     1       1.615   8.164  20.016  0.00  0.00    +0.000 A 
ATOM     19  C   UNL     1       2.227   6.900  20.123  0.00  0.00    +0.000 A 
BRANCH  18  20
ATOM     20  C   UNL     1       0.823   8.715  21.179  0.00  0.00    +0.000 C 
ATOM     21  F   UNL     1       0.306   9.955  20.946  0.00  0.00    +0.000 F 
ATOM     22  F   UNL     1      -0.236   7.927  21.510  0.00  0.00    +0.000 F 
ATOM     23  F   UNL     1       1.573   8.832  22.308  0.00  0.00    +0.000 F 
ENDBRANCH  18  20
ENDBRANCH  13  14
ENDBRANCH   1  13
TORSDOF 5
ENDMDL
MODEL 2
REMARK VINA RESULT:      -7.8      0.272      1.111
REMARK  Name = 
REMARK  6 active torsions:
REMARK  status: ('A' for Active; 'I' for Inactive)
REMARK    1  A    between atoms: C_1  and  C_2
REMARK    2  A    between atoms: C_4  and  C_5
REMARK    3  A    between atoms: C_9  and  C_10
REMARK    4  A    between atoms: C_10  and  S_12
REMARK    5  A    between atoms: S_12  and  C_13
REMARK    6  A    between atoms: C_17  and  C_18
REMARK                            x       y       z     vdW  Elec       q    Type
REMARK                         _______ _______ _______ _____ _____    ______ ____
ROOT
ATOM      1  C   UNL     1       5.223   5.286  18.793  0.00  0.00    +0.000 C 
ATOM      2  O   UNL     1       5.858   5.313  19.842  0.00  0.00    +0.000 OA
ENDROOT
BRANCH   1   7
ATOM      3  C   UNL     1       6.572   4.135  13.840  0.00  0.00    +0.000 C 
ATOM      4  C   UNL     1       6.431   4.776  15.177  0.00  0.00    +0.000 A 
ATOM      5  N   UNL     1       7.092   5.841  15.562  0.00  0.00    +0.000 NA
ATOM      6  C   UNL     1       6.781   6.178  16.890  0.00  0.00    +0.000 A 
ATOM      7  C   UNL     1       5.827   5.348  17.474  0.00  0.00    +0.000 A 
ATOM      8  S   UNL     1       5.368   4.123  16.342  0.00  0.00    +0.000 S 
BRANCH   6   9
ATOM      9  C   UNL     1       7.532   7.310  17.536  0.00  0.00    +0.000 C 
ATOM     10  F   UNL     1       8.440   7.886  16.702  0.00  0.00    +0.000 F 
ATOM     11  F   UNL     1       6.712   8.307  17.953  0.00  0.00    +0.000 F 
ATOM     12  F   UNL     1       8.228   6.884  18.624  0.00  0.00    +0.000 F 
ENDBRANCH   6   9
ENDBRANCH   1   7
BRANCH   1  13
ATOM     13  S   UNL     1       3.493   4.976  18.820  0.00  0.00    +0.000 S 
BRANCH  13  14
ATOM     14  C   UNL     1       2.750   6.596  18.941  0.00  0.00    +0.000 A 
ATOM     15  C   UNL     1       2.815   7.422  17.811  0.00  0.00    +0.000 A 
ATOM     16  C   UNL     1       2.221   8.686  17.808  0.00  0.00    +0.000 A 
ATOM     17  C   UNL     1       1.551   9.145  18.939  0.00  0.00    +0.000 A 
ATOM     18  C   UNL     1       1.465   8.337  20.081  0.00  0.00    +0.000 A 
ATOM     19  C   UNL     1       2.058   7.060  20.066  0.00  0.00    +0.000 A 
BRANCH  18  20
ATOM     20  C   UNL     1       0.743   8.815  21.320  0.00  0.00    +0.000 C 
ATOM     21  F   UNL     1      -0.439   8.173  21.541  0.00  0.00    +0.000 F 
ATOM     22  F   UNL     1       1.478   8.642  22.452  0.00  0.00    +0.000 F 
ATOM     23  F   UNL     1       0.441  10.141  21.265  0.00  0.00    +0.000 F 
ENDBRANCH  18  20
ENDBRANCH  13  14
ENDBRANCH   1  13
TORSDOF 5
ENDMDL
MODEL 3
REMARK VINA RESULT:      -7.6      1.498      2.240
REMARK  Name = 
REMARK  6 active torsions:
REMARK  status: ('A' for Active; 'I' for Inactive)
REMARK    1  A    between atoms: C_1  and  C_2
REMARK    2  A    between atoms: C_4  and  C_5
REMARK    3  A    between atoms: C_9  and  C_10
REMARK    4  A    between atoms: C_10  and  S_12
REMARK    5  A    between atoms: S_12  and  C_13
REMARK    6  A    between atoms: C_17  and  C_18
REMARK                            x       y       z     vdW  Elec       q    Type
REMARK                         _______ _______ _______ _____ _____    ______ ____
ROOT
ATOM      1  C   UNL     1       5.280   4.284  18.150  0.00  0.00    +0.000 C 
ATOM      2  O   UNL     1       5.857   4.044  19.206  0.00  0.00    +0.000 OA
ENDROOT
BRANCH   1   7
ATOM      3  C   UNL     1       7.101   4.365  13.215  0.00  0.00    +0.000 C 
ATOM      4  C   UNL     1       6.781   4.693  14.632  0.00  0.00    +0.000 A 
ATOM      5  N   UNL     1       7.251   5.734  15.277  0.00  0.00    +0.000 NA
ATOM      6  C   UNL     1       6.808   5.746  16.610  0.00  0.00    +0.000 A 
ATOM      7  C   UNL     1       5.952   4.695  16.930  0.00  0.00    +0.000 A 
ATOM      8  S   UNL     1       5.753   3.680  15.544  0.00  0.00    +0.000 S 
BRANCH   6   9
ATOM      9  C   UNL     1       7.341   6.810  17.531  0.00  0.00    +0.000 C 
ATOM     10  F   UNL     1       8.060   6.301  18.567  0.00  0.00    +0.000 F 
ATOM     11  F   UNL     1       8.158   7.685  16.894  0.00  0.00    +0.000 F 
ATOM     12  F   UNL     1       6.332   7.535  18.084  0.00  0.00    +0.000 F 
ENDBRANCH   6   9
ENDBRANCH   1   7
BRANCH   1  13
ATOM     13  S   UNL     1       3.560   3.956  17.994  0.00  0.00    +0.000 S 
BRANCH  13  14
ATOM     14  C   UNL     1       2.767   5.311  18.845  0.00  0.00    +0.000 A 
ATOM     15  C   UNL     1       2.352   5.090  20.165  0.00  0.00    +0.000 A 
ATOM     16  C   UNL     1       1.763   6.111  20.915  0.00  0.00    +0.000 A 
ATOM     17  C   UNL     1       1.579   7.372  20.353  0.00  0.00    +0.000 A 
ATOM     18  C   UNL     1       1.990   7.623  19.038  0.00  0.00    +0.000 A 
ATOM     19  C   UNL     1       2.594   6.588  18.297  0.00  0.00    +0.000 A 
BRANCH  18  20
ATOM     20  C   UNL     1       1.800   8.983  18.408  0.00  0.00    +0.000 C 
ATOM     21  F   UNL     1       2.905   9.438  17.752  0.00  0.00    +0.000 F 
ATOM     22  F   UNL     1       0.792   9.000  17.494  0.00  0.00    +0.000 F 
ATOM     23  F   UNL     1       1.493   9.941  19.326  0.00  0.00    +0.000 F 
ENDBRANCH  18  20
ENDBRANCH  13  14
ENDBRANCH   1  13
TORSDOF 5
ENDMDL
MODEL 4
REMARK VINA RESULT:      -7.5      4.146      7.839
REMARK  Name = 
REMARK  6 active torsions:
REMARK  status: ('A' for Active; 'I' for Inactive)
REMARK    1  A    between atoms: C_1  and  C_2
REMARK    2  A    between atoms: C_4  and  C_5
REMARK    3  A    between atoms: C_9  and  C_10
REMARK    4  A    between atoms: C_10  and  S_12
REMARK    5  A    between atoms: S_12  and  C_13
REMARK    6  A    between atoms: C_17  and  C_18
REMARK                            x       y       z     vdW  Elec       q    Type
REMARK                         _______ _______ _______ _____ _____    ______ ____
ROOT
ATOM      1  C   UNL     1       2.889   3.663  17.632  0.00  0.00    +0.000 C 
ATOM      2  O   UNL     1       2.167   3.293  16.711  0.00  0.00    +0.000 OA
ENDROOT
BRANCH   1   7
ATOM      3  C   UNL     1       1.756   7.891  20.549  0.00  0.00    +0.000 C 
ATOM      4  C   UNL     1       1.937   6.501  20.047  0.00  0.00    +0.000 A 
ATOM      5  N   UNL     1       1.705   5.420  20.754  0.00  0.00    +0.000 NA
ATOM      6  C   UNL     1       2.013   4.261  20.023  0.00  0.00    +0.000 A 
ATOM      7  C   UNL     1       2.446   4.511  18.723  0.00  0.00    +0.000 A 
ATOM      8  S   UNL     1       2.496   6.221  18.458  0.00  0.00    +0.000 S 
BRANCH   6   9
ATOM      9  C   UNL     1       1.914   2.930  20.717  0.00  0.00    +0.000 C 
ATOM     10  F   UNL     1       3.128   2.414  21.048  0.00  0.00    +0.000 F 
ATOM     11  F   UNL     1       1.203   2.999  21.871  0.00  0.00    +0.000 F 
ATOM     12  F   UNL     1       1.306   2.005  19.928  0.00  0.00    +0.000 F 
ENDBRANCH   6   9
ENDBRANCH   1   7
BRANCH   1  13
ATOM     13  S   UNL     1       4.516   3.016  17.787  0.00  0.00    +0.000 S 
BRANCH  13  14
ATOM     14  C   UNL     1       5.425   3.762  16.444  0.00  0.00    +0.000 A 
ATOM     15  C   UNL     1       6.369   4.745  16.769  0.00  0.00    +0.000 A 
ATOM     16  C   UNL     1       7.152   5.347  15.782  0.00  0.00    +0.000 A 
ATOM     17  C   UNL     1       7.002   4.974  14.449  0.00  0.00    +0.000 A 
ATOM     18  C   UNL     1       6.071   3.989  14.095  0.00  0.00    +0.000 A 
ATOM     19  C   UNL     1       5.296   3.382  15.102  0.00  0.00    +0.000 A 
BRANCH  18  20
ATOM     20  C   UNL     1       5.891   3.569  12.654  0.00  0.00    +0.000 C 
ATOM     21  F   UNL     1       6.092   2.237  12.447  0.00  0.00    +0.000 F 
ATOM     22  F   UNL     1       4.641   3.833  12.185  0.00  0.00    +0.000 F 
ATOM     23  F   UNL     1       6.752   4.209  11.816  0.00  0.00    +0.000 F 
ENDBRANCH  18  20
ENDBRANCH  13  14
ENDBRANCH   1  13
TORSDOF 5
ENDMDL
MODEL 5
REMARK VINA RESULT:      -7.5      4.147      7.827
REMARK  Name = 
REMARK  6 active torsions:
REMARK  status: ('A' for Active; 'I' for Inactive)
REMARK    1  A    between atoms: C_1  and  C_2
REMARK    2  A    between atoms: C_4  and  C_5
REMARK    3  A    between atoms: C_9  and  C_10
REMARK    4  A    between atoms: C_10  and  S_12
REMARK    5  A    between atoms: S_12  and  C_13
REMARK    6  A    between atoms: C_17  and  C_18
REMARK                            x       y       z     vdW  Elec       q    Type
REMARK                         _______ _______ _______ _____ _____    ______ ____
ROOT
ATOM      1  C   UNL     1       2.837   3.715  17.644  0.00  0.00    +0.000 C 
ATOM      2  O   UNL     1       2.118   3.386  16.706  0.00  0.00    +0.000 OA
ENDROOT
BRANCH   1   7
ATOM      3  C   UNL     1       1.724   7.892  20.641  0.00  0.00    +0.000 C 
ATOM      4  C   UNL     1       1.900   6.511  20.113  0.00  0.00    +0.000 A 
ATOM      5  N   UNL     1       1.671   5.419  20.803  0.00  0.00    +0.000 NA
ATOM      6  C   UNL     1       1.975   4.272  20.050  0.00  0.00    +0.000 A 
ATOM      7  C   UNL     1       2.400   4.545  18.752  0.00  0.00    +0.000 A 
ATOM      8  S   UNL     1       2.451   6.258  18.517  0.00  0.00    +0.000 S 
BRANCH   6   9
ATOM      9  C   UNL     1       1.879   2.930  20.722  0.00  0.00    +0.000 C 
ATOM     10  F   UNL     1       0.977   2.911  21.740  0.00  0.00    +0.000 F 
ATOM     11  F   UNL     1       1.506   1.946  19.865  0.00  0.00    +0.000 F 
ATOM     12  F   UNL     1       3.072   2.560  21.260  0.00  0.00    +0.000 F 
ENDBRANCH   6   9
ENDBRANCH   1   7
BRANCH   1  13
ATOM     13  S   UNL     1       4.447   3.028  17.800  0.00  0.00    +0.000 S 
BRANCH  13  14
ATOM     14  C   UNL     1       5.382   3.772  16.474  0.00  0.00    +0.000 A 
ATOM     15  C   UNL     1       6.328   4.746  16.818  0.00  0.00    +0.000 A 
ATOM     16  C   UNL     1       7.131   5.346  15.844  0.00  0.00    +0.000 A 
ATOM     17  C   UNL     1       7.000   4.978  14.508  0.00  0.00    +0.000 A 
ATOM     18  C   UNL     1       6.067   4.002  14.136  0.00  0.00    +0.000 A 
ATOM     19  C   UNL     1       5.272   3.397  15.129  0.00  0.00    +0.000 A 
BRANCH  18  20
ATOM     20  C   UNL     1       5.907   3.588  12.692  0.00  0.00    +0.000 C 
ATOM     21  F   UNL     1       6.737   4.254  11.840  0.00  0.00    +0.000 F 
ATOM     22  F   UNL     1       6.158   2.264  12.496  0.00  0.00    +0.000 F 
ATOM     23  F   UNL     1       4.646   3.805  12.226  0.00  0.00    +0.000 F 
ENDBRANCH  18  20
ENDBRANCH  13  14
ENDBRANCH   1  13
TORSDOF 5
ENDMDL
MODEL 6
REMARK VINA RESULT:      -7.5      3.951      7.805
REMARK  Name = 
REMARK  6 active torsions:
REMARK  status: ('A' for Active; 'I' for Inactive)
REMARK    1  A    between atoms: C_1  and  C_2
REMARK    2  A    between atoms: C_4  and  C_5
REMARK    3  A    between atoms: C_9  and  C_10
REMARK    4  A    between atoms: C_10  and  S_12
REMARK    5  A    between atoms: S_12  and  C_13
REMARK    6  A    between atoms: C_17  and  C_18
REMARK                            x       y       z     vdW  Elec       q    Type
REMARK                         _______ _______ _______ _____ _____    ______ ____
ROOT
ATOM      1  C   UNL     1       4.485   3.789  18.931  0.00  0.00    +0.000 C 
ATOM      2  O   UNL     1       5.637   3.720  19.350  0.00  0.00    +0.000 OA
ENDROOT
BRANCH   1   7
ATOM      3  C   UNL     1       1.507   7.815  20.543  0.00  0.00    +0.000 C 
ATOM      4  C   UNL     1       2.080   6.462  20.294  0.00  0.00    +0.000 A 
ATOM      5  N   UNL     1       1.621   5.354  20.825  0.00  0.00    +0.000 NA
ATOM      6  C   UNL     1       2.399   4.249  20.439  0.00  0.00    +0.000 A 
ATOM      7  C   UNL     1       3.434   4.565  19.564  0.00  0.00    +0.000 A 
ATOM      8  S   UNL     1       3.434   6.271  19.273  0.00  0.00    +0.000 S 
BRANCH   6   9
ATOM      9  C   UNL     1       2.085   2.908  21.045  0.00  0.00    +0.000 C 
ATOM     10  F   UNL     1       1.781   1.965  20.114  0.00  0.00    +0.000 F 
ATOM     11  F   UNL     1       3.119   2.410  21.768  0.00  0.00    +0.000 F 
ATOM     12  F   UNL     1       1.014   2.981  21.880  0.00  0.00    +0.000 F 
ENDBRANCH   6   9
ENDBRANCH   1   7
BRANCH   1  13
ATOM     13  S   UNL     1       4.070   3.073  17.381  0.00  0.00    +0.000 S 
BRANCH  13  14
ATOM     14  C   UNL     1       5.194   3.834  16.221  0.00  0.00    +0.000 A 
ATOM     15  C   UNL     1       6.072   4.808  16.715  0.00  0.00    +0.000 A 
ATOM     16  C   UNL     1       7.012   5.420  15.883  0.00  0.00    +0.000 A 
ATOM     17  C   UNL     1       7.088   5.066  14.538  0.00  0.00    +0.000 A 
ATOM     18  C   UNL     1       6.227   4.091  14.018  0.00  0.00    +0.000 A 
ATOM     19  C   UNL     1       5.293   3.474  14.871  0.00  0.00    +0.000 A 
BRANCH  18  20
ATOM     20  C   UNL     1       6.292   3.692  12.562  0.00  0.00    +0.000 C 
ATOM     21  F   UNL     1       7.179   4.430  11.835  0.00  0.00    +0.000 F 
ATOM     22  F   UNL     1       6.662   2.393  12.392  0.00  0.00    +0.000 F 
ATOM     23  F   UNL     1       5.093   3.828  11.933  0.00  0.00    +0.000 F 
ENDBRANCH  18  20
ENDBRANCH  13  14
ENDBRANCH   1  13
TORSDOF 5
ENDMDL
MODEL 7
REMARK VINA RESULT:      -7.3      1.069      1.346
REMARK  Name = 
REMARK  6 active torsions:
REMARK  status: ('A' for Active; 'I' for Inactive)
REMARK    1  A    between atoms: C_1  and  C_2
REMARK    2  A    between atoms: C_4  and  C_5
REMARK    3  A    between atoms: C_9  and  C_10
REMARK    4  A    between atoms: C_10  and  S_12
REMARK    5  A    between atoms: S_12  and  C_13
REMARK    6  A    between atoms: C_17  and  C_18
REMARK                            x       y       z     vdW  Elec       q    Type
REMARK                         _______ _______ _______ _____ _____    ______ ____
ROOT
ATOM      1  C   UNL     1       4.877   3.981  18.866  0.00  0.00    +0.000 C 
ATOM      2  O   UNL     1       5.302   3.420  19.871  0.00  0.00    +0.000 OA
ENDROOT
BRANCH   1   7
ATOM      3  C   UNL     1       6.908   4.740  14.073  0.00  0.00    +0.000 C 
ATOM      4  C   UNL     1       6.632   4.772  15.536  0.00  0.00    +0.000 A 
ATOM      5  N   UNL     1       7.381   5.389  16.419  0.00  0.00    +0.000 NA
ATOM      6  C   UNL     1       6.890   5.198  17.721  0.00  0.00    +0.000 A 
ATOM      7  C   UNL     1       5.717   4.449  17.778  0.00  0.00    +0.000 A 
ATOM      8  S   UNL     1       5.275   3.960  16.179  0.00  0.00    +0.000 S 
BRANCH   6   9
ATOM      9  C   UNL     1       7.690   5.741  18.874  0.00  0.00    +0.000 C 
ATOM     10  F   UNL     1       8.233   6.960  18.613  0.00  0.00    +0.000 F 
ATOM     11  F   UNL     1       6.946   5.888  19.998  0.00  0.00    +0.000 F 
ATOM     12  F   UNL     1       8.728   4.919  19.186  0.00  0.00    +0.000 F 
ENDBRANCH   6   9
ENDBRANCH   1   7
BRANCH   1  13
ATOM     13  S   UNL     1       3.146   4.095  18.589  0.00  0.00    +0.000 S 
BRANCH  13  14
ATOM     14  C   UNL     1       2.777   5.833  18.764  0.00  0.00    +0.000 A 
ATOM     15  C   UNL     1       3.160   6.683  17.717  0.00  0.00    +0.000 A 
ATOM     16  C   UNL     1       2.870   8.049  17.757  0.00  0.00    +0.000 A 
ATOM     17  C   UNL     1       2.191   8.587  18.847  0.00  0.00    +0.000 A 
ATOM     18  C   UNL     1       1.791   7.760  19.904  0.00  0.00    +0.000 A 
ATOM     19  C   UNL     1       2.080   6.383  19.846  0.00  0.00    +0.000 A 
BRANCH  18  20
ATOM     20  C   UNL     1       1.055   8.323  21.097  0.00  0.00    +0.000 C 
ATOM     21  F   UNL     1       0.557   9.575  20.888  0.00  0.00    +0.000 F 
ATOM     22  F   UNL     1      -0.009   7.557  21.464  0.00  0.00    +0.000 F 
ATOM     23  F   UNL     1       1.848   8.419  22.199  0.00  0.00    +0.000 F 
ENDBRANCH  18  20
ENDBRANCH  13  14
ENDBRANCH   1  13
TORSDOF 5
ENDMDL
MODEL 8
REMARK VINA RESULT:      -7.1      3.469      6.814
REMARK  Name = 
REMARK  6 active torsions:
REMARK  status: ('A' for Active; 'I' for Inactive)
REMARK    1  A    between atoms: C_1  and  C_2
REMARK    2  A    between atoms: C_4  and  C_5
REMARK    3  A    between atoms: C_9  and  C_10
REMARK    4  A    between atoms: C_10  and  S_12
REMARK    5  A    between atoms: S_12  and  C_13
REMARK    6  A    between atoms: C_17  and  C_18
REMARK                            x       y       z     vdW  Elec       q    Type
REMARK                         _______ _______ _______ _____ _____    ______ ____
ROOT
ATOM      1  C   UNL     1       2.270   3.771  17.745  0.00  0.00    +0.000 C 
ATOM      2  O   UNL     1       1.458   3.653  16.833  0.00  0.00    +0.000 OA
ENDROOT
BRANCH   1   7
ATOM      3  C   UNL     1       1.760   7.837  21.043  0.00  0.00    +0.000 C 
ATOM      4  C   UNL     1       1.817   6.476  20.441  0.00  0.00    +0.000 A 
ATOM      5  N   UNL     1       1.684   5.360  21.117  0.00  0.00    +0.000 NA
ATOM      6  C   UNL     1       1.833   4.241  20.281  0.00  0.00    +0.000 A 
ATOM      7  C   UNL     1       2.042   4.561  18.942  0.00  0.00    +0.000 A 
ATOM      8  S   UNL     1       2.088   6.282  18.767  0.00  0.00    +0.000 S 
BRANCH   6   9
ATOM      9  C   UNL     1       1.822   2.874  20.908  0.00  0.00    +0.000 C 
ATOM     10  F   UNL     1       3.051   2.477  21.334  0.00  0.00    +0.000 F 
ATOM     11  F   UNL     1       1.005   2.805  21.989  0.00  0.00    +0.000 F 
ATOM     12  F   UNL     1       1.398   1.929  20.027  0.00  0.00    +0.000 F 
ENDBRANCH   6   9
ENDBRANCH   1   7
BRANCH   1  13
ATOM     13  S   UNL     1       3.741   2.809  17.741  0.00  0.00    +0.000 S 
BRANCH  13  14
ATOM     14  C   UNL     1       5.042   3.981  17.394  0.00  0.00    +0.000 A 
ATOM     15  C   UNL     1       5.108   4.508  16.097  0.00  0.00    +0.000 A 
ATOM     16  C   UNL     1       6.069   5.463  15.756  0.00  0.00    +0.000 A 
ATOM     17  C   UNL     1       6.981   5.906  16.709  0.00  0.00    +0.000 A 
ATOM     18  C   UNL     1       6.935   5.401  18.015  0.00  0.00    +0.000 A 
ATOM     19  C   UNL     1       5.954   4.447  18.349  0.00  0.00    +0.000 A 
BRANCH  18  20
ATOM     20  C   UNL     1       7.916   5.867  19.066  0.00  0.00    +0.000 C 
ATOM     21  F   UNL     1       8.489   7.071  18.779  0.00  0.00    +0.000 F 
ATOM     22  F   UNL     1       7.341   6.012  20.291  0.00  0.00    +0.000 F 
ATOM     23  F   UNL     1       8.949   4.996  19.234  0.00  0.00    +0.000 F 
ENDBRANCH  18  20
ENDBRANCH  13  14
ENDBRANCH   1  13
TORSDOF 5
ENDMDL
MODEL 9
REMARK VINA RESULT:      -7.1      2.582      3.548
REMARK  Name = 
REMARK  6 active torsions:
REMARK  status: ('A' for Active; 'I' for Inactive)
REMARK    1  A    between atoms: C_1  and  C_2
REMARK    2  A    between atoms: C_4  and  C_5
REMARK    3  A    between atoms: C_9  and  C_10
REMARK    4  A    between atoms: C_10  and  S_12
REMARK    5  A    between atoms: S_12  and  C_13
REMARK    6  A    between atoms: C_17  and  C_18
REMARK                            x       y       z     vdW  Elec       q    Type
REMARK                         _______ _______ _______ _____ _____    ______ ____
ROOT
ATOM      1  C   UNL     1       4.924   3.960  17.504  0.00  0.00    +0.000 C 
ATOM      2  O   UNL     1       4.116   3.532  16.686  0.00  0.00    +0.000 OA
ENDROOT
BRANCH   1   7
ATOM      3  C   UNL     1       8.156   8.085  17.963  0.00  0.00    +0.000 C 
ATOM      4  C   UNL     1       7.401   6.902  17.465  0.00  0.00    +0.000 A 
ATOM      5  N   UNL     1       7.475   6.437  16.240  0.00  0.00    +0.000 NA
ATOM      6  C   UNL     1       6.611   5.343  16.062  0.00  0.00    +0.000 A 
ATOM      7  C   UNL     1       5.917   4.978  17.212  0.00  0.00    +0.000 A 
ATOM      8  S   UNL     1       6.338   6.056  18.498  0.00  0.00    +0.000 S 
BRANCH   6   9
ATOM      9  C   UNL     1       6.482   4.753  14.684  0.00  0.00    +0.000 C 
ATOM     10  F   UNL     1       7.413   5.228  13.814  0.00  0.00    +0.000 F 
ATOM     11  F   UNL     1       6.615   3.403  14.683  0.00  0.00    +0.000 F 
ATOM     12  F   UNL     1       5.269   5.035  14.137  0.00  0.00    +0.000 F 
ENDBRANCH   6   9
ENDBRANCH   1   7
BRANCH   1  13
ATOM     13  S   UNL     1       4.805   3.479  19.190  0.00  0.00    +0.000 S 
BRANCH  13  14
ATOM     14  C   UNL     1       3.221   4.107  19.724  0.00  0.00    +0.000 A 
ATOM     15  C   UNL     1       2.201   3.175  19.957  0.00  0.00    +0.000 A 
ATOM     16  C   UNL     1       0.947   3.580  20.418  0.00  0.00    +0.000 A 
ATOM     17  C   UNL     1       0.692   4.928  20.653  0.00  0.00    +0.000 A 
ATOM     18  C   UNL     1       1.694   5.882  20.434  0.00  0.00    +0.000 A 
ATOM     19  C   UNL     1       2.959   5.458  19.981  0.00  0.00    +0.000 A 
BRANCH  18  20
ATOM     20  C   UNL     1       1.439   7.351  20.682  0.00  0.00    +0.000 C 
ATOM     21  F   UNL     1       2.248   7.889  21.639  0.00  0.00    +0.000 F 
ATOM     22  F   UNL     1       1.627   8.109  19.568  0.00  0.00    +0.000 F 
ATOM     23  F   UNL     1       0.165   7.594  21.094  0.00  0.00    +0.000 F 
ENDBRANCH  18  20
ENDBRANCH  13  14
ENDBRANCH   1  13
TORSDOF 5
ENDMDL
