MODEL 1
REMARK VINA RESULT:      -5.9      0.000      0.000
REMARK  Name = 
REMARK  5 active torsions:
REMARK  status: ('A' for Active; 'I' for Inactive)
REMARK    1  A    between atoms: C_2  and  C_3
REMARK    2  A    between atoms: C_3  and  N_4
REMARK    3  A    between atoms: N_4  and  C_5
REMARK    4  A    between atoms: C_8  and  N_9
REMARK    5  A    between atoms: C_13  and  C_14
REMARK                            x       y       z     vdW  Elec       q    Type
REMARK                         _______ _______ _______ _____ _____    ______ ____
ROOT
ATOM      1  C   UNL     1       3.209   5.034  18.177  0.00  0.00    +0.000 A 
ATOM      2  C   UNL     1       3.699   6.321  17.884  0.00  0.00    +0.000 A 
ATOM      3  C   UNL     1       4.948   6.520  17.288  0.00  0.00    +0.000 A 
ATOM      4  C   UNL     1       5.754   5.419  16.997  0.00  0.00    +0.000 A 
ATOM      5  C   UNL     1       5.321   4.127  17.306  0.00  0.00    +0.000 A 
ATOM      6  C   UNL     1       4.061   3.935  17.901  0.00  0.00    +0.000 A 
ENDROOT
BRANCH   4   7
ATOM      7  N   UNL     1       7.065   5.626  16.369  0.00  0.00    +0.000 N 
ATOM      8  O   UNL     1       7.568   6.755  16.447  0.00  0.00    +0.000 OA
ATOM      9  O   UNL     1       7.583   4.659  15.793  0.00  0.00    +0.000 OA
ENDBRANCH   4   7
BRANCH   1  10
ATOM     10  N   UNL     1       1.981   4.862  18.840  0.00  0.00    +0.000 N 
ATOM     11  H   UNL     1       1.167   5.159  18.299  0.00  0.00    +0.000 HD
BRANCH  10  12
ATOM     12  C   UNL     1       1.876   5.272  20.246  0.00  0.00    +0.000 C 
BRANCH  12  14
ATOM     13  N   UNL     1       2.202   3.128  21.989  0.00  0.00    +0.000 NA
ATOM     14  C   UNL     1       2.054   4.100  21.199  0.00  0.00    +0.000 C 
ENDBRANCH  12  14
ENDBRANCH  10  12
ENDBRANCH   1  10
BRANCH   6  15
ATOM     15  C   UNL     1       3.656   2.585  18.182  0.00  0.00    +0.000 C 
ATOM     16  N   UNL     1       3.330   1.503  18.438  0.00  0.00    +0.000 NA
ENDBRANCH   6  15
TORSDOF 5
ENDMDL
MODEL 2
REMARK VINA RESULT:      -5.8      3.279      5.294
REMARK  Name = 
REMARK  5 active torsions:
REMARK  status: ('A' for Active; 'I' for Inactive)
REMARK    1  A    between atoms: C_2  and  C_3
REMARK    2  A    between atoms: C_3  and  N_4
REMARK    3  A    between atoms: N_4  and  C_5
REMARK    4  A    between atoms: C_8  and  N_9
REMARK    5  A    between atoms: C_13  and  C_14
REMARK                            x       y       z     vdW  Elec       q    Type
REMARK                         _______ _______ _______ _____ _____    ______ ____
ROOT
ATOM      1  C   UNL     1       5.819   4.171  18.169  0.00  0.00    +0.000 A 
ATOM      2  C   UNL     1       5.028   4.189  19.334  0.00  0.00    +0.000 A 
ATOM      3  C   UNL     1       3.643   4.000  19.293  0.00  0.00    +0.000 A 
ATOM      4  C   UNL     1       3.011   3.817  18.063  0.00  0.00    +0.000 A 
ATOM      5  C   UNL     1       3.754   3.831  16.879  0.00  0.00    +0.000 A 
ATOM      6  C   UNL     1       5.147   4.016  16.931  0.00  0.00    +0.000 A 
ENDROOT
BRANCH   4   7
ATOM      7  N   UNL     1       1.557   3.616  18.017  0.00  0.00    +0.000 N 
ATOM      8  O   UNL     1       1.066   2.791  18.800  0.00  0.00    +0.000 OA
ATOM      9  O   UNL     1       0.913   4.280  17.193  0.00  0.00    +0.000 OA
ENDBRANCH   4   7
BRANCH   1  10
ATOM     10  N   UNL     1       7.199   4.433  18.229  0.00  0.00    +0.000 N 
ATOM     11  H   UNL     1       7.764   3.637  18.530  0.00  0.00    +0.000 HD
BRANCH  10  12
ATOM     12  C   UNL     1       7.653   5.685  18.848  0.00  0.00    +0.000 C 
BRANCH  12  14
ATOM     13  N   UNL     1       7.475   7.842  17.100  0.00  0.00    +0.000 NA
ATOM     14  C   UNL     1       7.556   6.864  17.892  0.00  0.00    +0.000 C 
ENDBRANCH  12  14
ENDBRANCH  10  12
ENDBRANCH   1  10
BRANCH   6  15
ATOM     15  C   UNL     1       5.866   4.003  15.686  0.00  0.00    +0.000 C 
ATOM     16  N   UNL     1       6.426   3.972  14.672  0.00  0.00    +0.000 NA
ENDBRANCH   6  15
TORSDOF 5
ENDMDL
MODEL 3
REMARK VINA RESULT:      -5.8      3.417      5.756
REMARK  Name = 
REMARK  5 active torsions:
REMARK  status: ('A' for Active; 'I' for Inactive)
REMARK    1  A    between atoms: C_2  and  C_3
REMARK    2  A    between atoms: C_3  and  N_4
REMARK    3  A    between atoms: N_4  and  C_5
REMARK    4  A    between atoms: C_8  and  N_9
REMARK    5  A    between atoms: C_13  and  C_14
REMARK                            x       y       z     vdW  Elec       q    Type
REMARK                         _______ _______ _______ _____ _____    ______ ____
ROOT
ATOM      1  C   UNL     1       4.867   4.147  17.623  0.00  0.00    +0.000 A 
ATOM      2  C   UNL     1       3.560   3.752  17.277  0.00  0.00    +0.000 A 
ATOM      3  C   UNL     1       2.464   4.013  18.104  0.00  0.00    +0.000 A 
ATOM      4  C   UNL     1       2.661   4.656  19.325  0.00  0.00    +0.000 A 
ATOM      5  C   UNL     1       3.948   5.032  19.725  0.00  0.00    +0.000 A 
ATOM      6  C   UNL     1       5.044   4.771  18.884  0.00  0.00    +0.000 A 
ENDROOT
BRANCH   4   7
ATOM      7  N   UNL     1       1.511   4.933  20.195  0.00  0.00    +0.000 N 
ATOM      8  O   UNL     1       1.499   6.011  20.806  0.00  0.00    +0.000 OA
ATOM      9  O   UNL     1       0.627   4.069  20.269  0.00  0.00    +0.000 OA
ENDBRANCH   4   7
BRANCH   1  10
ATOM     10  N   UNL     1       5.963   3.812  16.809  0.00  0.00    +0.000 N 
ATOM     11  H   UNL     1       6.856   4.190  17.132  0.00  0.00    +0.000 HD
BRANCH  10  12
ATOM     12  C   UNL     1       5.821   3.928  15.352  0.00  0.00    +0.000 C 
BRANCH  12  14
ATOM     13  N   UNL     1       7.820   5.503  14.228  0.00  0.00    +0.000 NA
ATOM     14  C   UNL     1       6.914   4.789  14.738  0.00  0.00    +0.000 C 
ENDBRANCH  12  14
ENDBRANCH  10  12
ENDBRANCH   1  10
BRANCH   6  15
ATOM     15  C   UNL     1       6.342   5.193  19.333  0.00  0.00    +0.000 C 
ATOM     16  N   UNL     1       7.389   5.511  19.718  0.00  0.00    +0.000 NA
ENDBRANCH   6  15
TORSDOF 5
ENDMDL
MODEL 4
REMARK VINA RESULT:      -5.8      1.936      2.842
REMARK  Name = 
REMARK  5 active torsions:
REMARK  status: ('A' for Active; 'I' for Inactive)
REMARK    1  A    between atoms: C_2  and  C_3
REMARK    2  A    between atoms: C_3  and  N_4
REMARK    3  A    between atoms: N_4  and  C_5
REMARK    4  A    between atoms: C_8  and  N_9
REMARK    5  A    between atoms: C_13  and  C_14
REMARK                            x       y       z     vdW  Elec       q    Type
REMARK                         _______ _______ _______ _____ _____    ______ ____
ROOT
ATOM      1  C   UNL     1       4.965   4.540  18.314  0.00  0.00    +0.000 A 
ATOM      2  C   UNL     1       4.257   4.258  17.130  0.00  0.00    +0.000 A 
ATOM      3  C   UNL     1       4.873   4.284  15.875  0.00  0.00    +0.000 A 
ATOM      4  C   UNL     1       6.221   4.628  15.778  0.00  0.00    +0.000 A 
ATOM      5  C   UNL     1       6.951   4.952  16.925  0.00  0.00    +0.000 A 
ATOM      6  C   UNL     1       6.325   4.918  18.184  0.00  0.00    +0.000 A 
ENDROOT
BRANCH   4   7
ATOM      7  N   UNL     1       6.871   4.653  14.461  0.00  0.00    +0.000 N 
ATOM      8  O   UNL     1       6.457   3.863  13.601  0.00  0.00    +0.000 OA
ATOM      9  O   UNL     1       7.796   5.459  14.294  0.00  0.00    +0.000 OA
ENDBRANCH   4   7
BRANCH   1  10
ATOM     10  N   UNL     1       4.309   4.577  19.557  0.00  0.00    +0.000 N 
ATOM     11  H   UNL     1       4.805   4.092  20.308  0.00  0.00    +0.000 HD
BRANCH  10  12
ATOM     12  C   UNL     1       2.866   4.308  19.601  0.00  0.00    +0.000 C 
BRANCH  12  14
ATOM     13  N   UNL     1       2.092   3.135  22.001  0.00  0.00    +0.000 NA
ATOM     14  C   UNL     1       2.443   3.667  20.913  0.00  0.00    +0.000 C 
ENDBRANCH  12  14
ENDBRANCH  10  12
ENDBRANCH   1  10
BRANCH   6  15
ATOM     15  C   UNL     1       7.125   5.242  19.333  0.00  0.00    +0.000 C 
ATOM     16  N   UNL     1       7.787   5.522  20.243  0.00  0.00    +0.000 NA
ENDBRANCH   6  15
TORSDOF 5
ENDMDL
MODEL 5
REMARK VINA RESULT:      -5.8      0.674      1.003
REMARK  Name = 
REMARK  5 active torsions:
REMARK  status: ('A' for Active; 'I' for Inactive)
REMARK    1  A    between atoms: C_2  and  C_3
REMARK    2  A    between atoms: C_3  and  N_4
REMARK    3  A    between atoms: N_4  and  C_5
REMARK    4  A    between atoms: C_8  and  N_9
REMARK    5  A    between atoms: C_13  and  C_14
REMARK                            x       y       z     vdW  Elec       q    Type
REMARK                         _______ _______ _______ _____ _____    ______ ____
ROOT
ATOM      1  C   UNL     1       3.250   4.903  17.984  0.00  0.00    +0.000 A 
ATOM      2  C   UNL     1       3.688   6.152  17.504  0.00  0.00    +0.000 A 
ATOM      3  C   UNL     1       4.800   6.275  16.665  0.00  0.00    +0.000 A 
ATOM      4  C   UNL     1       5.523   5.136  16.311  0.00  0.00    +0.000 A 
ATOM      5  C   UNL     1       5.144   3.881  16.796  0.00  0.00    +0.000 A 
ATOM      6  C   UNL     1       4.021   3.766  17.635  0.00  0.00    +0.000 A 
ENDROOT
BRANCH   4   7
ATOM      7  N   UNL     1       6.689   5.262  15.428  0.00  0.00    +0.000 N 
ATOM      8  O   UNL     1       6.742   4.521  14.437  0.00  0.00    +0.000 OA
ATOM      9  O   UNL     1       7.551   6.097  15.733  0.00  0.00    +0.000 OA
ENDBRANCH   4   7
BRANCH   1  10
ATOM     10  N   UNL     1       2.172   4.812  18.883  0.00  0.00    +0.000 N 
ATOM     11  H   UNL     1       1.288   5.168  18.514  0.00  0.00    +0.000 HD
BRANCH  10  12
ATOM     12  C   UNL     1       2.380   5.220  20.278  0.00  0.00    +0.000 C 
BRANCH  12  14
ATOM     13  N   UNL     1       2.122   3.084  22.042  0.00  0.00    +0.000 NA
ATOM     14  C   UNL     1       2.239   4.053  21.242  0.00  0.00    +0.000 C 
ENDBRANCH  12  14
ENDBRANCH  10  12
ENDBRANCH   1  10
BRANCH   6  15
ATOM     15  C   UNL     1       3.664   2.451  18.092  0.00  0.00    +0.000 C 
ATOM     16  N   UNL     1       3.365   1.384  18.433  0.00  0.00    +0.000 NA
ENDBRANCH   6  15
TORSDOF 5
ENDMDL
MODEL 6
REMARK VINA RESULT:      -5.8      1.214      1.426
REMARK  Name = 
REMARK  5 active torsions:
REMARK  status: ('A' for Active; 'I' for Inactive)
REMARK    1  A    between atoms: C_2  and  C_3
REMARK    2  A    between atoms: C_3  and  N_4
REMARK    3  A    between atoms: N_4  and  C_5
REMARK    4  A    between atoms: C_8  and  N_9
REMARK    5  A    between atoms: C_13  and  C_14
REMARK                            x       y       z     vdW  Elec       q    Type
REMARK                         _______ _______ _______ _____ _____    ______ ____
ROOT
ATOM      1  C   UNL     1       3.452   4.773  18.517  0.00  0.00    +0.000 A 
ATOM      2  C   UNL     1       3.531   6.000  17.830  0.00  0.00    +0.000 A 
ATOM      3  C   UNL     1       4.757   6.578  17.488  0.00  0.00    +0.000 A 
ATOM      4  C   UNL     1       5.944   5.946  17.858  0.00  0.00    +0.000 A 
ATOM      5  C   UNL     1       5.909   4.746  18.575  0.00  0.00    +0.000 A 
ATOM      6  C   UNL     1       4.671   4.168  18.910  0.00  0.00    +0.000 A 
ENDROOT
BRANCH   4   7
ATOM      7  N   UNL     1       7.232   6.550  17.498  0.00  0.00    +0.000 N 
ATOM      8  O   UNL     1       7.540   6.574  16.298  0.00  0.00    +0.000 OA
ATOM      9  O   UNL     1       7.935   6.993  18.417  0.00  0.00    +0.000 OA
ENDBRANCH   4   7
BRANCH   1  10
ATOM     10  N   UNL     1       2.209   4.246  18.913  0.00  0.00    +0.000 N 
ATOM     11  H   UNL     1       1.507   4.224  18.170  0.00  0.00    +0.000 HD
BRANCH  10  12
ATOM     12  C   UNL     1       1.632   4.683  20.190  0.00  0.00    +0.000 C 
BRANCH  12  14
ATOM     13  N   UNL     1       1.614   2.645  22.083  0.00  0.00    +0.000 NA
ATOM     14  C   UNL     1       1.622   3.569  21.225  0.00  0.00    +0.000 C 
ENDBRANCH  12  14
ENDBRANCH  10  12
ENDBRANCH   1  10
BRANCH   6  15
ATOM     15  C   UNL     1       4.692   2.925  19.632  0.00  0.00    +0.000 C 
ATOM     16  N   UNL     1       4.710   1.938  20.240  0.00  0.00    +0.000 NA
ENDBRANCH   6  15
TORSDOF 5
ENDMDL
MODEL 7
REMARK VINA RESULT:      -5.7      2.145      3.048
REMARK  Name = 
REMARK  5 active torsions:
REMARK  status: ('A' for Active; 'I' for Inactive)
REMARK    1  A    between atoms: C_2  and  C_3
REMARK    2  A    between atoms: C_3  and  N_4
REMARK    3  A    between atoms: N_4  and  C_5
REMARK    4  A    between atoms: C_8  and  N_9
REMARK    5  A    between atoms: C_13  and  C_14
REMARK                            x       y       z     vdW  Elec       q    Type
REMARK                         _______ _______ _______ _____ _____    ______ ____
ROOT
ATOM      1  C   UNL     1       4.948   5.009  18.142  0.00  0.00    +0.000 A 
ATOM      2  C   UNL     1       4.256   4.868  16.924  0.00  0.00    +0.000 A 
ATOM      3  C   UNL     1       4.923   4.795  15.697  0.00  0.00    +0.000 A 
ATOM      4  C   UNL     1       6.313   4.893  15.664  0.00  0.00    +0.000 A 
ATOM      5  C   UNL     1       7.036   5.071  16.847  0.00  0.00    +0.000 A 
ATOM      6  C   UNL     1       6.358   5.138  18.077  0.00  0.00    +0.000 A 
ENDROOT
BRANCH   4   7
ATOM      7  N   UNL     1       7.016   4.814  14.377  0.00  0.00    +0.000 N 
ATOM      8  O   UNL     1       6.604   3.991  13.547  0.00  0.00    +0.000 OA
ATOM      9  O   UNL     1       7.981   5.570  14.204  0.00  0.00    +0.000 OA
ENDBRANCH   4   7
BRANCH   1  10
ATOM     10  N   UNL     1       4.252   5.151  19.356  0.00  0.00    +0.000 N 
ATOM     11  H   UNL     1       4.804   5.567  20.109  0.00  0.00    +0.000 HD
BRANCH  10  12
ATOM     12  C   UNL     1       3.438   4.028  19.838  0.00  0.00    +0.000 C 
BRANCH  12  14
ATOM     13  N   UNL     1       4.973   1.766  20.352  0.00  0.00    +0.000 NA
ATOM     14  C   UNL     1       4.277   2.792  20.119  0.00  0.00    +0.000 C 
ENDBRANCH  12  14
ENDBRANCH  10  12
ENDBRANCH   1  10
BRANCH   6  15
ATOM     15  C   UNL     1       7.149   5.305  19.265  0.00  0.00    +0.000 C 
ATOM     16  N   UNL     1       7.775   5.467  20.227  0.00  0.00    +0.000 NA
ENDBRANCH   6  15
TORSDOF 5
ENDMDL
MODEL 8
REMARK VINA RESULT:      -5.7      1.404      2.559
REMARK  Name = 
REMARK  5 active torsions:
REMARK  status: ('A' for Active; 'I' for Inactive)
REMARK    1  A    between atoms: C_2  and  C_3
REMARK    2  A    between atoms: C_3  and  N_4
REMARK    3  A    between atoms: N_4  and  C_5
REMARK    4  A    between atoms: C_8  and  N_9
REMARK    5  A    between atoms: C_13  and  C_14
REMARK                            x       y       z     vdW  Elec       q    Type
REMARK                         _______ _______ _______ _____ _____    ______ ____
ROOT
ATOM      1  C   UNL     1       2.917   4.455  17.731  0.00  0.00    +0.000 A 
ATOM      2  C   UNL     1       3.677   3.633  16.877  0.00  0.00    +0.000 A 
ATOM      3  C   UNL     1       5.027   3.885  16.616  0.00  0.00    +0.000 A 
ATOM      4  C   UNL     1       5.643   4.997  17.190  0.00  0.00    +0.000 A 
ATOM      5  C   UNL     1       4.914   5.860  18.014  0.00  0.00    +0.000 A 
ATOM      6  C   UNL     1       3.557   5.596  18.276  0.00  0.00    +0.000 A 
ENDROOT
BRANCH   4   7
ATOM      7  N   UNL     1       7.061   5.263  16.919  0.00  0.00    +0.000 N 
ATOM      8  O   UNL     1       7.892   4.463  17.373  0.00  0.00    +0.000 OA
ATOM      9  O   UNL     1       7.340   6.274  16.260  0.00  0.00    +0.000 OA
ENDBRANCH   4   7
BRANCH   1  10
ATOM     10  N   UNL     1       1.543   4.222  17.922  0.00  0.00    +0.000 N 
ATOM     11  H   UNL     1       1.013   5.049  18.204  0.00  0.00    +0.000 HD
BRANCH  10  12
ATOM     12  C   UNL     1       1.127   3.031  18.674  0.00  0.00    +0.000 C 
BRANCH  12  14
ATOM     13  N   UNL     1       1.579   3.306  21.405  0.00  0.00    +0.000 NA
ATOM     14  C   UNL     1       1.374   3.182  20.167  0.00  0.00    +0.000 C 
ENDBRANCH  12  14
ENDBRANCH  10  12
ENDBRANCH   1  10
BRANCH   6  15
ATOM     15  C   UNL     1       2.858   6.503  19.144  0.00  0.00    +0.000 C 
ATOM     16  N   UNL     1       2.268   7.230  19.828  0.00  0.00    +0.000 NA
ENDBRANCH   6  15
TORSDOF 5
ENDMDL
MODEL 9
REMARK VINA RESULT:      -5.7      1.591      2.832
REMARK  Name = 
REMARK  5 active torsions:
REMARK  status: ('A' for Active; 'I' for Inactive)
REMARK    1  A    between atoms: C_2  and  C_3
REMARK    2  A    between atoms: C_3  and  N_4
REMARK    3  A    between atoms: N_4  and  C_5
REMARK    4  A    between atoms: C_8  and  N_9
REMARK    5  A    between atoms: C_13  and  C_14
REMARK                            x       y       z     vdW  Elec       q    Type
REMARK                         _______ _______ _______ _____ _____    ______ ____
ROOT
ATOM      1  C   UNL     1       4.039   5.720  19.028  0.00  0.00    +0.000 A 
ATOM      2  C   UNL     1       4.937   4.636  19.025  0.00  0.00    +0.000 A 
ATOM      3  C   UNL     1       5.774   4.371  17.936  0.00  0.00    +0.000 A 
ATOM      4  C   UNL     1       5.704   5.180  16.802  0.00  0.00    +0.000 A 
ATOM      5  C   UNL     1       4.798   6.244  16.750  0.00  0.00    +0.000 A 
ATOM      6  C   UNL     1       3.965   6.506  17.851  0.00  0.00    +0.000 A 
ENDROOT
BRANCH   4   7
ATOM      7  N   UNL     1       6.583   4.906  15.659  0.00  0.00    +0.000 N 
ATOM      8  O   UNL     1       6.315   3.926  14.950  0.00  0.00    +0.000 OA
ATOM      9  O   UNL     1       7.544   5.667  15.478  0.00  0.00    +0.000 OA
ENDBRANCH   4   7
BRANCH   1  10
ATOM     10  N   UNL     1       3.158   5.924  20.105  0.00  0.00    +0.000 N 
ATOM     11  H   UNL     1       3.619   6.014  21.013  0.00  0.00    +0.000 HD
BRANCH  10  12
ATOM     12  C   UNL     1       1.947   5.098  20.193  0.00  0.00    +0.000 C 
BRANCH  12  14
ATOM     13  N   UNL     1       2.195   3.075  22.086  0.00  0.00    +0.000 NA
ATOM     14  C   UNL     1       2.083   3.992  21.227  0.00  0.00    +0.000 C 
ENDBRANCH  12  14
ENDBRANCH  10  12
ENDBRANCH   1  10
BRANCH   6  15
ATOM     15  C   UNL     1       3.064   7.622  17.753  0.00  0.00    +0.000 C 
ATOM     16  N   UNL     1       2.357   8.539  17.692  0.00  0.00    +0.000 NA
ENDBRANCH   6  15
TORSDOF 5
ENDMDL
