MODEL 1
REMARK VINA RESULT:      -6.6      0.000      0.000
REMARK  Name = 
REMARK  5 active torsions:
REMARK  status: ('A' for Active; 'I' for Inactive)
REMARK    1  A    between atoms: N_1  and  C_2
REMARK    2  A    between atoms: C_2  and  C_3
REMARK    3  A    between atoms: C_3  and  N_4
REMARK    4  A    between atoms: C_5  and  S_6
REMARK    5  A    between atoms: N_7  and  C_8
REMARK                            x       y       z     vdW  Elec       q    Type
REMARK                         _______ _______ _______ _____ _____    ______ ____
ROOT
ATOM      1  N   UNL     1       5.519   5.096  18.451  0.00  0.00    +0.000 NA
ATOM      2  C   UNL     1       5.118   4.171  17.658  0.00  0.00    +0.000 C 
ATOM      3  N   UNL     1       4.257   3.162  18.016  0.00  0.00    +0.000 N 
ATOM      4  H   UNL     1       4.359   2.279  17.525  0.00  0.00    +0.000 HD
ENDROOT
BRANCH   3   5
ATOM      5  C   UNL     1       3.259   3.179  19.003  0.00  0.00    +0.000 A 
ATOM      6  C   UNL     1       1.993   3.745  18.814  0.00  0.00    +0.000 A 
ATOM      7  F   UNL     1       1.628   4.201  17.606  0.00  0.00    +0.000 F 
ATOM      8  C   UNL     1       1.041   3.766  19.838  0.00  0.00    +0.000 A 
ATOM      9  C   UNL     1       1.348   3.237  21.091  0.00  0.00    +0.000 A 
ATOM     10  C   UNL     1       2.602   2.670  21.308  0.00  0.00    +0.000 A 
ATOM     11  C   UNL     1       3.532   2.645  20.270  0.00  0.00    +0.000 A 
ATOM     12  F   UNL     1       4.734   2.093  20.503  0.00  0.00    +0.000 F 
ENDBRANCH   3   5
BRANCH   2  13
ATOM     13  S   UNL     1       5.651   3.942  15.999  0.00  0.00    +0.000 S 
ATOM     14  H   UNL     1       4.649   4.539  15.356  0.00  0.00    +0.000 HD
ENDBRANCH   2  13
BRANCH   1  15
ATOM     15  C   UNL     1       6.515   6.141  18.210  0.00  0.00    +0.000 C 
BRANCH  15  16
ATOM     16  C   UNL     1       7.834   5.804  18.990  0.00  0.00    +0.000 C 
BRANCH  16  17
ATOM     17  N   UNL     1       7.947   5.415  20.386  0.00  0.00    +0.000 NA
ATOM     18  H   UNL     1       7.108   5.544  20.945  0.00  0.00    +0.000 HD
ATOM     19  H   UNL     1       8.406   4.544  20.601  0.00  0.00    +0.000 HD
ENDBRANCH  16  17
ENDBRANCH  15  16
ENDBRANCH   1  15
TORSDOF 5
ENDMDL
MODEL 2
REMARK VINA RESULT:      -6.6      0.095      2.130
REMARK  Name = 
REMARK  5 active torsions:
REMARK  status: ('A' for Active; 'I' for Inactive)
REMARK    1  A    between atoms: N_1  and  C_2
REMARK    2  A    between atoms: C_2  and  C_3
REMARK    3  A    between atoms: C_3  and  N_4
REMARK    4  A    between atoms: C_5  and  S_6
REMARK    5  A    between atoms: N_7  and  C_8
REMARK                            x       y       z     vdW  Elec       q    Type
REMARK                         _______ _______ _______ _____ _____    ______ ____
ROOT
ATOM      1  N   UNL     1       5.609   5.070  18.431  0.00  0.00    +0.000 NA
ATOM      2  C   UNL     1       5.154   4.170  17.639  0.00  0.00    +0.000 C 
ATOM      3  N   UNL     1       4.288   3.172  18.014  0.00  0.00    +0.000 N 
ATOM      4  H   UNL     1       4.349   2.297  17.502  0.00  0.00    +0.000 HD
ENDROOT
BRANCH   3   5
ATOM      5  C   UNL     1       3.333   3.190  19.043  0.00  0.00    +0.000 A 
ATOM      6  C   UNL     1       3.547   2.629  20.307  0.00  0.00    +0.000 A 
ATOM      7  F   UNL     1       4.753   2.144  20.638  0.00  0.00    +0.000 F 
ATOM      8  C   UNL     1       2.553   2.643  21.291  0.00  0.00    +0.000 A 
ATOM      9  C   UNL     1       1.305   3.202  21.019  0.00  0.00    +0.000 A 
ATOM     10  C   UNL     1       1.063   3.765  19.767  0.00  0.00    +0.000 A 
ATOM     11  C   UNL     1       2.073   3.756  18.805  0.00  0.00    +0.000 A 
ATOM     12  F   UNL     1       1.816   4.304  17.606  0.00  0.00    +0.000 F 
ENDBRANCH   3   5
BRANCH   2  13
ATOM     13  S   UNL     1       5.610   3.964  15.954  0.00  0.00    +0.000 S 
ATOM     14  H   UNL     1       4.590   3.218  15.534  0.00  0.00    +0.000 HD
ENDBRANCH   2  13
BRANCH   1  15
ATOM     15  C   UNL     1       6.615   6.099  18.167  0.00  0.00    +0.000 C 
BRANCH  15  16
ATOM     16  C   UNL     1       7.899   5.814  19.022  0.00  0.00    +0.000 C 
BRANCH  16  17
ATOM     17  N   UNL     1       7.947   5.399  20.414  0.00  0.00    +0.000 NA
ATOM     18  H   UNL     1       8.206   4.429  20.572  0.00  0.00    +0.000 HD
ATOM     19  H   UNL     1       8.390   6.014  21.078  0.00  0.00    +0.000 HD
ENDBRANCH  16  17
ENDBRANCH  15  16
ENDBRANCH   1  15
TORSDOF 5
ENDMDL
MODEL 3
REMARK VINA RESULT:      -6.3      1.741      1.984
REMARK  Name = 
REMARK  5 active torsions:
REMARK  status: ('A' for Active; 'I' for Inactive)
REMARK    1  A    between atoms: N_1  and  C_2
REMARK    2  A    between atoms: C_2  and  C_3
REMARK    3  A    between atoms: C_3  and  N_4
REMARK    4  A    between atoms: C_5  and  S_6
REMARK    5  A    between atoms: N_7  and  C_8
REMARK                            x       y       z     vdW  Elec       q    Type
REMARK                         _______ _______ _______ _____ _____    ______ ____
ROOT
ATOM      1  N   UNL     1       5.717   4.562  18.044  0.00  0.00    +0.000 NA
ATOM      2  C   UNL     1       4.825   5.203  17.381  0.00  0.00    +0.000 C 
ATOM      3  N   UNL     1       3.482   4.922  17.416  0.00  0.00    +0.000 N 
ATOM      4  H   UNL     1       2.948   5.131  16.578  0.00  0.00    +0.000 HD
ENDROOT
BRANCH   3   5
ATOM      5  C   UNL     1       2.739   4.351  18.463  0.00  0.00    +0.000 A 
ATOM      6  C   UNL     1       2.200   3.062  18.415  0.00  0.00    +0.000 A 
ATOM      7  F   UNL     1       2.481   2.246  17.388  0.00  0.00    +0.000 F 
ATOM      8  C   UNL     1       1.439   2.547  19.470  0.00  0.00    +0.000 A 
ATOM      9  C   UNL     1       1.181   3.331  20.595  0.00  0.00    +0.000 A 
ATOM     10  C   UNL     1       1.702   4.621  20.667  0.00  0.00    +0.000 A 
ATOM     11  C   UNL     1       2.472   5.109  19.612  0.00  0.00    +0.000 A 
ATOM     12  F   UNL     1       2.963   6.355  19.705  0.00  0.00    +0.000 F 
ENDBRANCH   3   5
BRANCH   2  13
ATOM     13  S   UNL     1       5.137   6.491  16.227  0.00  0.00    +0.000 S 
ATOM     14  H   UNL     1       6.215   7.038  16.786  0.00  0.00    +0.000 HD
ENDBRANCH   2  13
BRANCH   1  15
ATOM     15  C   UNL     1       7.173   4.700  17.992  0.00  0.00    +0.000 C 
BRANCH  15  16
ATOM     16  C   UNL     1       7.645   5.731  19.075  0.00  0.00    +0.000 C 
BRANCH  16  17
ATOM     17  N   UNL     1       8.047   5.441  20.441  0.00  0.00    +0.000 NA
ATOM     18  H   UNL     1       8.742   6.069  20.835  0.00  0.00    +0.000 HD
ATOM     19  H   UNL     1       7.328   5.216  21.111  0.00  0.00    +0.000 HD
ENDBRANCH  16  17
ENDBRANCH  15  16
ENDBRANCH   1  15
TORSDOF 5
ENDMDL
MODEL 4
REMARK VINA RESULT:      -6.3      1.440      1.512
REMARK  Name = 
REMARK  5 active torsions:
REMARK  status: ('A' for Active; 'I' for Inactive)
REMARK    1  A    between atoms: N_1  and  C_2
REMARK    2  A    between atoms: C_2  and  C_3
REMARK    3  A    between atoms: C_3  and  N_4
REMARK    4  A    between atoms: C_5  and  S_6
REMARK    5  A    between atoms: N_7  and  C_8
REMARK                            x       y       z     vdW  Elec       q    Type
REMARK                         _______ _______ _______ _____ _____    ______ ____
ROOT
ATOM      1  N   UNL     1       6.076   4.370  17.809  0.00  0.00    +0.000 NA
ATOM      2  C   UNL     1       5.291   4.366  16.796  0.00  0.00    +0.000 C 
ATOM      3  N   UNL     1       4.024   3.834  16.798  0.00  0.00    +0.000 N 
ATOM      4  H   UNL     1       3.681   3.465  15.916  0.00  0.00    +0.000 HD
ENDROOT
BRANCH   3   5
ATOM      5  C   UNL     1       3.137   3.704  17.879  0.00  0.00    +0.000 A 
ATOM      6  C   UNL     1       2.486   4.787  18.480  0.00  0.00    +0.000 A 
ATOM      7  F   UNL     1       2.592   6.017  17.957  0.00  0.00    +0.000 F 
ATOM      8  C   UNL     1       1.634   4.612  19.575  0.00  0.00    +0.000 A 
ATOM      9  C   UNL     1       1.434   3.340  20.111  0.00  0.00    +0.000 A 
ATOM     10  C   UNL     1       2.072   2.244  19.534  0.00  0.00    +0.000 A 
ATOM     11  C   UNL     1       2.905   2.437  18.432  0.00  0.00    +0.000 A 
ATOM     12  F   UNL     1       3.509   1.366  17.894  0.00  0.00    +0.000 F 
ENDBRANCH   3   5
BRANCH   2  13
ATOM     13  S   UNL     1       5.694   4.940  15.185  0.00  0.00    +0.000 S 
ATOM     14  H   UNL     1       5.678   3.785  14.523  0.00  0.00    +0.000 HD
ENDBRANCH   2  13
BRANCH   1  15
ATOM     15  C   UNL     1       7.473   4.801  17.884  0.00  0.00    +0.000 C 
BRANCH  15  16
ATOM     16  C   UNL     1       7.662   5.773  19.100  0.00  0.00    +0.000 C 
BRANCH  16  17
ATOM     17  N   UNL     1       8.070   5.416  20.449  0.00  0.00    +0.000 NA
ATOM     18  H   UNL     1       7.702   6.009  21.187  0.00  0.00    +0.000 HD
ATOM     19  H   UNL     1       8.049   4.443  20.710  0.00  0.00    +0.000 HD
ENDBRANCH  16  17
ENDBRANCH  15  16
ENDBRANCH   1  15
TORSDOF 5
ENDMDL
MODEL 5
REMARK VINA RESULT:      -6.3      1.736      2.037
REMARK  Name = 
REMARK  5 active torsions:
REMARK  status: ('A' for Active; 'I' for Inactive)
REMARK    1  A    between atoms: N_1  and  C_2
REMARK    2  A    between atoms: C_2  and  C_3
REMARK    3  A    between atoms: C_3  and  N_4
REMARK    4  A    between atoms: C_5  and  S_6
REMARK    5  A    between atoms: N_7  and  C_8
REMARK                            x       y       z     vdW  Elec       q    Type
REMARK                         _______ _______ _______ _____ _____    ______ ____
ROOT
ATOM      1  N   UNL     1       5.663   4.581  18.010  0.00  0.00    +0.000 NA
ATOM      2  C   UNL     1       4.794   5.250  17.345  0.00  0.00    +0.000 C 
ATOM      3  N   UNL     1       3.438   5.043  17.414  0.00  0.00    +0.000 N 
ATOM      4  H   UNL     1       2.900   5.257  16.579  0.00  0.00    +0.000 HD
ENDROOT
BRANCH   3   5
ATOM      5  C   UNL     1       2.687   4.542  18.490  0.00  0.00    +0.000 A 
ATOM      6  C   UNL     1       2.462   5.252  19.674  0.00  0.00    +0.000 A 
ATOM      7  F   UNL     1       2.865   6.527  19.787  0.00  0.00    +0.000 F 
ATOM      8  C   UNL     1       1.734   4.700  20.731  0.00  0.00    +0.000 A 
ATOM      9  C   UNL     1       1.230   3.403  20.633  0.00  0.00    +0.000 A 
ATOM     10  C   UNL     1       1.442   2.671  19.466  0.00  0.00    +0.000 A 
ATOM     11  C   UNL     1       2.158   3.246  18.417  0.00  0.00    +0.000 A 
ATOM     12  F   UNL     1       2.348   2.521  17.303  0.00  0.00    +0.000 F 
ENDBRANCH   3   5
BRANCH   2  13
ATOM     13  S   UNL     1       5.150   6.488  16.150  0.00  0.00    +0.000 S 
ATOM     14  H   UNL     1       5.547   7.471  16.955  0.00  0.00    +0.000 HD
ENDBRANCH   2  13
BRANCH   1  15
ATOM     15  C   UNL     1       7.123   4.639  17.927  0.00  0.00    +0.000 C 
BRANCH  15  16
ATOM     16  C   UNL     1       7.669   5.691  18.955  0.00  0.00    +0.000 C 
BRANCH  16  17
ATOM     17  N   UNL     1       7.956   5.470  20.362  0.00  0.00    +0.000 NA
ATOM     18  H   UNL     1       7.560   6.153  21.001  0.00  0.00    +0.000 HD
ATOM     19  H   UNL     1       7.872   4.532  20.723  0.00  0.00    +0.000 HD
ENDBRANCH  16  17
ENDBRANCH  15  16
ENDBRANCH   1  15
TORSDOF 5
ENDMDL
MODEL 6
REMARK VINA RESULT:      -6.1      1.071      2.429
REMARK  Name = 
REMARK  5 active torsions:
REMARK  status: ('A' for Active; 'I' for Inactive)
REMARK    1  A    between atoms: N_1  and  C_2
REMARK    2  A    between atoms: C_2  and  C_3
REMARK    3  A    between atoms: C_3  and  N_4
REMARK    4  A    between atoms: C_5  and  S_6
REMARK    5  A    between atoms: N_7  and  C_8
REMARK                            x       y       z     vdW  Elec       q    Type
REMARK                         _______ _______ _______ _____ _____    ______ ____
ROOT
ATOM      1  N   UNL     1       6.131   4.391  18.419  0.00  0.00    +0.000 NA
ATOM      2  C   UNL     1       5.263   4.090  17.524  0.00  0.00    +0.000 C 
ATOM      3  N   UNL     1       4.072   3.456  17.781  0.00  0.00    +0.000 N 
ATOM      4  H   UNL     1       3.695   2.872  17.041  0.00  0.00    +0.000 HD
ENDROOT
BRANCH   3   5
ATOM      5  C   UNL     1       3.307   3.486  18.958  0.00  0.00    +0.000 A 
ATOM      6  C   UNL     1       3.586   2.705  20.084  0.00  0.00    +0.000 A 
ATOM      7  F   UNL     1       4.702   1.961  20.133  0.00  0.00    +0.000 F 
ATOM      8  C   UNL     1       2.776   2.745  21.223  0.00  0.00    +0.000 A 
ATOM      9  C   UNL     1       1.644   3.560  21.248  0.00  0.00    +0.000 A 
ATOM     10  C   UNL     1       1.339   4.346  20.140  0.00  0.00    +0.000 A 
ATOM     11  C   UNL     1       2.169   4.304  19.020  0.00  0.00    +0.000 A 
ATOM     12  F   UNL     1       1.854   5.071  17.964  0.00  0.00    +0.000 F 
ENDBRANCH   3   5
BRANCH   2  13
ATOM     13  S   UNL     1       5.451   4.330  15.793  0.00  0.00    +0.000 S 
ATOM     14  H   UNL     1       4.198   4.111  15.398  0.00  0.00    +0.000 HD
ENDBRANCH   2  13
BRANCH   1  15
ATOM     15  C   UNL     1       7.470   4.955  18.243  0.00  0.00    +0.000 C 
BRANCH  15  16
ATOM     16  C   UNL     1       7.378   6.519  18.168  0.00  0.00    +0.000 C 
BRANCH  16  17
ATOM     17  N   UNL     1       7.513   7.347  16.981  0.00  0.00    +0.000 NA
ATOM     18  H   UNL     1       7.737   8.323  17.153  0.00  0.00    +0.000 HD
ATOM     19  H   UNL     1       8.034   6.979  16.201  0.00  0.00    +0.000 HD
ENDBRANCH  16  17
ENDBRANCH  15  16
ENDBRANCH   1  15
TORSDOF 5
ENDMDL
MODEL 7
REMARK VINA RESULT:      -6.0      2.036      2.336
REMARK  Name = 
REMARK  5 active torsions:
REMARK  status: ('A' for Active; 'I' for Inactive)
REMARK    1  A    between atoms: N_1  and  C_2
REMARK    2  A    between atoms: C_2  and  C_3
REMARK    3  A    between atoms: C_3  and  N_4
REMARK    4  A    between atoms: C_5  and  S_6
REMARK    5  A    between atoms: N_7  and  C_8
REMARK                            x       y       z     vdW  Elec       q    Type
REMARK                         _______ _______ _______ _____ _____    ______ ____
ROOT
ATOM      1  N   UNL     1       5.431   5.085  18.592  0.00  0.00    +0.000 NA
ATOM      2  C   UNL     1       4.589   5.551  17.745  0.00  0.00    +0.000 C 
ATOM      3  N   UNL     1       3.317   5.064  17.567  0.00  0.00    +0.000 N 
ATOM      4  H   UNL     1       2.919   5.153  16.637  0.00  0.00    +0.000 HD
ENDROOT
BRANCH   3   5
ATOM      5  C   UNL     1       2.491   4.425  18.506  0.00  0.00    +0.000 A 
ATOM      6  C   UNL     1       2.051   5.028  19.688  0.00  0.00    +0.000 A 
ATOM      7  F   UNL     1       2.308   6.324  19.925  0.00  0.00    +0.000 F 
ATOM      8  C   UNL     1       1.254   4.340  20.609  0.00  0.00    +0.000 A 
ATOM      9  C   UNL     1       0.898   3.013  20.372  0.00  0.00    +0.000 A 
ATOM     10  C   UNL     1       1.325   2.385  19.204  0.00  0.00    +0.000 A 
ATOM     11  C   UNL     1       2.106   3.093  18.291  0.00  0.00    +0.000 A 
ATOM     12  F   UNL     1       2.505   2.467  17.173  0.00  0.00    +0.000 F 
ENDBRANCH   3   5
BRANCH   2  13
ATOM     13  S   UNL     1       4.908   6.827  16.579  0.00  0.00    +0.000 S 
ATOM     14  H   UNL     1       4.231   6.353  15.535  0.00  0.00    +0.000 HD
ENDBRANCH   2  13
BRANCH   1  15
ATOM     15  C   UNL     1       6.836   5.448  18.782  0.00  0.00    +0.000 C 
BRANCH  15  16
ATOM     16  C   UNL     1       7.741   4.558  17.860  0.00  0.00    +0.000 C 
BRANCH  16  17
ATOM     17  N   UNL     1       7.780   4.563  16.407  0.00  0.00    +0.000 NA
ATOM     18  H   UNL     1       7.148   5.218  15.956  0.00  0.00    +0.000 HD
ATOM     19  H   UNL     1       8.681   4.546  15.956  0.00  0.00    +0.000 HD
ENDBRANCH  16  17
ENDBRANCH  15  16
ENDBRANCH   1  15
TORSDOF 5
ENDMDL
MODEL 8
REMARK VINA RESULT:      -6.0      1.683      1.829
REMARK  Name = 
REMARK  5 active torsions:
REMARK  status: ('A' for Active; 'I' for Inactive)
REMARK    1  A    between atoms: N_1  and  C_2
REMARK    2  A    between atoms: C_2  and  C_3
REMARK    3  A    between atoms: C_3  and  N_4
REMARK    4  A    between atoms: C_5  and  S_6
REMARK    5  A    between atoms: N_7  and  C_8
REMARK                            x       y       z     vdW  Elec       q    Type
REMARK                         _______ _______ _______ _____ _____    ______ ____
ROOT
ATOM      1  N   UNL     1       6.034   4.374  17.780  0.00  0.00    +0.000 NA
ATOM      2  C   UNL     1       5.266   4.284  16.757  0.00  0.00    +0.000 C 
ATOM      3  N   UNL     1       4.011   3.727  16.776  0.00  0.00    +0.000 N 
ATOM      4  H   UNL     1       3.691   3.291  15.917  0.00  0.00    +0.000 HD
ENDROOT
BRANCH   3   5
ATOM      5  C   UNL     1       3.108   3.653  17.849  0.00  0.00    +0.000 A 
ATOM      6  C   UNL     1       2.465   4.767  18.398  0.00  0.00    +0.000 A 
ATOM      7  F   UNL     1       2.595   5.974  17.827  0.00  0.00    +0.000 F 
ATOM      8  C   UNL     1       1.597   4.648  19.487  0.00  0.00    +0.000 A 
ATOM      9  C   UNL     1       1.371   3.401  20.070  0.00  0.00    +0.000 A 
ATOM     10  C   UNL     1       2.001   2.274  19.546  0.00  0.00    +0.000 A 
ATOM     11  C   UNL     1       2.851   2.412  18.449  0.00  0.00    +0.000 A 
ATOM     12  F   UNL     1       3.446   1.312  17.962  0.00  0.00    +0.000 F 
ENDBRANCH   3   5
BRANCH   2  13
ATOM     13  S   UNL     1       5.686   4.755  15.117  0.00  0.00    +0.000 S 
ATOM     14  H   UNL     1       4.555   4.430  14.493  0.00  0.00    +0.000 HD
ENDBRANCH   2  13
BRANCH   1  15
ATOM     15  C   UNL     1       7.421   4.839  17.847  0.00  0.00    +0.000 C 
BRANCH  15  16
ATOM     16  C   UNL     1       7.447   6.388  18.093  0.00  0.00    +0.000 C 
BRANCH  16  17
ATOM     17  N   UNL     1       7.498   7.432  17.082  0.00  0.00    +0.000 NA
ATOM     18  H   UNL     1       7.150   7.168  16.165  0.00  0.00    +0.000 HD
ATOM     19  H   UNL     1       7.198   8.358  17.341  0.00  0.00    +0.000 HD
ENDBRANCH  16  17
ENDBRANCH  15  16
ENDBRANCH   1  15
TORSDOF 5
ENDMDL
MODEL 9
REMARK VINA RESULT:      -6.0      1.039      1.216
REMARK  Name = 
REMARK  5 active torsions:
REMARK  status: ('A' for Active; 'I' for Inactive)
REMARK    1  A    between atoms: N_1  and  C_2
REMARK    2  A    between atoms: C_2  and  C_3
REMARK    3  A    between atoms: C_3  and  N_4
REMARK    4  A    between atoms: C_5  and  S_6
REMARK    5  A    between atoms: N_7  and  C_8
REMARK                            x       y       z     vdW  Elec       q    Type
REMARK                         _______ _______ _______ _____ _____    ______ ____
ROOT
ATOM      1  N   UNL     1       5.894   4.639  18.454  0.00  0.00    +0.000 NA
ATOM      2  C   UNL     1       5.260   3.979  17.556  0.00  0.00    +0.000 C 
ATOM      3  N   UNL     1       4.195   3.150  17.809  0.00  0.00    +0.000 N 
ATOM      4  H   UNL     1       4.068   2.362  17.180  0.00  0.00    +0.000 HD
ENDROOT
BRANCH   3   5
ATOM      5  C   UNL     1       3.259   3.230  18.852  0.00  0.00    +0.000 A 
ATOM      6  C   UNL     1       2.040   3.910  18.749  0.00  0.00    +0.000 A 
ATOM      7  F   UNL     1       1.650   4.426  17.574  0.00  0.00    +0.000 F 
ATOM      8  C   UNL     1       1.153   3.989  19.826  0.00  0.00    +0.000 A 
ATOM      9  C   UNL     1       1.481   3.404  21.049  0.00  0.00    +0.000 A 
ATOM     10  C   UNL     1       2.690   2.724  21.182  0.00  0.00    +0.000 A 
ATOM     11  C   UNL     1       3.554   2.642  20.091  0.00  0.00    +0.000 A 
ATOM     12  F   UNL     1       4.713   1.981  20.243  0.00  0.00    +0.000 F 
ENDBRANCH   3   5
BRANCH   2  13
ATOM     13  S   UNL     1       5.674   3.915  15.849  0.00  0.00    +0.000 S 
ATOM     14  H   UNL     1       5.910   2.611  15.723  0.00  0.00    +0.000 HD
ENDBRANCH   2  13
BRANCH   1  15
ATOM     15  C   UNL     1       7.103   5.452  18.312  0.00  0.00    +0.000 C 
BRANCH  15  16
ATOM     16  C   UNL     1       6.733   6.845  17.692  0.00  0.00    +0.000 C 
BRANCH  16  17
ATOM     17  N   UNL     1       7.649   7.818  17.121  0.00  0.00    +0.000 NA
ATOM     18  H   UNL     1       8.506   7.970  17.645  0.00  0.00    +0.000 HD
ATOM     19  H   UNL     1       7.822   7.783  16.129  0.00  0.00    +0.000 HD
ENDBRANCH  16  17
ENDBRANCH  15  16
ENDBRANCH   1  15
TORSDOF 5
ENDMDL
