MODEL 1
REMARK VINA RESULT:      -8.3      0.000      0.000
REMARK  Name = 
REMARK  4 active torsions:
REMARK  status: ('A' for Active; 'I' for Inactive)
REMARK    1  A    between atoms: N_1  and  C_2
REMARK    2  A    between atoms: C_5  and  C_6
REMARK    3  A    between atoms: C_13  and  C_14
REMARK    4  A    between atoms: C_17  and  C_18
REMARK                            x       y       z     vdW  Elec       q    Type
REMARK                         _______ _______ _______ _____ _____    ______ ____
ROOT
ATOM      1  C   UNL     1       3.116   5.115  19.847  0.00  0.00    +0.000 A 
ATOM      2  N   UNL     1       3.869   4.007  19.720  0.00  0.00    +0.000 NA
ATOM      3  C   UNL     1       4.652   3.940  18.618  0.00  0.00    +0.000 A 
ATOM      4  C   UNL     1       4.698   4.929  17.639  0.00  0.00    +0.000 A 
ATOM      5  N   UNL     1       3.938   6.049  17.775  0.00  0.00    +0.000 NA
ATOM      6  C   UNL     1       3.154   6.153  18.892  0.00  0.00    +0.000 A 
ENDROOT
BRANCH   4   7
ATOM      7  C   UNL     1       5.574   4.850  16.459  0.00  0.00    +0.000 A 
ATOM      8  C   UNL     1       5.248   4.059  15.346  0.00  0.00    +0.000 A 
ATOM      9  C   UNL     1       6.067   4.046  14.215  0.00  0.00    +0.000 A 
ATOM     10  C   UNL     1       7.210   4.824  14.224  0.00  0.00    +0.000 A 
ATOM     11  N   UNL     1       7.584   5.583  15.271  0.00  0.00    +0.000 NA
ATOM     12  C   UNL     1       6.767   5.570  16.354  0.00  0.00    +0.000 A 
ENDBRANCH   4   7
BRANCH   6  13
ATOM     13  C   UNL     1       2.376   7.405  18.992  0.00  0.00    +0.000 A 
ATOM     14  C   UNL     1       2.139   8.221  17.876  0.00  0.00    +0.000 A 
ATOM     15  C   UNL     1       1.387   9.395  17.990  0.00  0.00    +0.000 A 
ATOM     16  C   UNL     1       0.868   9.756  19.231  0.00  0.00    +0.000 A 
ATOM     17  N   UNL     1       1.093   8.994  20.336  0.00  0.00    +0.000 NA
ATOM     18  C   UNL     1       1.840   7.867  20.193  0.00  0.00    +0.000 A 
BRANCH  16  19
ATOM     19  C   UNL     1       0.039  11.027  19.379  0.00  0.00    +0.000 C 
ATOM     20  F   UNL     1       0.063  11.539  20.647  0.00  0.00    +0.000 F 
ATOM     21  F   UNL     1       0.467  12.040  18.575  0.00  0.00    +0.000 F 
ATOM     22  F   UNL     1      -1.280  10.843  19.090  0.00  0.00    +0.000 F 
ENDBRANCH  16  19
ENDBRANCH   6  13
BRANCH   1  23
ATOM     23  N   UNL     1       2.333   5.136  21.001  0.00  0.00    +0.000 N 
ATOM     24  H   UNL     1       1.758   4.296  20.985  0.00  0.00    +0.000 HD
ATOM     25  H   UNL     1       1.762   5.974  21.061  0.00  0.00    +0.000 HD
ENDBRANCH   1  23
TORSDOF 4
ENDMDL
MODEL 2
REMARK VINA RESULT:      -8.2      4.431      7.648
REMARK  Name = 
REMARK  4 active torsions:
REMARK  status: ('A' for Active; 'I' for Inactive)
REMARK    1  A    between atoms: N_1  and  C_2
REMARK    2  A    between atoms: C_5  and  C_6
REMARK    3  A    between atoms: C_13  and  C_14
REMARK    4  A    between atoms: C_17  and  C_18
REMARK                            x       y       z     vdW  Elec       q    Type
REMARK                         _______ _______ _______ _____ _____    ______ ____
ROOT
ATOM      1  C   UNL     1       4.568   4.235  18.667  0.00  0.00    +0.000 A 
ATOM      2  N   UNL     1       3.785   4.345  19.756  0.00  0.00    +0.000 NA
ATOM      3  C   UNL     1       3.046   5.475  19.849  0.00  0.00    +0.000 A 
ATOM      4  C   UNL     1       3.072   6.497  18.905  0.00  0.00    +0.000 A 
ATOM      5  N   UNL     1       3.862   6.379  17.803  0.00  0.00    +0.000 NA
ATOM      6  C   UNL     1       4.602   5.236  17.673  0.00  0.00    +0.000 A 
ENDROOT
BRANCH   4   7
ATOM      7  C   UNL     1       2.243   7.709  19.009  0.00  0.00    +0.000 A 
ATOM      8  C   UNL     1       1.954   8.508  17.892  0.00  0.00    +0.000 A 
ATOM      9  C   UNL     1       1.118   9.620  18.007  0.00  0.00    +0.000 A 
ATOM     10  C   UNL     1       0.591   9.920  19.250  0.00  0.00    +0.000 A 
ATOM     11  N   UNL     1       0.854   9.204  20.360  0.00  0.00    +0.000 NA
ATOM     12  C   UNL     1       1.671   8.131  20.213  0.00  0.00    +0.000 A 
ENDBRANCH   4   7
BRANCH   6  13
ATOM     13  C   UNL     1       5.416   5.158  16.442  0.00  0.00    +0.000 A 
ATOM     14  C   UNL     1       4.960   4.495  15.293  0.00  0.00    +0.000 A 
ATOM     15  C   UNL     1       5.739   4.446  14.133  0.00  0.00    +0.000 A 
ATOM     16  C   UNL     1       6.986   5.066  14.121  0.00  0.00    +0.000 A 
ATOM     17  N   UNL     1       7.465   5.706  15.224  0.00  0.00    +0.000 NA
ATOM     18  C   UNL     1       6.687   5.721  16.339  0.00  0.00    +0.000 A 
BRANCH  16  19
ATOM     19  C   UNL     1       7.852   5.033  12.867  0.00  0.00    +0.000 C 
ATOM     20  F   UNL     1       7.667   6.121  12.058  0.00  0.00    +0.000 F 
ATOM     21  F   UNL     1       9.187   5.012  13.140  0.00  0.00    +0.000 F 
ATOM     22  F   UNL     1       7.608   3.951  12.075  0.00  0.00    +0.000 F 
ENDBRANCH  16  19
ENDBRANCH   6  13
BRANCH   1  23
ATOM     23  N   UNL     1       5.304   3.051  18.617  0.00  0.00    +0.000 N 
ATOM     24  H   UNL     1       4.895   2.419  19.302  0.00  0.00    +0.000 HD
ATOM     25  H   UNL     1       6.291   3.206  18.799  0.00  0.00    +0.000 HD
ENDBRANCH   1  23
TORSDOF 4
ENDMDL
MODEL 3
REMARK VINA RESULT:      -8.0      0.628      1.320
REMARK  Name = 
REMARK  4 active torsions:
REMARK  status: ('A' for Active; 'I' for Inactive)
REMARK    1  A    between atoms: N_1  and  C_2
REMARK    2  A    between atoms: C_5  and  C_6
REMARK    3  A    between atoms: C_13  and  C_14
REMARK    4  A    between atoms: C_17  and  C_18
REMARK                            x       y       z     vdW  Elec       q    Type
REMARK                         _______ _______ _______ _____ _____    ______ ____
ROOT
ATOM      1  C   UNL     1       3.156   5.160  19.842  0.00  0.00    +0.000 A 
ATOM      2  N   UNL     1       3.917   4.056  19.722  0.00  0.00    +0.000 NA
ATOM      3  C   UNL     1       4.691   3.981  18.614  0.00  0.00    +0.000 A 
ATOM      4  C   UNL     1       4.720   4.957  17.622  0.00  0.00    +0.000 A 
ATOM      5  N   UNL     1       3.952   6.073  17.749  0.00  0.00    +0.000 NA
ATOM      6  C   UNL     1       3.178   6.185  18.872  0.00  0.00    +0.000 A 
ENDROOT
BRANCH   4   7
ATOM      7  C   UNL     1       5.586   4.870  16.435  0.00  0.00    +0.000 A 
ATOM      8  C   UNL     1       5.238   4.092  15.320  0.00  0.00    +0.000 A 
ATOM      9  C   UNL     1       6.048   4.071  14.183  0.00  0.00    +0.000 A 
ATOM     10  C   UNL     1       7.206   4.827  14.188  0.00  0.00    +0.000 A 
ATOM     11  N   UNL     1       7.602   5.571  15.238  0.00  0.00    +0.000 NA
ATOM     12  C   UNL     1       6.792   5.567  16.327  0.00  0.00    +0.000 A 
ENDBRANCH   4   7
BRANCH   6  13
ATOM     13  C   UNL     1       2.390   7.432  18.962  0.00  0.00    +0.000 A 
ATOM     14  C   UNL     1       1.830   7.868  20.171  0.00  0.00    +0.000 A 
ATOM     15  C   UNL     1       1.101   9.060  20.239  0.00  0.00    +0.000 A 
ATOM     16  C   UNL     1       0.930   9.823  19.086  0.00  0.00    +0.000 A 
ATOM     17  N   UNL     1       1.449   9.420  17.893  0.00  0.00    +0.000 NA
ATOM     18  C   UNL     1       2.140   8.249  17.861  0.00  0.00    +0.000 A 
BRANCH  16  19
ATOM     19  C   UNL     1       0.146  11.129  19.134  0.00  0.00    +0.000 C 
ATOM     20  F   UNL     1      -0.988  11.104  18.370  0.00  0.00    +0.000 F 
ATOM     21  F   UNL     1      -0.274  11.453  20.390  0.00  0.00    +0.000 F 
ATOM     22  F   UNL     1       0.860  12.199  18.685  0.00  0.00    +0.000 F 
ENDBRANCH  16  19
ENDBRANCH   6  13
BRANCH   1  23
ATOM     23  N   UNL     1       2.383   5.191  21.002  0.00  0.00    +0.000 N 
ATOM     24  H   UNL     1       2.899   5.739  21.687  0.00  0.00    +0.000 HD
ATOM     25  H   UNL     1       2.178   4.259  21.350  0.00  0.00    +0.000 HD
ENDBRANCH   1  23
TORSDOF 4
ENDMDL
MODEL 4
REMARK VINA RESULT:      -8.0      4.467      7.653
REMARK  Name = 
REMARK  4 active torsions:
REMARK  status: ('A' for Active; 'I' for Inactive)
REMARK    1  A    between atoms: N_1  and  C_2
REMARK    2  A    between atoms: C_5  and  C_6
REMARK    3  A    between atoms: C_13  and  C_14
REMARK    4  A    between atoms: C_17  and  C_18
REMARK                            x       y       z     vdW  Elec       q    Type
REMARK                         _______ _______ _______ _____ _____    ______ ____
ROOT
ATOM      1  C   UNL     1       4.588   4.262  18.692  0.00  0.00    +0.000 A 
ATOM      2  N   UNL     1       3.809   4.376  19.784  0.00  0.00    +0.000 NA
ATOM      3  C   UNL     1       3.060   5.501  19.869  0.00  0.00    +0.000 A 
ATOM      4  C   UNL     1       3.073   6.514  18.914  0.00  0.00    +0.000 A 
ATOM      5  N   UNL     1       3.858   6.392  17.810  0.00  0.00    +0.000 NA
ATOM      6  C   UNL     1       4.608   5.253  17.688  0.00  0.00    +0.000 A 
ENDROOT
BRANCH   4   7
ATOM      7  C   UNL     1       2.234   7.719  19.011  0.00  0.00    +0.000 A 
ATOM      8  C   UNL     1       1.617   8.098  20.214  0.00  0.00    +0.000 A 
ATOM      9  C   UNL     1       0.873   9.277  20.294  0.00  0.00    +0.000 A 
ATOM     10  C   UNL     1       0.751  10.055  19.157  0.00  0.00    +0.000 A 
ATOM     11  N   UNL     1       1.300   9.728  17.972  0.00  0.00    +0.000 NA
ATOM     12  C   UNL     1       2.014   8.576  17.929  0.00  0.00    +0.000 A 
ENDBRANCH   4   7
BRANCH   6  13
ATOM     13  C   UNL     1       5.416   5.170  16.453  0.00  0.00    +0.000 A 
ATOM     14  C   UNL     1       4.953   4.506  15.308  0.00  0.00    +0.000 A 
ATOM     15  C   UNL     1       5.727   4.453  14.144  0.00  0.00    +0.000 A 
ATOM     16  C   UNL     1       6.976   5.067  14.126  0.00  0.00    +0.000 A 
ATOM     17  N   UNL     1       7.462   5.707  15.226  0.00  0.00    +0.000 NA
ATOM     18  C   UNL     1       6.689   5.727  16.344  0.00  0.00    +0.000 A 
BRANCH  16  19
ATOM     19  C   UNL     1       7.836   5.029  12.868  0.00  0.00    +0.000 C 
ATOM     20  F   UNL     1       9.177   5.003  13.135  0.00  0.00    +0.000 F 
ATOM     21  F   UNL     1       7.603   3.930  12.096  0.00  0.00    +0.000 F 
ATOM     22  F   UNL     1       7.650   6.109  12.059  0.00  0.00    +0.000 F 
ENDBRANCH  16  19
ENDBRANCH   6  13
BRANCH   1  23
ATOM     23  N   UNL     1       5.333   3.085  18.651  0.00  0.00    +0.000 N 
ATOM     24  H   UNL     1       5.826   3.014  19.539  0.00  0.00    +0.000 HD
ATOM     25  H   UNL     1       5.978   3.067  17.867  0.00  0.00    +0.000 HD
ENDBRANCH   1  23
TORSDOF 4
ENDMDL
MODEL 5
REMARK VINA RESULT:      -7.9      3.307      5.246
REMARK  Name = 
REMARK  4 active torsions:
REMARK  status: ('A' for Active; 'I' for Inactive)
REMARK    1  A    between atoms: N_1  and  C_2
REMARK    2  A    between atoms: C_5  and  C_6
REMARK    3  A    between atoms: C_13  and  C_14
REMARK    4  A    between atoms: C_17  and  C_18
REMARK                            x       y       z     vdW  Elec       q    Type
REMARK                         _______ _______ _______ _____ _____    ______ ____
ROOT
ATOM      1  C   UNL     1       6.787   5.593  16.378  0.00  0.00    +0.000 A 
ATOM      2  N   UNL     1       7.624   5.617  15.325  0.00  0.00    +0.000 NA
ATOM      3  C   UNL     1       7.228   4.925  14.231  0.00  0.00    +0.000 A 
ATOM      4  C   UNL     1       6.039   4.205  14.158  0.00  0.00    +0.000 A 
ATOM      5  N   UNL     1       5.193   4.187  15.225  0.00  0.00    +0.000 NA
ATOM      6  C   UNL     1       5.559   4.898  16.335  0.00  0.00    +0.000 A 
ENDROOT
BRANCH   4   7
ATOM      7  C   UNL     1       5.612   3.478  12.952  0.00  0.00    +0.000 A 
ATOM      8  C   UNL     1       4.390   3.749  12.317  0.00  0.00    +0.000 A 
ATOM      9  C   UNL     1       4.034   3.087  11.140  0.00  0.00    +0.000 A 
ATOM     10  C   UNL     1       4.910   2.149  10.624  0.00  0.00    +0.000 A 
ATOM     11  N   UNL     1       6.084   1.831  11.204  0.00  0.00    +0.000 NA
ATOM     12  C   UNL     1       6.397   2.493  12.346  0.00  0.00    +0.000 A 
ENDBRANCH   4   7
BRANCH   6  13
ATOM     13  C   UNL     1       4.585   4.861  17.446  0.00  0.00    +0.000 A 
ATOM     14  C   UNL     1       3.642   5.880  17.638  0.00  0.00    +0.000 A 
ATOM     15  C   UNL     1       2.718   5.819  18.686  0.00  0.00    +0.000 A 
ATOM     16  C   UNL     1       2.739   4.728  19.552  0.00  0.00    +0.000 A 
ATOM     17  N   UNL     1       3.652   3.729  19.402  0.00  0.00    +0.000 NA
ATOM     18  C   UNL     1       4.544   3.828  18.381  0.00  0.00    +0.000 A 
BRANCH  16  19
ATOM     19  C   UNL     1       1.738   4.634  20.698  0.00  0.00    +0.000 C 
ATOM     20  F   UNL     1       0.739   3.729  20.466  0.00  0.00    +0.000 F 
ATOM     21  F   UNL     1       2.309   4.245  21.873  0.00  0.00    +0.000 F 
ATOM     22  F   UNL     1       1.105   5.812  20.955  0.00  0.00    +0.000 F 
ENDBRANCH  16  19
ENDBRANCH   6  13
BRANCH   1  23
ATOM     23  N   UNL     1       7.239   6.324  17.476  0.00  0.00    +0.000 N 
ATOM     24  H   UNL     1       8.202   6.041  17.645  0.00  0.00    +0.000 HD
ATOM     25  H   UNL     1       6.661   6.179  18.298  0.00  0.00    +0.000 HD
ENDBRANCH   1  23
TORSDOF 4
ENDMDL
MODEL 6
REMARK VINA RESULT:      -7.9      3.630      5.398
REMARK  Name = 
REMARK  4 active torsions:
REMARK  status: ('A' for Active; 'I' for Inactive)
REMARK    1  A    between atoms: N_1  and  C_2
REMARK    2  A    between atoms: C_5  and  C_6
REMARK    3  A    between atoms: C_13  and  C_14
REMARK    4  A    between atoms: C_17  and  C_18
REMARK                            x       y       z     vdW  Elec       q    Type
REMARK                         _______ _______ _______ _____ _____    ______ ____
ROOT
ATOM      1  C   UNL     1       6.693   5.640  16.598  0.00  0.00    +0.000 A 
ATOM      2  N   UNL     1       7.550   5.788  15.571  0.00  0.00    +0.000 NA
ATOM      3  C   UNL     1       7.246   5.112  14.438  0.00  0.00    +0.000 A 
ATOM      4  C   UNL     1       6.131   4.290  14.301  0.00  0.00    +0.000 A 
ATOM      5  N   UNL     1       5.266   4.147  15.342  0.00  0.00    +0.000 NA
ATOM      6  C   UNL     1       5.537   4.837  16.491  0.00  0.00    +0.000 A 
ENDROOT
BRANCH   4   7
ATOM      7  C   UNL     1       5.804   3.582  13.054  0.00  0.00    +0.000 A 
ATOM      8  C   UNL     1       6.735   2.758  12.402  0.00  0.00    +0.000 A 
ATOM      9  C   UNL     1       6.382   2.051  11.251  0.00  0.00    +0.000 A 
ATOM     10  C   UNL     1       5.096   2.192  10.764  0.00  0.00    +0.000 A 
ATOM     11  N   UNL     1       4.169   2.987  11.333  0.00  0.00    +0.000 NA
ATOM     12  C   UNL     1       4.547   3.660  12.448  0.00  0.00    +0.000 A 
ENDBRANCH   4   7
BRANCH   6  13
ATOM     13  C   UNL     1       4.544   4.661  17.572  0.00  0.00    +0.000 A 
ATOM     14  C   UNL     1       3.395   5.460  17.659  0.00  0.00    +0.000 A 
ATOM     15  C   UNL     1       2.459   5.267  18.681  0.00  0.00    +0.000 A 
ATOM     16  C   UNL     1       2.676   4.266  19.625  0.00  0.00    +0.000 A 
ATOM     17  N   UNL     1       3.789   3.483  19.577  0.00  0.00    +0.000 NA
ATOM     18  C   UNL     1       4.684   3.708  18.579  0.00  0.00    +0.000 A 
BRANCH  16  19
ATOM     19  C   UNL     1       1.668   4.030  20.743  0.00  0.00    +0.000 C 
ATOM     20  F   UNL     1       0.716   5.009  20.824  0.00  0.00    +0.000 F 
ATOM     21  F   UNL     1       0.974   2.866  20.600  0.00  0.00    +0.000 F 
ATOM     22  F   UNL     1       2.240   3.982  21.979  0.00  0.00    +0.000 F 
ENDBRANCH  16  19
ENDBRANCH   6  13
BRANCH   1  23
ATOM     23  N   UNL     1       7.049   6.360  17.738  0.00  0.00    +0.000 N 
ATOM     24  H   UNL     1       6.311   6.212  18.425  0.00  0.00    +0.000 HD
ATOM     25  H   UNL     1       7.179   7.347  17.542  0.00  0.00    +0.000 HD
ENDBRANCH   1  23
TORSDOF 4
ENDMDL
MODEL 7
REMARK VINA RESULT:      -7.8      3.297      5.193
REMARK  Name = 
REMARK  4 active torsions:
REMARK  status: ('A' for Active; 'I' for Inactive)
REMARK    1  A    between atoms: N_1  and  C_2
REMARK    2  A    between atoms: C_5  and  C_6
REMARK    3  A    between atoms: C_13  and  C_14
REMARK    4  A    between atoms: C_17  and  C_18
REMARK                            x       y       z     vdW  Elec       q    Type
REMARK                         _______ _______ _______ _____ _____    ______ ____
ROOT
ATOM      1  C   UNL     1       6.767   5.644  16.390  0.00  0.00    +0.000 A 
ATOM      2  N   UNL     1       7.602   5.692  15.335  0.00  0.00    +0.000 NA
ATOM      3  C   UNL     1       7.224   4.990  14.242  0.00  0.00    +0.000 A 
ATOM      4  C   UNL     1       6.056   4.236  14.171  0.00  0.00    +0.000 A 
ATOM      5  N   UNL     1       5.213   4.194  15.239  0.00  0.00    +0.000 NA
ATOM      6  C   UNL     1       5.560   4.914  16.349  0.00  0.00    +0.000 A 
ENDROOT
BRANCH   4   7
ATOM      7  C   UNL     1       5.648   3.497  12.965  0.00  0.00    +0.000 A 
ATOM      8  C   UNL     1       4.428   3.750  12.319  0.00  0.00    +0.000 A 
ATOM      9  C   UNL     1       4.090   3.076  11.143  0.00  0.00    +0.000 A 
ATOM     10  C   UNL     1       4.982   2.148  10.639  0.00  0.00    +0.000 A 
ATOM     11  N   UNL     1       6.155   1.848  11.230  0.00  0.00    +0.000 NA
ATOM     12  C   UNL     1       6.451   2.520  12.371  0.00  0.00    +0.000 A 
ENDBRANCH   4   7
BRANCH   6  13
ATOM     13  C   UNL     1       4.589   4.849  17.461  0.00  0.00    +0.000 A 
ATOM     14  C   UNL     1       4.521   3.744  18.322  0.00  0.00    +0.000 A 
ATOM     15  C   UNL     1       3.605   3.709  19.378  0.00  0.00    +0.000 A 
ATOM     16  C   UNL     1       2.748   4.789  19.575  0.00  0.00    +0.000 A 
ATOM     17  N   UNL     1       2.778   5.871  18.748  0.00  0.00    +0.000 NA
ATOM     18  C   UNL     1       3.671   5.865  17.723  0.00  0.00    +0.000 A 
BRANCH  16  19
ATOM     19  C   UNL     1       1.746   4.779  20.723  0.00  0.00    +0.000 C 
ATOM     20  F   UNL     1       2.290   4.364  21.908  0.00  0.00    +0.000 F 
ATOM     21  F   UNL     1       1.218   6.009  20.982  0.00  0.00    +0.000 F 
ATOM     22  F   UNL     1       0.687   3.949  20.503  0.00  0.00    +0.000 F 
ENDBRANCH  16  19
ENDBRANCH   6  13
BRANCH   1  23
ATOM     23  N   UNL     1       7.200   6.388  17.488  0.00  0.00    +0.000 N 
ATOM     24  H   UNL     1       8.200   6.540  17.367  0.00  0.00    +0.000 HD
ATOM     25  H   UNL     1       7.000   5.924  18.368  0.00  0.00    +0.000 HD
ENDBRANCH   1  23
TORSDOF 4
ENDMDL
MODEL 8
REMARK VINA RESULT:      -7.7      3.524      5.380
REMARK  Name = 
REMARK  4 active torsions:
REMARK  status: ('A' for Active; 'I' for Inactive)
REMARK    1  A    between atoms: N_1  and  C_2
REMARK    2  A    between atoms: C_5  and  C_6
REMARK    3  A    between atoms: C_13  and  C_14
REMARK    4  A    between atoms: C_17  and  C_18
REMARK                            x       y       z     vdW  Elec       q    Type
REMARK                         _______ _______ _______ _____ _____    ______ ____
ROOT
ATOM      1  C   UNL     1       6.697   5.650  16.609  0.00  0.00    +0.000 A 
ATOM      2  N   UNL     1       7.545   5.811  15.577  0.00  0.00    +0.000 NA
ATOM      3  C   UNL     1       7.243   5.134  14.444  0.00  0.00    +0.000 A 
ATOM      4  C   UNL     1       6.138   4.298  14.312  0.00  0.00    +0.000 A 
ATOM      5  N   UNL     1       5.281   4.142  15.357  0.00  0.00    +0.000 NA
ATOM      6  C   UNL     1       5.550   4.833  16.507  0.00  0.00    +0.000 A 
ENDROOT
BRANCH   4   7
ATOM      7  C   UNL     1       5.812   3.589  13.065  0.00  0.00    +0.000 A 
ATOM      8  C   UNL     1       6.750   2.779  12.405  0.00  0.00    +0.000 A 
ATOM      9  C   UNL     1       6.399   2.071  11.255  0.00  0.00    +0.000 A 
ATOM     10  C   UNL     1       5.108   2.196  10.776  0.00  0.00    +0.000 A 
ATOM     11  N   UNL     1       4.174   2.977  11.352  0.00  0.00    +0.000 NA
ATOM     12  C   UNL     1       4.550   3.652  12.467  0.00  0.00    +0.000 A 
ENDBRANCH   4   7
BRANCH   6  13
ATOM     13  C   UNL     1       4.566   4.642  17.593  0.00  0.00    +0.000 A 
ATOM     14  C   UNL     1       4.643   3.558  18.480  0.00  0.00    +0.000 A 
ATOM     15  C   UNL     1       3.710   3.404  19.510  0.00  0.00    +0.000 A 
ATOM     16  C   UNL     1       2.690   4.341  19.655  0.00  0.00    +0.000 A 
ATOM     17  N   UNL     1       2.579   5.397  18.801  0.00  0.00    +0.000 NA
ATOM     18  C   UNL     1       3.494   5.508  17.803  0.00  0.00    +0.000 A 
BRANCH  16  19
ATOM     19  C   UNL     1       1.666   4.200  20.774  0.00  0.00    +0.000 C 
ATOM     20  F   UNL     1       0.841   3.120  20.614  0.00  0.00    +0.000 F 
ATOM     21  F   UNL     1       2.236   4.037  22.002  0.00  0.00    +0.000 F 
ATOM     22  F   UNL     1       0.836   5.275  20.880  0.00  0.00    +0.000 F 
ENDBRANCH  16  19
ENDBRANCH   6  13
BRANCH   1  23
ATOM     23  N   UNL     1       7.050   6.371  17.749  0.00  0.00    +0.000 N 
ATOM     24  H   UNL     1       6.317   6.214  18.438  0.00  0.00    +0.000 HD
ATOM     25  H   UNL     1       7.169   7.360  17.554  0.00  0.00    +0.000 HD
ENDBRANCH   1  23
TORSDOF 4
ENDMDL
MODEL 9
REMARK VINA RESULT:      -7.7      4.442      6.671
REMARK  Name = 
REMARK  4 active torsions:
REMARK  status: ('A' for Active; 'I' for Inactive)
REMARK    1  A    between atoms: N_1  and  C_2
REMARK    2  A    between atoms: C_5  and  C_6
REMARK    3  A    between atoms: C_13  and  C_14
REMARK    4  A    between atoms: C_17  and  C_18
REMARK                            x       y       z     vdW  Elec       q    Type
REMARK                         _______ _______ _______ _____ _____    ______ ____
ROOT
ATOM      1  C   UNL     1       6.222   4.643  16.325  0.00  0.00    +0.000 A 
ATOM      2  N   UNL     1       5.462   3.550  16.124  0.00  0.00    +0.000 NA
ATOM      3  C   UNL     1       4.538   3.282  17.076  0.00  0.00    +0.000 A 
ATOM      4  C   UNL     1       4.358   4.055  18.220  0.00  0.00    +0.000 A 
ATOM      5  N   UNL     1       5.125   5.161  18.416  0.00  0.00    +0.000 NA
ATOM      6  C   UNL     1       6.052   5.468  17.457  0.00  0.00    +0.000 A 
ENDROOT
BRANCH   4   7
ATOM      7  C   UNL     1       3.331   3.762  19.233  0.00  0.00    +0.000 A 
ATOM      8  C   UNL     1       2.013   4.228  19.108  0.00  0.00    +0.000 A 
ATOM      9  C   UNL     1       1.043   3.888  20.054  0.00  0.00    +0.000 A 
ATOM     10  C   UNL     1       1.417   3.092  21.121  0.00  0.00    +0.000 A 
ATOM     11  N   UNL     1       2.672   2.637  21.304  0.00  0.00    +0.000 NA
ATOM     12  C   UNL     1       3.589   2.988  20.367  0.00  0.00    +0.000 A 
ENDBRANCH   4   7
BRANCH   6  13
ATOM     13  C   UNL     1       6.832   6.696  17.716  0.00  0.00    +0.000 A 
ATOM     14  C   UNL     1       7.901   6.716  18.624  0.00  0.00    +0.000 A 
ATOM     15  C   UNL     1       8.637   7.885  18.843  0.00  0.00    +0.000 A 
ATOM     16  C   UNL     1       8.301   9.045  18.149  0.00  0.00    +0.000 A 
ATOM     17  N   UNL     1       7.259   9.062  17.272  0.00  0.00    +0.000 NA
ATOM     18  C   UNL     1       6.557   7.912  17.094  0.00  0.00    +0.000 A 
BRANCH  16  19
ATOM     19  C   UNL     1       9.092  10.330  18.365  0.00  0.00    +0.000 C 
ATOM     20  F   UNL     1      10.093  10.504  17.450  0.00  0.00    +0.000 F 
ATOM     21  F   UNL     1       8.323  11.451  18.274  0.00  0.00    +0.000 F 
ATOM     22  F   UNL     1       9.702  10.385  19.583  0.00  0.00    +0.000 F 
ENDBRANCH  16  19
ENDBRANCH   6  13
BRANCH   1  23
ATOM     23  N   UNL     1       7.154   4.877  15.313  0.00  0.00    +0.000 N 
ATOM     24  H   UNL     1       7.191   4.034  14.744  0.00  0.00    +0.000 HD
ATOM     25  H   UNL     1       8.069   5.115  15.683  0.00  0.00    +0.000 HD
ENDBRANCH   1  23
TORSDOF 4
ENDMDL
