MODEL 1
REMARK VINA RESULT:      -8.3      0.000      0.000
REMARK  Name = 
REMARK  7 active torsions:
REMARK  status: ('A' for Active; 'I' for Inactive)
REMARK    1  A    between atoms: C_1  and  C_2
REMARK    2  A    between atoms: C_2  and  C_3
REMARK    3  A    between atoms: C_3  and  C_4
REMARK    4  A    between atoms: C_4  and  O_5
REMARK    5  A    between atoms: O_5  and  C_6
REMARK    6  A    between atoms: C_10  and  N_11
REMARK    7  A    between atoms: C_12  and  C_14
REMARK                            x       y       z     vdW  Elec       q    Type
REMARK                         _______ _______ _______ _____ _____    ______ ____
ROOT
ATOM      1  C   UNL     1       1.893   4.302  18.690  0.00  0.00    +0.000 C 
ATOM      2  C   UNL     1       1.815   5.653  17.965  0.00  0.00    +0.000 C 
ATOM      3  C   UNL     1       2.342   6.796  18.826  0.00  0.00    +0.000 C 
ATOM      4  N   UNL     1       1.606   6.798  20.079  0.00  0.00    +0.000 N 
ATOM      5  C   UNL     1       1.146   7.976  20.558  0.00  0.00    +0.000 A 
ATOM      6  N   UNL     1       1.102   9.135  19.928  0.00  0.00    +0.000 NA
ATOM      7  C   UNL     1       0.484   9.978  20.809  0.00  0.00    +0.000 A 
ATOM      8  C   UNL     1       0.144  11.331  20.695  0.00  0.00    +0.000 A 
ATOM      9  C   UNL     1      -0.506  11.928  21.781  0.00  0.00    +0.000 A 
ATOM     10 CL   UNL     1      -0.957  13.589  21.679  0.00  0.00    +0.000 Cl
ATOM     11  C   UNL     1      -0.804  11.208  22.946  0.00  0.00    +0.000 A 
ATOM     12  C   UNL     1      -0.466   9.852  23.068  0.00  0.00    +0.000 A 
ATOM     13  C   UNL     1       0.174   9.292  21.969  0.00  0.00    +0.000 A 
ATOM     14  O   UNL     1       0.597   8.003  21.815  0.00  0.00    +0.000 OA
ATOM     15  C   UNL     1       1.747   5.611  20.904  0.00  0.00    +0.000 C 
ATOM     16  C   UNL     1       1.280   4.389  20.102  0.00  0.00    +0.000 C 
ENDROOT
BRANCH   1  18
ATOM     17  N   UNL     1       4.287   4.651  18.381  0.00  0.00    +0.000 N 
ATOM     18  C   UNL     1       3.312   3.727  18.703  0.00  0.00    +0.000 C 
ATOM     19  O   UNL     1       3.557   2.548  18.930  0.00  0.00    +0.000 OA
ATOM     20  H   UNL     1       4.002   5.592  18.147  0.00  0.00    +0.000 HD
BRANCH  17  25
ATOM     21  C   UNL     1       6.198   4.617  16.750  0.00  0.00    +0.000 C 
ATOM     22  C   UNL     1       7.711   4.701  16.931  0.00  0.00    +0.000 C 
ATOM     23  C   UNL     1       7.942   5.224  18.343  0.00  0.00    +0.000 C 
ATOM     24  C   UNL     1       6.610   5.110  19.076  0.00  0.00    +0.000 C 
ATOM     25  C   UNL     1       5.687   4.290  18.174  0.00  0.00    +0.000 C 
BRANCH  21  26
ATOM     26  O   UNL     1       5.916   3.619  15.761  0.00  0.00    +0.000 OA
BRANCH  26  27
ATOM     27  C   UNL     1       5.426   4.158  14.540  0.00  0.00    +0.000 C 
BRANCH  27  28
ATOM     28  C   UNL     1       6.511   4.159  13.467  0.00  0.00    +0.000 C 
BRANCH  28  30
ATOM     29  C   UNL     1       4.700   3.380  11.860  0.00  0.00    +0.000 C 
ATOM     30  C   UNL     1       6.122   3.184  12.353  0.00  0.00    +0.000 C 
ENDBRANCH  28  30
ENDBRANCH  27  28
ENDBRANCH  26  27
ENDBRANCH  21  26
ENDBRANCH  17  25
ENDBRANCH   1  18
TORSDOF 6
ENDMDL
MODEL 2
REMARK VINA RESULT:      -8.1      0.927      1.015
REMARK  Name = 
REMARK  7 active torsions:
REMARK  status: ('A' for Active; 'I' for Inactive)
REMARK    1  A    between atoms: C_1  and  C_2
REMARK    2  A    between atoms: C_2  and  C_3
REMARK    3  A    between atoms: C_3  and  C_4
REMARK    4  A    between atoms: C_4  and  O_5
REMARK    5  A    between atoms: O_5  and  C_6
REMARK    6  A    between atoms: C_10  and  N_11
REMARK    7  A    between atoms: C_12  and  C_14
REMARK                            x       y       z     vdW  Elec       q    Type
REMARK                         _______ _______ _______ _____ _____    ______ ____
ROOT
ATOM      1  C   UNL     1       2.099   4.794  18.722  0.00  0.00    +0.000 C 
ATOM      2  C   UNL     1       1.775   6.096  17.975  0.00  0.00    +0.000 C 
ATOM      3  C   UNL     1       2.201   7.330  18.765  0.00  0.00    +0.000 C 
ATOM      4  N   UNL     1       1.570   7.272  20.072  0.00  0.00    +0.000 N 
ATOM      5  C   UNL     1       0.987   8.390  20.560  0.00  0.00    +0.000 A 
ATOM      6  N   UNL     1       0.731   9.509  19.910  0.00  0.00    +0.000 NA
ATOM      7  C   UNL     1       0.070  10.288  20.819  0.00  0.00    +0.000 A 
ATOM      8  C   UNL     1      -0.466  11.575  20.702  0.00  0.00    +0.000 A 
ATOM      9  C   UNL     1      -1.108  12.113  21.822  0.00  0.00    +0.000 A 
ATOM     10 CL   UNL     1      -1.796  13.691  21.719  0.00  0.00    +0.000 Cl
ATOM     11  C   UNL     1      -1.211  11.399  23.024  0.00  0.00    +0.000 A 
ATOM     12  C   UNL     1      -0.677  10.107  23.149  0.00  0.00    +0.000 A 
ATOM     13  C   UNL     1      -0.050   9.605  22.015  0.00  0.00    +0.000 A 
ATOM     14  O   UNL     1       0.537   8.383  21.856  0.00  0.00    +0.000 OA
ATOM     15  C   UNL     1       1.940   6.145  20.910  0.00  0.00    +0.000 C 
ATOM     16  C   UNL     1       1.591   4.843  20.176  0.00  0.00    +0.000 C 
ENDROOT
BRANCH   1  18
ATOM     17  N   UNL     1       4.411   5.504  18.403  0.00  0.00    +0.000 N 
ATOM     18  C   UNL     1       3.582   4.423  18.634  0.00  0.00    +0.000 C 
ATOM     19  O   UNL     1       3.992   3.270  18.711  0.00  0.00    +0.000 OA
ATOM     20  H   UNL     1       3.993   6.417  18.289  0.00  0.00    +0.000 HD
BRANCH  17  25
ATOM     21  C   UNL     1       6.384   6.465  17.179  0.00  0.00    +0.000 C 
ATOM     22  C   UNL     1       7.881   6.471  17.478  0.00  0.00    +0.000 C 
ATOM     23  C   UNL     1       8.022   6.093  18.946  0.00  0.00    +0.000 C 
ATOM     24  C   UNL     1       6.672   5.542  19.390  0.00  0.00    +0.000 C 
ATOM     25  C   UNL     1       5.838   5.366  18.121  0.00  0.00    +0.000 C 
BRANCH  21  26
ATOM     26  O   UNL     1       6.203   6.210  15.780  0.00  0.00    +0.000 OA
BRANCH  26  27
ATOM     27  C   UNL     1       6.736   4.960  15.361  0.00  0.00    +0.000 C 
BRANCH  27  28
ATOM     28  C   UNL     1       5.772   4.240  14.423  0.00  0.00    +0.000 C 
BRANCH  28  30
ATOM     29  C   UNL     1       5.627   3.153  12.128  0.00  0.00    +0.000 C 
ATOM     30  C   UNL     1       6.478   3.955  13.095  0.00  0.00    +0.000 C 
ENDBRANCH  28  30
ENDBRANCH  27  28
ENDBRANCH  26  27
ENDBRANCH  21  26
ENDBRANCH  17  25
ENDBRANCH   1  18
TORSDOF 6
ENDMDL
MODEL 3
REMARK VINA RESULT:      -8.0      4.563      7.531
REMARK  Name = 
REMARK  7 active torsions:
REMARK  status: ('A' for Active; 'I' for Inactive)
REMARK    1  A    between atoms: C_1  and  C_2
REMARK    2  A    between atoms: C_2  and  C_3
REMARK    3  A    between atoms: C_3  and  C_4
REMARK    4  A    between atoms: C_4  and  O_5
REMARK    5  A    between atoms: O_5  and  C_6
REMARK    6  A    between atoms: C_10  and  N_11
REMARK    7  A    between atoms: C_12  and  C_14
REMARK                            x       y       z     vdW  Elec       q    Type
REMARK                         _______ _______ _______ _____ _____    ______ ____
ROOT
ATOM      1  C   UNL     1       6.395   4.867  17.283  0.00  0.00    +0.000 C 
ATOM      2  C   UNL     1       7.791   5.167  17.850  0.00  0.00    +0.000 C 
ATOM      3  C   UNL     1       7.785   6.386  18.768  0.00  0.00    +0.000 C 
ATOM      4  N   UNL     1       7.236   7.509  18.027  0.00  0.00    +0.000 N 
ATOM      5  C   UNL     1       7.868   8.703  18.099  0.00  0.00    +0.000 A 
ATOM      6  N   UNL     1       9.061   8.949  18.607  0.00  0.00    +0.000 NA
ATOM      7  C   UNL     1       9.266  10.278  18.365  0.00  0.00    +0.000 A 
ATOM      8  C   UNL     1      10.358  11.103  18.658  0.00  0.00    +0.000 A 
ATOM      9  C   UNL     1      10.279  12.444  18.267  0.00  0.00    +0.000 A 
ATOM     10 CL   UNL     1      11.607  13.494  18.595  0.00  0.00    +0.000 Cl
ATOM     11  C   UNL     1       9.150  12.953  17.610  0.00  0.00    +0.000 A 
ATOM     12  C   UNL     1       8.052  12.133  17.312  0.00  0.00    +0.000 A 
ATOM     13  C   UNL     1       8.167  10.807  17.712  0.00  0.00    +0.000 A 
ATOM     14  O   UNL     1       7.264   9.799  17.537  0.00  0.00    +0.000 OA
ATOM     15  C   UNL     1       5.861   7.369  17.582  0.00  0.00    +0.000 C 
ATOM     16  C   UNL     1       5.753   6.132  16.681  0.00  0.00    +0.000 C 
ENDROOT
BRANCH   1  18
ATOM     17  N   UNL     1       4.208   3.941  17.835  0.00  0.00    +0.000 N 
ATOM     18  C   UNL     1       5.485   4.179  18.304  0.00  0.00    +0.000 C 
ATOM     19  O   UNL     1       5.840   3.908  19.445  0.00  0.00    +0.000 OA
ATOM     20  H   UNL     1       3.971   4.249  16.902  0.00  0.00    +0.000 HD
BRANCH  17  25
ATOM     21  C   UNL     1       2.007   4.486  18.918  0.00  0.00    +0.000 C 
ATOM     22  C   UNL     1       0.806   3.626  19.304  0.00  0.00    +0.000 C 
ATOM     23  C   UNL     1       0.965   2.312  18.553  0.00  0.00    +0.000 C 
ATOM     24  C   UNL     1       2.395   2.278  18.025  0.00  0.00    +0.000 C 
ATOM     25  C   UNL     1       3.128   3.445  18.685  0.00  0.00    +0.000 C 
BRANCH  21  26
ATOM     26  O   UNL     1       2.255   5.418  19.978  0.00  0.00    +0.000 OA
BRANCH  26  27
ATOM     27  C   UNL     1       2.706   6.686  19.519  0.00  0.00    +0.000 C 
BRANCH  27  28
ATOM     28  C   UNL     1       2.183   6.979  18.116  0.00  0.00    +0.000 C 
BRANCH  28  30
ATOM     29  C   UNL     1       1.315   9.365  17.973  0.00  0.00    +0.000 C 
ATOM     30  C   UNL     1       2.492   8.434  17.754  0.00  0.00    +0.000 C 
ENDBRANCH  28  30
ENDBRANCH  27  28
ENDBRANCH  26  27
ENDBRANCH  21  26
ENDBRANCH  17  25
ENDBRANCH   1  18
TORSDOF 6
ENDMDL
MODEL 4
REMARK VINA RESULT:      -7.9      4.404      7.449
REMARK  Name = 
REMARK  7 active torsions:
REMARK  status: ('A' for Active; 'I' for Inactive)
REMARK    1  A    between atoms: C_1  and  C_2
REMARK    2  A    between atoms: C_2  and  C_3
REMARK    3  A    between atoms: C_3  and  C_4
REMARK    4  A    between atoms: C_4  and  O_5
REMARK    5  A    between atoms: O_5  and  C_6
REMARK    6  A    between atoms: C_10  and  N_11
REMARK    7  A    between atoms: C_12  and  C_14
REMARK                            x       y       z     vdW  Elec       q    Type
REMARK                         _______ _______ _______ _____ _____    ______ ____
ROOT
ATOM      1  C   UNL     1       6.774   4.713  16.885  0.00  0.00    +0.000 C 
ATOM      2  C   UNL     1       7.748   4.956  18.047  0.00  0.00    +0.000 C 
ATOM      3  C   UNL     1       7.417   6.234  18.812  0.00  0.00    +0.000 C 
ATOM      4  N   UNL     1       7.399   7.337  17.867  0.00  0.00    +0.000 N 
ATOM      5  C   UNL     1       8.027   8.487  18.201  0.00  0.00    +0.000 A 
ATOM      6  N   UNL     1       8.848   8.686  19.215  0.00  0.00    +0.000 NA
ATOM      7  C   UNL     1       9.267   9.978  19.064  0.00  0.00    +0.000 A 
ATOM      8  C   UNL     1      10.157  10.745  19.825  0.00  0.00    +0.000 A 
ATOM      9  C   UNL     1      10.402  12.058  19.406  0.00  0.00    +0.000 A 
ATOM     10 CL   UNL     1      11.502  13.034  20.306  0.00  0.00    +0.000 Cl
ATOM     11  C   UNL     1       9.779  12.595  18.271  0.00  0.00    +0.000 A 
ATOM     12  C   UNL     1       8.887  11.832  17.503  0.00  0.00    +0.000 A 
ATOM     13  C   UNL     1       8.671  10.533  17.947  0.00  0.00    +0.000 A 
ATOM     14  O   UNL     1       7.872   9.579  17.386  0.00  0.00    +0.000 OA
ATOM     15  C   UNL     1       6.399   7.260  16.816  0.00  0.00    +0.000 C 
ATOM     16  C   UNL     1       6.620   5.973  16.010  0.00  0.00    +0.000 C 
ENDROOT
BRANCH   1  18
ATOM     17  N   UNL     1       5.438   3.713  18.663  0.00  0.00    +0.000 N 
ATOM     18  C   UNL     1       5.426   4.162  17.357  0.00  0.00    +0.000 C 
ATOM     19  O   UNL     1       4.441   4.081  16.631  0.00  0.00    +0.000 OA
ATOM     20  H   UNL     1       6.306   3.756  19.180  0.00  0.00    +0.000 HD
BRANCH  17  25
ATOM     21  C   UNL     1       3.002   3.816  19.268  0.00  0.00    +0.000 C 
ATOM     22  C   UNL     1       1.923   2.744  19.395  0.00  0.00    +0.000 C 
ATOM     23  C   UNL     1       2.467   1.509  18.690  0.00  0.00    +0.000 C 
ATOM     24  C   UNL     1       3.956   1.749  18.470  0.00  0.00    +0.000 C 
ATOM     25  C   UNL     1       4.316   3.001  19.270  0.00  0.00    +0.000 C 
BRANCH  21  26
ATOM     26  O   UNL     1       2.856   4.736  20.358  0.00  0.00    +0.000 OA
BRANCH  26  27
ATOM     27  C   UNL     1       2.820   6.096  19.948  0.00  0.00    +0.000 C 
BRANCH  27  28
ATOM     28  C   UNL     1       2.409   6.216  18.483  0.00  0.00    +0.000 C 
BRANCH  28  30
ATOM     29  C   UNL     1       2.017   8.634  17.798  0.00  0.00    +0.000 C 
ATOM     30  C   UNL     1       3.012   7.492  17.891  0.00  0.00    +0.000 C 
ENDBRANCH  28  30
ENDBRANCH  27  28
ENDBRANCH  26  27
ENDBRANCH  21  26
ENDBRANCH  17  25
ENDBRANCH   1  18
TORSDOF 6
ENDMDL
MODEL 5
REMARK VINA RESULT:      -7.6      1.352      1.632
REMARK  Name = 
REMARK  7 active torsions:
REMARK  status: ('A' for Active; 'I' for Inactive)
REMARK    1  A    between atoms: C_1  and  C_2
REMARK    2  A    between atoms: C_2  and  C_3
REMARK    3  A    between atoms: C_3  and  C_4
REMARK    4  A    between atoms: C_4  and  O_5
REMARK    5  A    between atoms: O_5  and  C_6
REMARK    6  A    between atoms: C_10  and  N_11
REMARK    7  A    between atoms: C_12  and  C_14
REMARK                            x       y       z     vdW  Elec       q    Type
REMARK                         _______ _______ _______ _____ _____    ______ ____
ROOT
ATOM      1  C   UNL     1       2.231   6.197  18.218  0.00  0.00    +0.000 C 
ATOM      2  C   UNL     1       1.671   7.471  17.567  0.00  0.00    +0.000 C 
ATOM      3  C   UNL     1       1.967   8.715  18.400  0.00  0.00    +0.000 C 
ATOM      4  N   UNL     1       1.441   8.502  19.737  0.00  0.00    +0.000 N 
ATOM      5  C   UNL     1       0.737   9.497  20.323  0.00  0.00    +0.000 A 
ATOM      6  N   UNL     1       0.278  10.596  19.754  0.00  0.00    +0.000 NA
ATOM      7  C   UNL     1      -0.425  11.223  20.744  0.00  0.00    +0.000 A 
ATOM      8  C   UNL     1      -1.148  12.422  20.734  0.00  0.00    +0.000 A 
ATOM      9  C   UNL     1      -1.783  12.804  21.920  0.00  0.00    +0.000 A 
ATOM     10 CL   UNL     1      -2.697  14.266  21.949  0.00  0.00    +0.000 Cl
ATOM     11  C   UNL     1      -1.700  12.025  23.083  0.00  0.00    +0.000 A 
ATOM     12  C   UNL     1      -0.977  10.823  23.101  0.00  0.00    +0.000 A 
ATOM     13  C   UNL     1      -0.363  10.473  21.905  0.00  0.00    +0.000 A 
ATOM     14  O   UNL     1       0.383   9.361  21.641  0.00  0.00    +0.000 OA
ATOM     15  C   UNL     1       2.027   7.403  20.485  0.00  0.00    +0.000 C 
ATOM     16  C   UNL     1       1.820   6.100  19.701  0.00  0.00    +0.000 C 
ENDROOT
BRANCH   1  18
ATOM     17  N   UNL     1       4.230   4.809  18.362  0.00  0.00    +0.000 N 
ATOM     18  C   UNL     1       3.742   6.054  18.019  0.00  0.00    +0.000 C 
ATOM     19  O   UNL     1       4.459   6.972  17.638  0.00  0.00    +0.000 OA
ATOM     20  H   UNL     1       3.586   4.122  18.727  0.00  0.00    +0.000 HD
BRANCH  17  25
ATOM     21  C   UNL     1       6.393   4.809  17.084  0.00  0.00    +0.000 C 
ATOM     22  C   UNL     1       7.849   4.959  17.517  0.00  0.00    +0.000 C 
ATOM     23  C   UNL     1       7.815   5.526  18.930  0.00  0.00    +0.000 C 
ATOM     24  C   UNL     1       6.382   5.377  19.429  0.00  0.00    +0.000 C 
ATOM     25  C   UNL     1       5.657   4.499  18.409  0.00  0.00    +0.000 C 
BRANCH  21  26
ATOM     26  O   UNL     1       6.321   3.776  16.093  0.00  0.00    +0.000 OA
BRANCH  26  27
ATOM     27  C   UNL     1       6.675   4.219  14.789  0.00  0.00    +0.000 C 
BRANCH  27  28
ATOM     28  C   UNL     1       5.475   4.168  13.848  0.00  0.00    +0.000 C 
BRANCH  28  30
ATOM     29  C   UNL     1       4.708   3.123  11.660  0.00  0.00    +0.000 C 
ATOM     30  C   UNL     1       5.889   3.493  12.538  0.00  0.00    +0.000 C 
ENDBRANCH  28  30
ENDBRANCH  27  28
ENDBRANCH  26  27
ENDBRANCH  21  26
ENDBRANCH  17  25
ENDBRANCH   1  18
TORSDOF 6
ENDMDL
MODEL 6
REMARK VINA RESULT:      -7.3      4.292      9.485
REMARK  Name = 
REMARK  7 active torsions:
REMARK  status: ('A' for Active; 'I' for Inactive)
REMARK    1  A    between atoms: C_1  and  C_2
REMARK    2  A    between atoms: C_2  and  C_3
REMARK    3  A    between atoms: C_3  and  C_4
REMARK    4  A    between atoms: C_4  and  O_5
REMARK    5  A    between atoms: O_5  and  C_6
REMARK    6  A    between atoms: C_10  and  N_11
REMARK    7  A    between atoms: C_12  and  C_14
REMARK                            x       y       z     vdW  Elec       q    Type
REMARK                         _______ _______ _______ _____ _____    ______ ____
ROOT
ATOM      1  C   UNL     1       1.216  12.354  19.821  0.00  0.00    +0.000 C 
ATOM      2  C   UNL     1       1.895  11.682  18.619  0.00  0.00    +0.000 C 
ATOM      3  C   UNL     1       1.265  10.333  18.286  0.00  0.00    +0.000 C 
ATOM      4  N   UNL     1       1.309   9.505  19.479  0.00  0.00    +0.000 N 
ATOM      5  C   UNL     1       1.714   8.220  19.361  0.00  0.00    +0.000 A 
ATOM      6  N   UNL     1       2.280   7.652  18.313  0.00  0.00    +0.000 NA
ATOM      7  C   UNL     1       2.564   6.381  18.728  0.00  0.00    +0.000 A 
ATOM      8  C   UNL     1       3.181   5.317  18.059  0.00  0.00    +0.000 A 
ATOM      9  C   UNL     1       3.348   4.120  18.763  0.00  0.00    +0.000 A 
ATOM     10 CL   UNL     1       4.116   2.787  17.984  0.00  0.00    +0.000 Cl
ATOM     11  C   UNL     1       2.912   3.979  20.088  0.00  0.00    +0.000 A 
ATOM     12  C   UNL     1       2.293   5.041  20.765  0.00  0.00    +0.000 A 
ATOM     13  C   UNL     1       2.148   6.215  20.036  0.00  0.00    +0.000 A 
ATOM     14  O   UNL     1       1.600   7.394  20.450  0.00  0.00    +0.000 OA
ATOM     15  C   UNL     1       0.562   9.995  20.624  0.00  0.00    +0.000 C 
ATOM     16  C   UNL     1       1.096  11.381  21.011  0.00  0.00    +0.000 C 
ENDROOT
BRANCH   1  18
ATOM     17  N   UNL     1      -1.126  12.751  20.372  0.00  0.00    +0.000 N 
ATOM     18  C   UNL     1      -0.125  12.995  19.453  0.00  0.00    +0.000 C 
ATOM     19  O   UNL     1      -0.306  13.624  18.417  0.00  0.00    +0.000 OA
ATOM     20  H   UNL     1      -0.916  12.171  21.172  0.00  0.00    +0.000 HD
BRANCH  17  25
ATOM     21  C   UNL     1      -3.355  12.002  19.485  0.00  0.00    +0.000 C 
ATOM     22  C   UNL     1      -4.790  12.363  19.860  0.00  0.00    +0.000 C 
ATOM     23  C   UNL     1      -4.715  13.037  21.223  0.00  0.00    +0.000 C 
ATOM     24  C   UNL     1      -3.248  13.372  21.468  0.00  0.00    +0.000 C 
ATOM     25  C   UNL     1      -2.521  13.124  20.147  0.00  0.00    +0.000 C 
BRANCH  21  26
ATOM     26  O   UNL     1      -3.263  11.941  18.056  0.00  0.00    +0.000 OA
BRANCH  26  27
ATOM     27  C   UNL     1      -3.959  10.836  17.493  0.00  0.00    +0.000 C 
BRANCH  27  28
ATOM     28  C   UNL     1      -3.111  10.133  16.437  0.00  0.00    +0.000 C 
BRANCH  28  30
ATOM     29  C   UNL     1      -3.025   9.816  13.915  0.00  0.00    +0.000 C 
ATOM     30  C   UNL     1      -3.422  10.728  15.061  0.00  0.00    +0.000 C 
ENDBRANCH  28  30
ENDBRANCH  27  28
ENDBRANCH  26  27
ENDBRANCH  21  26
ENDBRANCH  17  25
ENDBRANCH   1  18
TORSDOF 6
ENDMDL
MODEL 7
REMARK VINA RESULT:      -7.2      7.837     11.419
REMARK  Name = 
REMARK  7 active torsions:
REMARK  status: ('A' for Active; 'I' for Inactive)
REMARK    1  A    between atoms: C_1  and  C_2
REMARK    2  A    between atoms: C_2  and  C_3
REMARK    3  A    between atoms: C_3  and  C_4
REMARK    4  A    between atoms: C_4  and  O_5
REMARK    5  A    between atoms: O_5  and  C_6
REMARK    6  A    between atoms: C_10  and  N_11
REMARK    7  A    between atoms: C_12  and  C_14
REMARK                            x       y       z     vdW  Elec       q    Type
REMARK                         _______ _______ _______ _____ _____    ______ ____
ROOT
ATOM      1  C   UNL     1      10.642  12.705  18.743  0.00  0.00    +0.000 C 
ATOM      2  C   UNL     1       9.894  12.279  17.471  0.00  0.00    +0.000 C 
ATOM      3  C   UNL     1       8.624  11.497  17.790  0.00  0.00    +0.000 C 
ATOM      4  N   UNL     1       8.986  10.363  18.624  0.00  0.00    +0.000 N 
ATOM      5  C   UNL     1       8.464   9.151  18.331  0.00  0.00    +0.000 A 
ATOM      6  N   UNL     1       7.807   8.804  17.240  0.00  0.00    +0.000 NA
ATOM      7  C   UNL     1       7.570   7.467  17.397  0.00  0.00    +0.000 A 
ATOM      8  C   UNL     1       6.927   6.548  16.560  0.00  0.00    +0.000 A 
ATOM      9  C   UNL     1       6.849   5.220  16.995  0.00  0.00    +0.000 A 
ATOM     10 CL   UNL     1       6.078   4.051  15.989  0.00  0.00    +0.000 Cl
ATOM     11  C   UNL     1       7.387   4.817  18.225  0.00  0.00    +0.000 A 
ATOM     12  C   UNL     1       8.034   5.732  19.070  0.00  0.00    +0.000 A 
ATOM     13  C   UNL     1       8.095   7.040  18.603  0.00  0.00    +0.000 A 
ATOM     14  O   UNL     1       8.673   8.118  19.209  0.00  0.00    +0.000 OA
ATOM     15  C   UNL     1       9.564  10.682  19.918  0.00  0.00    +0.000 C 
ATOM     16  C   UNL     1      10.835  11.515  19.703  0.00  0.00    +0.000 C 
ENDROOT
BRANCH   1  18
ATOM     17  N   UNL     1      10.296  14.014  20.771  0.00  0.00    +0.000 N 
ATOM     18  C   UNL     1       9.992  13.910  19.428  0.00  0.00    +0.000 C 
ATOM     19  O   UNL     1       9.233  14.681  18.851  0.00  0.00    +0.000 OA
ATOM     20  H   UNL     1      10.880  13.304  21.190  0.00  0.00    +0.000 HD
BRANCH  17  25
ATOM     21  C   UNL     1       8.915  14.334  22.845  0.00  0.00    +0.000 C 
ATOM     22  C   UNL     1       8.843  15.459  23.875  0.00  0.00    +0.000 C 
ATOM     23  C   UNL     1      10.098  16.298  23.674  0.00  0.00    +0.000 C 
ATOM     24  C   UNL     1      10.700  15.877  22.338  0.00  0.00    +0.000 C 
ATOM     25  C   UNL     1       9.660  14.986  21.657  0.00  0.00    +0.000 C 
BRANCH  21  26
ATOM     26  O   UNL     1       7.580  13.899  22.558  0.00  0.00    +0.000 OA
BRANCH  26  27
ATOM     27  C   UNL     1       6.814  13.621  23.724  0.00  0.00    +0.000 C 
BRANCH  27  28
ATOM     28  C   UNL     1       6.316  12.178  23.721  0.00  0.00    +0.000 C 
BRANCH  28  30
ATOM     29  C   UNL     1       7.355  12.284  26.040  0.00  0.00    +0.000 C 
ATOM     30  C   UNL     1       6.995  11.406  24.855  0.00  0.00    +0.000 C 
ENDBRANCH  28  30
ENDBRANCH  27  28
ENDBRANCH  26  27
ENDBRANCH  21  26
ENDBRANCH  17  25
ENDBRANCH   1  18
TORSDOF 6
ENDMDL
MODEL 8
REMARK VINA RESULT:      -7.1      4.836      9.048
REMARK  Name = 
REMARK  7 active torsions:
REMARK  status: ('A' for Active; 'I' for Inactive)
REMARK    1  A    between atoms: C_1  and  C_2
REMARK    2  A    between atoms: C_2  and  C_3
REMARK    3  A    between atoms: C_3  and  C_4
REMARK    4  A    between atoms: C_4  and  O_5
REMARK    5  A    between atoms: O_5  and  C_6
REMARK    6  A    between atoms: C_10  and  N_11
REMARK    7  A    between atoms: C_12  and  C_14
REMARK                            x       y       z     vdW  Elec       q    Type
REMARK                         _______ _______ _______ _____ _____    ______ ____
ROOT
ATOM      1  C   UNL     1       1.230  11.587  19.566  0.00  0.00    +0.000 C 
ATOM      2  C   UNL     1       1.939  10.785  18.464  0.00  0.00    +0.000 C 
ATOM      3  C   UNL     1       1.296   9.418  18.250  0.00  0.00    +0.000 C 
ATOM      4  N   UNL     1       1.285   8.717  19.522  0.00  0.00    +0.000 N 
ATOM      5  C   UNL     1       1.671   7.422  19.552  0.00  0.00    +0.000 A 
ATOM      6  N   UNL     1       2.263   6.740  18.589  0.00  0.00    +0.000 NA
ATOM      7  C   UNL     1       2.511   5.515  19.142  0.00  0.00    +0.000 A 
ATOM      8  C   UNL     1       3.131   4.379  18.609  0.00  0.00    +0.000 A 
ATOM      9  C   UNL     1       3.253   3.259  19.439  0.00  0.00    +0.000 A 
ATOM     10 CL   UNL     1       4.024   1.843  18.828  0.00  0.00    +0.000 Cl
ATOM     11  C   UNL     1       2.769   3.262  20.754  0.00  0.00    +0.000 A 
ATOM     12  C   UNL     1       2.146   4.397  21.296  0.00  0.00    +0.000 A 
ATOM     13  C   UNL     1       2.046   5.491  20.445  0.00  0.00    +0.000 A 
ATOM     14  O   UNL     1       1.505   6.715  20.715  0.00  0.00    +0.000 OA
ATOM     15  C   UNL     1       0.508   9.334  20.583  0.00  0.00    +0.000 C 
ATOM     16  C   UNL     1       1.052  10.744  20.844  0.00  0.00    +0.000 C 
ENDROOT
BRANCH   1  18
ATOM     17  N   UNL     1      -1.092  11.280  18.887  0.00  0.00    +0.000 N 
ATOM     18  C   UNL     1      -0.086  12.205  19.085  0.00  0.00    +0.000 C 
ATOM     19  O   UNL     1      -0.220  13.401  18.851  0.00  0.00    +0.000 OA
ATOM     20  H   UNL     1      -0.887  10.303  19.043  0.00  0.00    +0.000 HD
BRANCH  17  25
ATOM     21  C   UNL     1      -3.142  10.389  17.740  0.00  0.00    +0.000 C 
ATOM     22  C   UNL     1      -4.590  10.869  17.692  0.00  0.00    +0.000 C 
ATOM     23  C   UNL     1      -4.745  11.864  18.835  0.00  0.00    +0.000 C 
ATOM     24  C   UNL     1      -3.338  12.212  19.308  0.00  0.00    +0.000 C 
ATOM     25  C   UNL     1      -2.376  11.620  18.278  0.00  0.00    +0.000 C 
BRANCH  21  26
ATOM     26  O   UNL     1      -2.762   9.966  16.424  0.00  0.00    +0.000 OA
BRANCH  26  27
ATOM     27  C   UNL     1      -3.460  10.647  15.389  0.00  0.00    +0.000 C 
BRANCH  27  28
ATOM     28  C   UNL     1      -3.128  10.056  14.022  0.00  0.00    +0.000 C 
BRANCH  28  30
ATOM     29  C   UNL     1      -4.198   9.737  11.738  0.00  0.00    +0.000 C 
ATOM     30  C   UNL     1      -4.423   9.845  13.234  0.00  0.00    +0.000 C 
ENDBRANCH  28  30
ENDBRANCH  27  28
ENDBRANCH  26  27
ENDBRANCH  21  26
ENDBRANCH  17  25
ENDBRANCH   1  18
TORSDOF 6
ENDMDL
MODEL 9
REMARK VINA RESULT:      -7.1      4.261      9.922
REMARK  Name = 
REMARK  7 active torsions:
REMARK  status: ('A' for Active; 'I' for Inactive)
REMARK    1  A    between atoms: C_1  and  C_2
REMARK    2  A    between atoms: C_2  and  C_3
REMARK    3  A    between atoms: C_3  and  C_4
REMARK    4  A    between atoms: C_4  and  O_5
REMARK    5  A    between atoms: O_5  and  C_6
REMARK    6  A    between atoms: C_10  and  N_11
REMARK    7  A    between atoms: C_12  and  C_14
REMARK                            x       y       z     vdW  Elec       q    Type
REMARK                         _______ _______ _______ _____ _____    ______ ____
ROOT
ATOM      1  C   UNL     1       0.129  12.221  21.310  0.00  0.00    +0.000 C 
ATOM      2  C   UNL     1       1.202  11.913  20.255  0.00  0.00    +0.000 C 
ATOM      3  C   UNL     1       0.880  10.649  19.465  0.00  0.00    +0.000 C 
ATOM      4  N   UNL     1       0.703   9.557  20.408  0.00  0.00    +0.000 N 
ATOM      5  C   UNL     1       1.297   8.371  20.144  0.00  0.00    +0.000 A 
ATOM      6  N   UNL     1       2.205   8.117  19.221  0.00  0.00    +0.000 NA
ATOM      7  C   UNL     1       2.534   6.806  19.419  0.00  0.00    +0.000 A 
ATOM      8  C   UNL     1       3.453   5.983  18.756  0.00  0.00    +0.000 A 
ATOM      9  C   UNL     1       3.579   4.663  19.203  0.00  0.00    +0.000 A 
ATOM     10 CL   UNL     1       4.709   3.619  18.425  0.00  0.00    +0.000 Cl
ATOM     11  C   UNL     1       2.815   4.172  20.271  0.00  0.00    +0.000 A 
ATOM     12  C   UNL     1       1.893   4.991  20.940  0.00  0.00    +0.000 A 
ATOM     13  C   UNL     1       1.797   6.295  20.472  0.00  0.00    +0.000 A 
ATOM     14  O   UNL     1       0.999   7.297  20.944  0.00  0.00    +0.000 OA
ATOM     15  C   UNL     1      -0.393   9.699  21.350  0.00  0.00    +0.000 C 
ATOM     16  C   UNL     1      -0.183  10.980  22.169  0.00  0.00    +0.000 C 
ENDROOT
BRANCH   1  18
ATOM     17  N   UNL     1      -2.260  12.678  21.477  0.00  0.00    +0.000 N 
ATOM     18  C   UNL     1      -1.131  12.842  20.699  0.00  0.00    +0.000 C 
ATOM     19  O   UNL     1      -1.146  13.389  19.603  0.00  0.00    +0.000 OA
ATOM     20  H   UNL     1      -2.181  12.162  22.342  0.00  0.00    +0.000 HD
BRANCH  17  25
ATOM     21  C   UNL     1      -4.276  11.944  20.168  0.00  0.00    +0.000 C 
ATOM     22  C   UNL     1      -5.763  12.267  20.294  0.00  0.00    +0.000 C 
ATOM     23  C   UNL     1      -5.949  12.875  21.677  0.00  0.00    +0.000 C 
ATOM     24  C   UNL     1      -4.558  13.217  22.198  0.00  0.00    +0.000 C 
ATOM     25  C   UNL     1      -3.600  13.044  21.020  0.00  0.00    +0.000 C 
BRANCH  21  26
ATOM     26  O   UNL     1      -3.927  11.952  18.778  0.00  0.00    +0.000 OA
BRANCH  26  27
ATOM     27  C   UNL     1      -5.034  11.715  17.917  0.00  0.00    +0.000 C 
BRANCH  27  28
ATOM     28  C   UNL     1      -4.578  11.556  16.470  0.00  0.00    +0.000 C 
BRANCH  28  30
ATOM     29  C   UNL     1      -2.960  10.166  15.084  0.00  0.00    +0.000 C 
ATOM     30  C   UNL     1      -3.256  10.785  16.438  0.00  0.00    +0.000 C 
ENDBRANCH  28  30
ENDBRANCH  27  28
ENDBRANCH  26  27
ENDBRANCH  21  26
ENDBRANCH  17  25
ENDBRANCH   1  18
TORSDOF 6
ENDMDL
