MODEL 1
REMARK VINA RESULT:      -7.5      0.000      0.000
REMARK  Name = 
REMARK  7 active torsions:
REMARK  status: ('A' for Active; 'I' for Inactive)
REMARK    1  A    between atoms: C_2  and  C_3
REMARK    2  A    between atoms: C_3  and  N_4
REMARK    3  A    between atoms: C_8  and  C_9
REMARK    4  A    between atoms: C_9  and  N_10
REMARK    5  A    between atoms: N_15  and  C_16
REMARK    6  A    between atoms: C_16  and  C_17
REMARK    7  A    between atoms: C_17  and  C_18
REMARK                            x       y       z     vdW  Elec       q    Type
REMARK                         _______ _______ _______ _____ _____    ______ ____
ROOT
ATOM      1  O   UNL     1       2.602   7.343  18.719  0.00  0.00    +0.000 OA
ATOM      2  C   UNL     1       2.469   6.557  19.654  0.00  0.00    +0.000 C 
ATOM      3  N   UNL     1       1.921   6.926  20.868  0.00  0.00    +0.000 N 
ATOM      4  H   UNL     1       1.926   6.269  21.638  0.00  0.00    +0.000 HD
ENDROOT
BRANCH   2   5
ATOM      5  C   UNL     1       2.936   5.093  19.596  0.00  0.00    +0.000 C 
BRANCH   5   6
ATOM      6  N   UNL     1       2.785   4.542  18.233  0.00  0.00    +0.000 NA
ATOM      7  C   UNL     1       1.491   3.860  18.080  0.00  0.00    +0.000 C 
ATOM      8  C   UNL     1       1.778   2.411  18.416  0.00  0.00    +0.000 C 
ATOM      9  C   UNL     1       3.128   2.196  17.765  0.00  0.00    +0.000 C 
ATOM     10  C   UNL     1       3.839   3.551  17.886  0.00  0.00    +0.000 C 
BRANCH  10  11
ATOM     11  C   UNL     1       4.558   3.984  16.596  0.00  0.00    +0.000 C 
BRANCH  11  12
ATOM     12  N   UNL     1       5.495   5.063  16.814  0.00  0.00    +0.000 N 
ATOM     13  C   UNL     1       5.423   6.340  16.353  0.00  0.00    +0.000 A 
ATOM     14  N   UNL     1       6.449   7.027  16.805  0.00  0.00    +0.000 NA
ATOM     15  C   UNL     1       7.143   6.100  17.527  0.00  0.00    +0.000 A 
ATOM     16  N   UNL     1       6.601   4.883  17.562  0.00  0.00    +0.000 NA
ENDBRANCH  11  12
ENDBRANCH  10  11
ENDBRANCH   5   6
ENDBRANCH   2   5
BRANCH   3  17
ATOM     17  C   UNL     1       1.496   8.289  21.133  0.00  0.00    +0.000 C 
BRANCH  17  18
ATOM     18  C   UNL     1      -0.020   8.416  21.294  0.00  0.00    +0.000 C 
BRANCH  18  19
ATOM     19  C   UNL     1      -0.462   9.845  21.438  0.00  0.00    +0.000 A 
ATOM     20  C   UNL     1      -0.738  10.632  20.318  0.00  0.00    +0.000 A 
ATOM     21  F   UNL     1      -0.591  10.118  19.089  0.00  0.00    +0.000 F 
ATOM     22  C   UNL     1      -1.167  11.951  20.443  0.00  0.00    +0.000 A 
ATOM     23  C   UNL     1      -1.320  12.513  21.710  0.00  0.00    +0.000 A 
ATOM     24  C   UNL     1      -1.030  11.750  22.840  0.00  0.00    +0.000 A 
ATOM     25  C   UNL     1      -0.602  10.432  22.696  0.00  0.00    +0.000 A 
ATOM     26  F   UNL     1      -0.320   9.721  23.797  0.00  0.00    +0.000 F 
ENDBRANCH  18  19
ENDBRANCH  17  18
ENDBRANCH   3  17
TORSDOF 7
ENDMDL
MODEL 2
REMARK VINA RESULT:      -7.4      0.506      1.814
REMARK  Name = 
REMARK  7 active torsions:
REMARK  status: ('A' for Active; 'I' for Inactive)
REMARK    1  A    between atoms: C_2  and  C_3
REMARK    2  A    between atoms: C_3  and  N_4
REMARK    3  A    between atoms: C_8  and  C_9
REMARK    4  A    between atoms: C_9  and  N_10
REMARK    5  A    between atoms: N_15  and  C_16
REMARK    6  A    between atoms: C_16  and  C_17
REMARK    7  A    between atoms: C_17  and  C_18
REMARK                            x       y       z     vdW  Elec       q    Type
REMARK                         _______ _______ _______ _____ _____    ______ ____
ROOT
ATOM      1  O   UNL     1       2.450   7.404  18.727  0.00  0.00    +0.000 OA
ATOM      2  C   UNL     1       2.418   6.630  19.681  0.00  0.00    +0.000 C 
ATOM      3  N   UNL     1       1.959   7.003  20.931  0.00  0.00    +0.000 N 
ATOM      4  H   UNL     1       2.047   6.360  21.707  0.00  0.00    +0.000 HD
ENDROOT
BRANCH   2   5
ATOM      5  C   UNL     1       2.924   5.181  19.606  0.00  0.00    +0.000 C 
BRANCH   5   6
ATOM      6  N   UNL     1       2.784   4.640  18.238  0.00  0.00    +0.000 NA
ATOM      7  C   UNL     1       1.460   4.028  18.046  0.00  0.00    +0.000 C 
ATOM      8  C   UNL     1       1.660   2.566  18.387  0.00  0.00    +0.000 C 
ATOM      9  C   UNL     1       3.014   2.279  17.775  0.00  0.00    +0.000 C 
ATOM     10  C   UNL     1       3.793   3.594  17.920  0.00  0.00    +0.000 C 
BRANCH  10  11
ATOM     11  C   UNL     1       4.571   3.989  16.652  0.00  0.00    +0.000 C 
BRANCH  11  12
ATOM     12  N   UNL     1       5.665   4.893  16.928  0.00  0.00    +0.000 N 
ATOM     13  C   UNL     1       6.922   4.583  17.345  0.00  0.00    +0.000 A 
ATOM     14  N   UNL     1       7.634   5.684  17.442  0.00  0.00    +0.000 NA
ATOM     15  C   UNL     1       6.743   6.656  17.092  0.00  0.00    +0.000 A 
ATOM     16  N   UNL     1       5.524   6.223  16.771  0.00  0.00    +0.000 NA
ENDBRANCH  11  12
ENDBRANCH  10  11
ENDBRANCH   5   6
ENDBRANCH   2   5
BRANCH   3  17
ATOM     17  C   UNL     1       1.514   8.357  21.209  0.00  0.00    +0.000 C 
BRANCH  17  18
ATOM     18  C   UNL     1      -0.008   8.471  21.310  0.00  0.00    +0.000 C 
BRANCH  18  19
ATOM     19  C   UNL     1      -0.467   9.897  21.439  0.00  0.00    +0.000 A 
ATOM     20  C   UNL     1      -0.659  10.483  22.692  0.00  0.00    +0.000 A 
ATOM     21  F   UNL     1      -0.451   9.763  23.803  0.00  0.00    +0.000 F 
ATOM     22  C   UNL     1      -1.065  11.809  22.822  0.00  0.00    +0.000 A 
ATOM     23  C   UNL     1      -1.297  12.577  21.681  0.00  0.00    +0.000 A 
ATOM     24  C   UNL     1      -1.130  12.005  20.421  0.00  0.00    +0.000 A 
ATOM     25  C   UNL     1      -0.723  10.676  20.311  0.00  0.00    +0.000 A 
ATOM     26  F   UNL     1      -0.579  10.144  19.089  0.00  0.00    +0.000 F 
ENDBRANCH  18  19
ENDBRANCH  17  18
ENDBRANCH   3  17
TORSDOF 7
ENDMDL
MODEL 3
REMARK VINA RESULT:      -7.4      3.990      7.177
REMARK  Name = 
REMARK  7 active torsions:
REMARK  status: ('A' for Active; 'I' for Inactive)
REMARK    1  A    between atoms: C_2  and  C_3
REMARK    2  A    between atoms: C_3  and  N_4
REMARK    3  A    between atoms: C_8  and  C_9
REMARK    4  A    between atoms: C_9  and  N_10
REMARK    5  A    between atoms: N_15  and  C_16
REMARK    6  A    between atoms: C_16  and  C_17
REMARK    7  A    between atoms: C_17  and  C_18
REMARK                            x       y       z     vdW  Elec       q    Type
REMARK                         _______ _______ _______ _____ _____    ______ ____
ROOT
ATOM      1  O   UNL     1       2.284   3.006  16.750  0.00  0.00    +0.000 OA
ATOM      2  C   UNL     1       3.209   2.833  17.539  0.00  0.00    +0.000 C 
ATOM      3  N   UNL     1       4.516   3.176  17.245  0.00  0.00    +0.000 N 
ATOM      4  H   UNL     1       5.255   2.923  17.887  0.00  0.00    +0.000 HD
ENDROOT
BRANCH   2   5
ATOM      5  C   UNL     1       3.028   2.180  18.919  0.00  0.00    +0.000 C 
BRANCH   5   6
ATOM      6  N   UNL     1       3.236   3.162  20.003  0.00  0.00    +0.000 NA
ATOM      7  C   UNL     1       2.841   2.602  21.305  0.00  0.00    +0.000 C 
ATOM      8  C   UNL     1       1.396   3.017  21.480  0.00  0.00    +0.000 C 
ATOM      9  C   UNL     1       1.404   4.430  20.938  0.00  0.00    +0.000 C 
ATOM     10  C   UNL     1       2.451   4.411  19.815  0.00  0.00    +0.000 C 
BRANCH  10  11
ATOM     11  C   UNL     1       3.394   5.627  19.835  0.00  0.00    +0.000 C 
BRANCH  11  12
ATOM     12  N   UNL     1       2.796   6.806  19.248  0.00  0.00    +0.000 N 
ATOM     13  C   UNL     1       2.002   7.730  19.851  0.00  0.00    +0.000 A 
ATOM     14  N   UNL     1       1.696   8.674  18.989  0.00  0.00    +0.000 NA
ATOM     15  C   UNL     1       2.318   8.257  17.847  0.00  0.00    +0.000 A 
ATOM     16  N   UNL     1       3.002   7.119  17.954  0.00  0.00    +0.000 NA
ENDBRANCH  11  12
ENDBRANCH  10  11
ENDBRANCH   5   6
ENDBRANCH   2   5
BRANCH   3  17
ATOM     17  C   UNL     1       4.888   3.734  15.956  0.00  0.00    +0.000 C 
BRANCH  17  18
ATOM     18  C   UNL     1       6.378   4.070  15.866  0.00  0.00    +0.000 C 
BRANCH  18  19
ATOM     19  C   UNL     1       6.742   5.277  16.684  0.00  0.00    +0.000 A 
ATOM     20  C   UNL     1       7.668   5.191  17.725  0.00  0.00    +0.000 A 
ATOM     21  F   UNL     1       8.234   4.012  18.018  0.00  0.00    +0.000 F 
ATOM     22  C   UNL     1       8.026   6.309  18.476  0.00  0.00    +0.000 A 
ATOM     23  C   UNL     1       7.446   7.545  18.197  0.00  0.00    +0.000 A 
ATOM     24  C   UNL     1       6.503   7.648  17.175  0.00  0.00    +0.000 A 
ATOM     25  C   UNL     1       6.158   6.519  16.434  0.00  0.00    +0.000 A 
ATOM     26  F   UNL     1       5.242   6.640  15.463  0.00  0.00    +0.000 F 
ENDBRANCH  18  19
ENDBRANCH  17  18
ENDBRANCH   3  17
TORSDOF 7
ENDMDL
MODEL 4
REMARK VINA RESULT:      -7.3      5.439      8.097
REMARK  Name = 
REMARK  7 active torsions:
REMARK  status: ('A' for Active; 'I' for Inactive)
REMARK    1  A    between atoms: C_2  and  C_3
REMARK    2  A    between atoms: C_3  and  N_4
REMARK    3  A    between atoms: C_8  and  C_9
REMARK    4  A    between atoms: C_9  and  N_10
REMARK    5  A    between atoms: N_15  and  C_16
REMARK    6  A    between atoms: C_16  and  C_17
REMARK    7  A    between atoms: C_17  and  C_18
REMARK                            x       y       z     vdW  Elec       q    Type
REMARK                         _______ _______ _______ _____ _____    ______ ____
ROOT
ATOM      1  O   UNL     1       7.871   6.541  18.633  0.00  0.00    +0.000 OA
ATOM      2  C   UNL     1       7.324   7.205  17.756  0.00  0.00    +0.000 C 
ATOM      3  N   UNL     1       7.668   8.516  17.487  0.00  0.00    +0.000 N 
ATOM      4  H   UNL     1       7.120   9.050  16.824  0.00  0.00    +0.000 HD
ENDROOT
BRANCH   2   5
ATOM      5  C   UNL     1       6.172   6.668  16.890  0.00  0.00    +0.000 C 
BRANCH   5   6
ATOM      6  N   UNL     1       6.306   5.213  16.670  0.00  0.00    +0.000 NA
ATOM      7  C   UNL     1       7.409   4.919  15.742  0.00  0.00    +0.000 C 
ATOM      8  C   UNL     1       6.757   4.862  14.377  0.00  0.00    +0.000 C 
ATOM      9  C   UNL     1       5.458   4.146  14.675  0.00  0.00    +0.000 C 
ATOM     10  C   UNL     1       5.081   4.597  16.094  0.00  0.00    +0.000 C 
BRANCH  10  11
ATOM     11  C   UNL     1       4.602   3.446  16.996  0.00  0.00    +0.000 C 
BRANCH  11  12
ATOM     12  N   UNL     1       3.388   3.767  17.713  0.00  0.00    +0.000 N 
ATOM     13  C   UNL     1       3.262   4.446  18.884  0.00  0.00    +0.000 A 
ATOM     14  N   UNL     1       1.988   4.567  19.185  0.00  0.00    +0.000 NA
ATOM     15  C   UNL     1       1.369   3.910  18.161  0.00  0.00    +0.000 A 
ATOM     16  N   UNL     1       2.182   3.402  17.236  0.00  0.00    +0.000 NA
ENDBRANCH  11  12
ENDBRANCH  10  11
ENDBRANCH   5   6
ENDBRANCH   2   5
BRANCH   3  17
ATOM     17  C   UNL     1       8.681   9.215  18.258  0.00  0.00    +0.000 C 
BRANCH  17  18
ATOM     18  C   UNL     1       8.690  10.722  17.997  0.00  0.00    +0.000 C 
BRANCH  18  19
ATOM     19  C   UNL     1       9.845  11.411  18.666  0.00  0.00    +0.000 A 
ATOM     20  C   UNL     1      10.792  12.119  17.923  0.00  0.00    +0.000 A 
ATOM     21  F   UNL     1      10.688  12.174  16.589  0.00  0.00    +0.000 F 
ATOM     22  C   UNL     1      11.856  12.778  18.537  0.00  0.00    +0.000 A 
ATOM     23  C   UNL     1      11.993  12.729  19.924  0.00  0.00    +0.000 A 
ATOM     24  C   UNL     1      11.069  12.011  20.681  0.00  0.00    +0.000 A 
ATOM     25  C   UNL     1      10.012  11.358  20.050  0.00  0.00    +0.000 A 
ATOM     26  F   UNL     1       9.141  10.666  20.798  0.00  0.00    +0.000 F 
ENDBRANCH  18  19
ENDBRANCH  17  18
ENDBRANCH   3  17
TORSDOF 7
ENDMDL
MODEL 5
REMARK VINA RESULT:      -7.3      3.756      5.931
REMARK  Name = 
REMARK  7 active torsions:
REMARK  status: ('A' for Active; 'I' for Inactive)
REMARK    1  A    between atoms: C_2  and  C_3
REMARK    2  A    between atoms: C_3  and  N_4
REMARK    3  A    between atoms: C_8  and  C_9
REMARK    4  A    between atoms: C_9  and  N_10
REMARK    5  A    between atoms: N_15  and  C_16
REMARK    6  A    between atoms: C_16  and  C_17
REMARK    7  A    between atoms: C_17  and  C_18
REMARK                            x       y       z     vdW  Elec       q    Type
REMARK                         _______ _______ _______ _____ _____    ______ ____
ROOT
ATOM      1  O   UNL     1       2.599   7.900  17.854  0.00  0.00    +0.000 OA
ATOM      2  C   UNL     1       3.438   7.089  18.239  0.00  0.00    +0.000 C 
ATOM      3  N   UNL     1       3.254   6.297  19.356  0.00  0.00    +0.000 N 
ATOM      4  H   UNL     1       4.015   5.719  19.688  0.00  0.00    +0.000 HD
ENDROOT
BRANCH   2   5
ATOM      5  C   UNL     1       4.799   6.896  17.550  0.00  0.00    +0.000 C 
BRANCH   5   6
ATOM      6  N   UNL     1       5.213   5.478  17.580  0.00  0.00    +0.000 NA
ATOM      7  C   UNL     1       5.625   5.078  18.935  0.00  0.00    +0.000 C 
ATOM      8  C   UNL     1       7.121   5.307  18.966  0.00  0.00    +0.000 C 
ATOM      9  C   UNL     1       7.542   4.834  17.591  0.00  0.00    +0.000 C 
ATOM     10  C   UNL     1       6.359   5.187  16.678  0.00  0.00    +0.000 C 
BRANCH  10  11
ATOM     11  C   UNL     1       5.981   4.060  15.701  0.00  0.00    +0.000 C 
BRANCH  11  12
ATOM     12  N   UNL     1       6.512   4.271  14.373  0.00  0.00    +0.000 N 
ATOM     13  C   UNL     1       6.199   3.604  13.231  0.00  0.00    +0.000 A 
ATOM     14  N   UNL     1       6.867   4.121  12.224  0.00  0.00    +0.000 NA
ATOM     15  C   UNL     1       7.607   5.101  12.821  0.00  0.00    +0.000 A 
ATOM     16  N   UNL     1       7.426   5.231  14.134  0.00  0.00    +0.000 NA
ENDBRANCH  11  12
ENDBRANCH  10  11
ENDBRANCH   5   6
ENDBRANCH   2   5
BRANCH   3  17
ATOM     17  C   UNL     1       2.061   6.399  20.178  0.00  0.00    +0.000 C 
BRANCH  17  18
ATOM     18  C   UNL     1       1.255   5.099  20.214  0.00  0.00    +0.000 C 
BRANCH  18  19
ATOM     19  C   UNL     1       1.969   3.965  19.534  0.00  0.00    +0.000 A 
ATOM     20  C   UNL     1       1.925   3.813  18.147  0.00  0.00    +0.000 A 
ATOM     21  F   UNL     1       1.221   4.677  17.403  0.00  0.00    +0.000 F 
ATOM     22  C   UNL     1       2.600   2.776  17.506  0.00  0.00    +0.000 A 
ATOM     23  C   UNL     1       3.332   1.858  18.257  0.00  0.00    +0.000 A 
ATOM     24  C   UNL     1       3.372   1.981  19.645  0.00  0.00    +0.000 A 
ATOM     25  C   UNL     1       2.690   3.025  20.269  0.00  0.00    +0.000 A 
ATOM     26  F   UNL     1       2.734   3.117  21.606  0.00  0.00    +0.000 F 
ENDBRANCH  18  19
ENDBRANCH  17  18
ENDBRANCH   3  17
TORSDOF 7
ENDMDL
MODEL 6
REMARK VINA RESULT:      -7.2      5.269      7.646
REMARK  Name = 
REMARK  7 active torsions:
REMARK  status: ('A' for Active; 'I' for Inactive)
REMARK    1  A    between atoms: C_2  and  C_3
REMARK    2  A    between atoms: C_3  and  N_4
REMARK    3  A    between atoms: C_8  and  C_9
REMARK    4  A    between atoms: C_9  and  N_10
REMARK    5  A    between atoms: N_15  and  C_16
REMARK    6  A    between atoms: C_16  and  C_17
REMARK    7  A    between atoms: C_17  and  C_18
REMARK                            x       y       z     vdW  Elec       q    Type
REMARK                         _______ _______ _______ _____ _____    ______ ____
ROOT
ATOM      1  O   UNL     1       8.263   6.815  18.827  0.00  0.00    +0.000 OA
ATOM      2  C   UNL     1       7.694   7.455  17.947  0.00  0.00    +0.000 C 
ATOM      3  N   UNL     1       7.872   8.816  17.779  0.00  0.00    +0.000 N 
ATOM      4  H   UNL     1       7.305   9.313  17.105  0.00  0.00    +0.000 HD
ENDROOT
BRANCH   2   5
ATOM      5  C   UNL     1       6.692   6.828  16.964  0.00  0.00    +0.000 C 
BRANCH   5   6
ATOM      6  N   UNL     1       6.543   5.378  17.210  0.00  0.00    +0.000 NA
ATOM      7  C   UNL     1       7.115   4.595  16.104  0.00  0.00    +0.000 C 
ATOM      8  C   UNL     1       5.953   4.350  15.165  0.00  0.00    +0.000 C 
ATOM      9  C   UNL     1       4.819   4.076  16.129  0.00  0.00    +0.000 C 
ATOM     10  C   UNL     1       5.125   4.954  17.350  0.00  0.00    +0.000 C 
BRANCH  10  11
ATOM     11  C   UNL     1       4.928   4.228  18.693  0.00  0.00    +0.000 C 
BRANCH  11  12
ATOM     12  N   UNL     1       3.578   4.342  19.197  0.00  0.00    +0.000 N 
ATOM     13  C   UNL     1       3.054   5.331  19.969  0.00  0.00    +0.000 A 
ATOM     14  N   UNL     1       1.779   5.091  20.182  0.00  0.00    +0.000 NA
ATOM     15  C   UNL     1       1.578   3.909  19.529  0.00  0.00    +0.000 A 
ATOM     16  N   UNL     1       2.649   3.410  18.912  0.00  0.00    +0.000 NA
ENDBRANCH  11  12
ENDBRANCH  10  11
ENDBRANCH   5   6
ENDBRANCH   2   5
BRANCH   3  17
ATOM     17  C   UNL     1       8.722   9.591  18.665  0.00  0.00    +0.000 C 
BRANCH  17  18
ATOM     18  C   UNL     1       9.599  10.596  17.915  0.00  0.00    +0.000 C 
BRANCH  18  19
ATOM     19  C   UNL     1       9.474  11.987  18.469  0.00  0.00    +0.000 A 
ATOM     20  C   UNL     1       8.572  12.903  17.924  0.00  0.00    +0.000 A 
ATOM     21  F   UNL     1       7.813  12.549  16.878  0.00  0.00    +0.000 F 
ATOM     22  C   UNL     1       8.435  14.189  18.444  0.00  0.00    +0.000 A 
ATOM     23  C   UNL     1       9.220  14.585  19.527  0.00  0.00    +0.000 A 
ATOM     24  C   UNL     1      10.141  13.692  20.071  0.00  0.00    +0.000 A 
ATOM     25  C   UNL     1      10.263  12.410  19.539  0.00  0.00    +0.000 A 
ATOM     26  F   UNL     1      11.163  11.572  20.073  0.00  0.00    +0.000 F 
ENDBRANCH  18  19
ENDBRANCH  17  18
ENDBRANCH   3  17
TORSDOF 7
ENDMDL
MODEL 7
REMARK VINA RESULT:      -7.2      1.626      3.247
REMARK  Name = 
REMARK  7 active torsions:
REMARK  status: ('A' for Active; 'I' for Inactive)
REMARK    1  A    between atoms: C_2  and  C_3
REMARK    2  A    between atoms: C_3  and  N_4
REMARK    3  A    between atoms: C_8  and  C_9
REMARK    4  A    between atoms: C_9  and  N_10
REMARK    5  A    between atoms: N_15  and  C_16
REMARK    6  A    between atoms: C_16  and  C_17
REMARK    7  A    between atoms: C_17  and  C_18
REMARK                            x       y       z     vdW  Elec       q    Type
REMARK                         _______ _______ _______ _____ _____    ______ ____
ROOT
ATOM      1  O   UNL     1       1.734   8.231  18.153  0.00  0.00    +0.000 OA
ATOM      2  C   UNL     1       2.453   7.469  18.793  0.00  0.00    +0.000 C 
ATOM      3  N   UNL     1       2.221   7.160  20.120  0.00  0.00    +0.000 N 
ATOM      4  H   UNL     1       2.897   6.607  20.630  0.00  0.00    +0.000 HD
ENDROOT
BRANCH   2   5
ATOM      5  C   UNL     1       3.712   6.808  18.207  0.00  0.00    +0.000 C 
BRANCH   5   6
ATOM      6  N   UNL     1       3.792   5.383  18.590  0.00  0.00    +0.000 NA
ATOM      7  C   UNL     1       5.184   4.981  18.840  0.00  0.00    +0.000 C 
ATOM      8  C   UNL     1       5.674   4.444  17.512  0.00  0.00    +0.000 C 
ATOM      9  C   UNL     1       4.466   3.680  17.014  0.00  0.00    +0.000 C 
ATOM     10  C   UNL     1       3.260   4.469  17.544  0.00  0.00    +0.000 C 
BRANCH  10  11
ATOM     11  C   UNL     1       2.158   3.578  18.141  0.00  0.00    +0.000 C 
BRANCH  11  12
ATOM     12  N   UNL     1       2.314   3.374  19.564  0.00  0.00    +0.000 N 
ATOM     13  C   UNL     1       3.114   2.475  20.198  0.00  0.00    +0.000 A 
ATOM     14  N   UNL     1       3.004   2.632  21.498  0.00  0.00    +0.000 NA
ATOM     15  C   UNL     1       2.088   3.639  21.608  0.00  0.00    +0.000 A 
ATOM     16  N   UNL     1       1.636   4.125  20.453  0.00  0.00    +0.000 NA
ENDBRANCH  11  12
ENDBRANCH  10  11
ENDBRANCH   5   6
ENDBRANCH   2   5
BRANCH   3  17
ATOM     17  C   UNL     1       1.121   7.753  20.862  0.00  0.00    +0.000 C 
BRANCH  17  18
ATOM     18  C   UNL     1       1.560   8.937  21.725  0.00  0.00    +0.000 C 
BRANCH  18  19
ATOM     19  C   UNL     1       0.490   9.985  21.845  0.00  0.00    +0.000 A 
ATOM     20  C   UNL     1       0.262  10.904  20.819  0.00  0.00    +0.000 A 
ATOM     21  F   UNL     1       1.019  10.872  19.714  0.00  0.00    +0.000 F 
ATOM     22  C   UNL     1      -0.742  11.867  20.913  0.00  0.00    +0.000 A 
ATOM     23  C   UNL     1      -1.537  11.928  22.057  0.00  0.00    +0.000 A 
ATOM     24  C   UNL     1      -1.313  11.031  23.100  0.00  0.00    +0.000 A 
ATOM     25  C   UNL     1      -0.304  10.075  22.988  0.00  0.00    +0.000 A 
ATOM     26  F   UNL     1      -0.100   9.230  24.008  0.00  0.00    +0.000 F 
ENDBRANCH  18  19
ENDBRANCH  17  18
ENDBRANCH   3  17
TORSDOF 7
ENDMDL
MODEL 8
REMARK VINA RESULT:      -7.1      5.160      8.197
REMARK  Name = 
REMARK  7 active torsions:
REMARK  status: ('A' for Active; 'I' for Inactive)
REMARK    1  A    between atoms: C_2  and  C_3
REMARK    2  A    between atoms: C_3  and  N_4
REMARK    3  A    between atoms: C_8  and  C_9
REMARK    4  A    between atoms: C_9  and  N_10
REMARK    5  A    between atoms: N_15  and  C_16
REMARK    6  A    between atoms: C_16  and  C_17
REMARK    7  A    between atoms: C_17  and  C_18
REMARK                            x       y       z     vdW  Elec       q    Type
REMARK                         _______ _______ _______ _____ _____    ______ ____
ROOT
ATOM      1  O   UNL     1       8.051   6.426  18.833  0.00  0.00    +0.000 OA
ATOM      2  C   UNL     1       7.556   7.075  17.914  0.00  0.00    +0.000 C 
ATOM      3  N   UNL     1       7.838   8.412  17.708  0.00  0.00    +0.000 N 
ATOM      4  H   UNL     1       7.329   8.926  17.001  0.00  0.00    +0.000 HD
ENDROOT
BRANCH   2   5
ATOM      5  C   UNL     1       6.540   6.488  16.922  0.00  0.00    +0.000 C 
BRANCH   5   6
ATOM      6  N   UNL     1       6.373   5.034  17.130  0.00  0.00    +0.000 NA
ATOM      7  C   UNL     1       7.046   4.269  16.069  0.00  0.00    +0.000 C 
ATOM      8  C   UNL     1       5.976   4.038  15.023  0.00  0.00    +0.000 C 
ATOM      9  C   UNL     1       4.759   3.747  15.874  0.00  0.00    +0.000 C 
ATOM     10  C   UNL     1       4.948   4.606  17.132  0.00  0.00    +0.000 C 
BRANCH  10  11
ATOM     11  C   UNL     1       4.631   3.858  18.439  0.00  0.00    +0.000 C 
BRANCH  11  12
ATOM     12  N   UNL     1       3.600   4.508  19.217  0.00  0.00    +0.000 N 
ATOM     13  C   UNL     1       2.821   3.967  20.191  0.00  0.00    +0.000 A 
ATOM     14  N   UNL     1       2.033   4.896  20.687  0.00  0.00    +0.000 NA
ATOM     15  C   UNL     1       2.358   5.998  19.950  0.00  0.00    +0.000 A 
ATOM     16  N   UNL     1       3.310   5.811  19.037  0.00  0.00    +0.000 NA
ENDBRANCH  11  12
ENDBRANCH  10  11
ENDBRANCH   5   6
ENDBRANCH   2   5
BRANCH   3  17
ATOM     17  C   UNL     1       8.717   9.154  18.595  0.00  0.00    +0.000 C 
BRANCH  17  18
ATOM     18  C   UNL     1       8.670  10.663  18.348  0.00  0.00    +0.000 C 
BRANCH  18  19
ATOM     19  C   UNL     1       9.874  11.371  18.904  0.00  0.00    +0.000 A 
ATOM     20  C   UNL     1      10.016  11.583  20.277  0.00  0.00    +0.000 A 
ATOM     21  F   UNL     1       9.059  11.168  21.118  0.00  0.00    +0.000 F 
ATOM     22  C   UNL     1      11.138  12.220  20.803  0.00  0.00    +0.000 A 
ATOM     23  C   UNL     1      12.144  12.669  19.948  0.00  0.00    +0.000 A 
ATOM     24  C   UNL     1      12.011  12.485  18.573  0.00  0.00    +0.000 A 
ATOM     25  C   UNL     1      10.882  11.845  18.065  0.00  0.00    +0.000 A 
ATOM     26  F   UNL     1      10.771  11.688  16.738  0.00  0.00    +0.000 F 
ENDBRANCH  18  19
ENDBRANCH  17  18
ENDBRANCH   3  17
TORSDOF 7
ENDMDL
MODEL 9
REMARK VINA RESULT:      -7.0      1.415      3.306
REMARK  Name = 
REMARK  7 active torsions:
REMARK  status: ('A' for Active; 'I' for Inactive)
REMARK    1  A    between atoms: C_2  and  C_3
REMARK    2  A    between atoms: C_3  and  N_4
REMARK    3  A    between atoms: C_8  and  C_9
REMARK    4  A    between atoms: C_9  and  N_10
REMARK    5  A    between atoms: N_15  and  C_16
REMARK    6  A    between atoms: C_16  and  C_17
REMARK    7  A    between atoms: C_17  and  C_18
REMARK                            x       y       z     vdW  Elec       q    Type
REMARK                         _______ _______ _______ _____ _____    ______ ____
ROOT
ATOM      1  O   UNL     1       2.033   5.659  20.635  0.00  0.00    +0.000 OA
ATOM      2  C   UNL     1       2.282   6.586  19.868  0.00  0.00    +0.000 C 
ATOM      3  N   UNL     1       2.047   7.908  20.194  0.00  0.00    +0.000 N 
ATOM      4  H   UNL     1       2.175   8.625  19.491  0.00  0.00    +0.000 HD
ENDROOT
BRANCH   2   5
ATOM      5  C   UNL     1       2.840   6.378  18.451  0.00  0.00    +0.000 C 
BRANCH   5   6
ATOM      6  N   UNL     1       3.852   5.302  18.430  0.00  0.00    +0.000 NA
ATOM      7  C   UNL     1       5.202   5.844  18.647  0.00  0.00    +0.000 C 
ATOM      8  C   UNL     1       5.741   6.101  17.256  0.00  0.00    +0.000 C 
ATOM      9  C   UNL     1       5.237   4.896  16.493  0.00  0.00    +0.000 C 
ATOM     10  C   UNL     1       3.887   4.560  17.142  0.00  0.00    +0.000 C 
BRANCH  10  11
ATOM     11  C   UNL     1       3.688   3.056  17.400  0.00  0.00    +0.000 C 
BRANCH  11  12
ATOM     12  N   UNL     1       2.647   2.789  18.368  0.00  0.00    +0.000 N 
ATOM     13  C   UNL     1       2.788   2.365  19.652  0.00  0.00    +0.000 A 
ATOM     14  N   UNL     1       1.604   2.280  20.217  0.00  0.00    +0.000 NA
ATOM     15  C   UNL     1       0.758   2.644  19.209  0.00  0.00    +0.000 A 
ATOM     16  N   UNL     1       1.348   2.963  18.058  0.00  0.00    +0.000 NA
ENDBRANCH  11  12
ENDBRANCH  10  11
ENDBRANCH   5   6
ENDBRANCH   2   5
BRANCH   3  17
ATOM     17  C   UNL     1       1.450   8.290  21.461  0.00  0.00    +0.000 C 
BRANCH  17  18
ATOM     18  C   UNL     1      -0.068   8.465  21.371  0.00  0.00    +0.000 C 
BRANCH  18  19
ATOM     19  C   UNL     1      -0.483   9.906  21.463  0.00  0.00    +0.000 A 
ATOM     20  C   UNL     1      -0.676  10.677  20.315  0.00  0.00    +0.000 A 
ATOM     21  F   UNL     1      -0.471  10.135  19.107  0.00  0.00    +0.000 F 
ATOM     22  C   UNL     1      -1.080  12.008  20.391  0.00  0.00    +0.000 A 
ATOM     23  C   UNL     1      -1.291  12.598  21.636  0.00  0.00    +0.000 A 
ATOM     24  C   UNL     1      -1.084  11.851  22.795  0.00  0.00    +0.000 A 
ATOM     25  C   UNL     1      -0.680  10.521  22.700  0.00  0.00    +0.000 A 
ATOM     26  F   UNL     1      -0.478   9.825  23.828  0.00  0.00    +0.000 F 
ENDBRANCH  18  19
ENDBRANCH  17  18
ENDBRANCH   3  17
TORSDOF 7
ENDMDL
