MODEL 1
REMARK VINA RESULT:      -7.4      0.000      0.000
REMARK  Name = 
REMARK  2 active torsions:
REMARK  status: ('A' for Active; 'I' for Inactive)
REMARK    1  A    between atoms: C_2  and  C_14
REMARK    2  A    between atoms: N_3  and  C_4
REMARK                            x       y       z     vdW  Elec       q    Type
REMARK                         _______ _______ _______ _____ _____    ______ ____
ROOT
ATOM      1  C   UNL     1       4.885   5.234  17.945  0.00  0.00    +0.000 A 
ATOM      2  C   UNL     1       6.127   5.898  18.096  0.00  0.00    +0.000 A 
ATOM      3  C   UNL     1       7.078   5.926  17.069  0.00  0.00    +0.000 A 
ATOM      4  C   UNL     1       6.750   5.270  15.913  0.00  0.00    +0.000 A 
ATOM      5  N   UNL     1       7.429   5.157  14.732  0.00  0.00    +0.000 N 
ATOM      6  C   UNL     1       6.635   4.424  13.889  0.00  0.00    +0.000 A 
ATOM      7  S   UNL     1       6.956   4.024  12.321  0.00  0.00    +0.000 S 
ATOM      8  O   UNL     1       5.443   4.016  14.490  0.00  0.00    +0.000 OA
ATOM      9  C   UNL     1       5.562   4.584  15.752  0.00  0.00    +0.000 A 
ATOM     10  C   UNL     1       4.617   4.532  16.759  0.00  0.00    +0.000 A 
ATOM     11  H   UNL     1       8.321   5.556  14.491  0.00  0.00    +0.000 HD
ENDROOT
BRANCH   1  14
ATOM     12  O   UNL     1       4.298   3.215  19.980  0.00  0.00    +0.000 OA
ATOM     13  C   UNL     1       3.646   4.255  19.876  0.00  0.00    +0.000 C 
ATOM     14  N   UNL     1       3.881   5.255  18.945  0.00  0.00    +0.000 N 
ATOM     15  H   UNL     1       3.415   6.143  19.100  0.00  0.00    +0.000 HD
BRANCH  13  16
ATOM     16  C   UNL     1       2.523   4.577  20.891  0.00  0.00    +0.000 C 
ATOM     17  C   UNL     1       1.135   4.673  20.284  0.00  0.00    +0.000 C 
ATOM     18  C   UNL     1       0.677   3.228  20.189  0.00  0.00    +0.000 C 
ATOM     19  C   UNL     1       1.461   2.491  21.266  0.00  0.00    +0.000 C 
ATOM     20  N   UNL     1       2.372   3.472  21.868  0.00  0.00    +0.000 NA
ATOM     21  H   UNL     1       3.291   3.031  21.985  0.00  0.00    +0.000 HD
ENDBRANCH  13  16
ENDBRANCH   1  14
TORSDOF 2
ENDMDL
MODEL 2
REMARK VINA RESULT:      -7.4      1.029      1.029
REMARK  Name = 
REMARK  2 active torsions:
REMARK  status: ('A' for Active; 'I' for Inactive)
REMARK    1  A    between atoms: C_2  and  C_14
REMARK    2  A    between atoms: N_3  and  C_4
REMARK                            x       y       z     vdW  Elec       q    Type
REMARK                         _______ _______ _______ _____ _____    ______ ____
ROOT
ATOM      1  C   UNL     1       5.398   4.637  18.078  0.00  0.00    +0.000 A 
ATOM      2  C   UNL     1       6.415   5.619  18.148  0.00  0.00    +0.000 A 
ATOM      3  C   UNL     1       7.205   5.943  17.039  0.00  0.00    +0.000 A 
ATOM      4  C   UNL     1       6.949   5.255  15.883  0.00  0.00    +0.000 A 
ATOM      5  N   UNL     1       7.501   5.372  14.638  0.00  0.00    +0.000 N 
ATOM      6  C   UNL     1       6.856   4.469  13.834  0.00  0.00    +0.000 A 
ATOM      7  S   UNL     1       7.104   4.220  12.222  0.00  0.00    +0.000 S 
ATOM      8  O   UNL     1       5.896   3.724  14.521  0.00  0.00    +0.000 OA
ATOM      9  C   UNL     1       5.988   4.266  15.797  0.00  0.00    +0.000 A 
ATOM     10  C   UNL     1       5.209   3.922  16.885  0.00  0.00    +0.000 A 
ATOM     11  H   UNL     1       8.216   6.013  14.337  0.00  0.00    +0.000 HD
ENDROOT
BRANCH   1  14
ATOM     12  O   UNL     1       2.825   5.858  18.752  0.00  0.00    +0.000 OA
ATOM     13  C   UNL     1       3.335   4.973  19.441  0.00  0.00    +0.000 C 
ATOM     14  N   UNL     1       4.542   4.346  19.170  0.00  0.00    +0.000 N 
ATOM     15  H   UNL     1       4.744   3.498  19.690  0.00  0.00    +0.000 HD
BRANCH  13  16
ATOM     16  C   UNL     1       2.580   4.404  20.667  0.00  0.00    +0.000 C 
ATOM     17  C   UNL     1       1.068   4.400  20.528  0.00  0.00    +0.000 C 
ATOM     18  C   UNL     1       0.779   3.143  19.726  0.00  0.00    +0.000 C 
ATOM     19  C   UNL     1       1.956   2.217  20.001  0.00  0.00    +0.000 C 
ATOM     20  N   UNL     1       2.892   2.966  20.848  0.00  0.00    +0.000 NA
ATOM     21  H   UNL     1       3.843   2.806  20.498  0.00  0.00    +0.000 HD
ENDBRANCH  13  16
ENDBRANCH   1  14
TORSDOF 2
ENDMDL
MODEL 3
REMARK VINA RESULT:      -7.2      0.898      1.058
REMARK  Name = 
REMARK  2 active torsions:
REMARK  status: ('A' for Active; 'I' for Inactive)
REMARK    1  A    between atoms: C_2  and  C_14
REMARK    2  A    between atoms: N_3  and  C_4
REMARK                            x       y       z     vdW  Elec       q    Type
REMARK                         _______ _______ _______ _____ _____    ______ ____
ROOT
ATOM      1  C   UNL     1       5.109   4.445  18.252  0.00  0.00    +0.000 A 
ATOM      2  C   UNL     1       6.316   5.130  18.533  0.00  0.00    +0.000 A 
ATOM      3  C   UNL     1       7.249   5.420  17.531  0.00  0.00    +0.000 A 
ATOM      4  C   UNL     1       6.940   5.000  16.266  0.00  0.00    +0.000 A 
ATOM      5  N   UNL     1       7.606   5.170  15.084  0.00  0.00    +0.000 N 
ATOM      6  C   UNL     1       6.840   4.584  14.110  0.00  0.00    +0.000 A 
ATOM      7  S   UNL     1       7.158   4.533  12.493  0.00  0.00    +0.000 S 
ATOM      8  O   UNL     1       5.680   3.996  14.618  0.00  0.00    +0.000 OA
ATOM      9  C   UNL     1       5.788   4.298  15.970  0.00  0.00    +0.000 A 
ATOM     10  C   UNL     1       4.861   3.988  16.948  0.00  0.00    +0.000 A 
ATOM     11  H   UNL     1       8.473   5.658  14.928  0.00  0.00    +0.000 HD
ENDROOT
BRANCH   1  14
ATOM     12  O   UNL     1       4.732   2.064  19.912  0.00  0.00    +0.000 OA
ATOM     13  C   UNL     1       3.988   3.043  19.985  0.00  0.00    +0.000 C 
ATOM     14  N   UNL     1       4.120   4.204  19.239  0.00  0.00    +0.000 N 
ATOM     15  H   UNL     1       3.578   5.007  19.541  0.00  0.00    +0.000 HD
BRANCH  13  16
ATOM     16  C   UNL     1       2.853   3.085  21.037  0.00  0.00    +0.000 C 
ATOM     17  C   UNL     1       2.150   4.426  21.152  0.00  0.00    +0.000 C 
ATOM     18  C   UNL     1       1.141   4.407  20.017  0.00  0.00    +0.000 C 
ATOM     19  C   UNL     1       0.866   2.933  19.755  0.00  0.00    +0.000 C 
ATOM     20  N   UNL     1       1.749   2.175  20.648  0.00  0.00    +0.000 NA
ATOM     21  H   UNL     1       2.157   1.398  20.116  0.00  0.00    +0.000 HD
ENDBRANCH  13  16
ENDBRANCH   1  14
TORSDOF 2
ENDMDL
MODEL 4
REMARK VINA RESULT:      -6.9      0.971      1.052
REMARK  Name = 
REMARK  2 active torsions:
REMARK  status: ('A' for Active; 'I' for Inactive)
REMARK    1  A    between atoms: C_2  and  C_14
REMARK    2  A    between atoms: N_3  and  C_4
REMARK                            x       y       z     vdW  Elec       q    Type
REMARK                         _______ _______ _______ _____ _____    ______ ____
ROOT
ATOM      1  C   UNL     1       4.854   5.329  17.874  0.00  0.00    +0.000 A 
ATOM      2  C   UNL     1       6.118   5.936  18.071  0.00  0.00    +0.000 A 
ATOM      3  C   UNL     1       7.100   5.934  17.073  0.00  0.00    +0.000 A 
ATOM      4  C   UNL     1       6.780   5.305  15.900  0.00  0.00    +0.000 A 
ATOM      5  N   UNL     1       7.489   5.175  14.738  0.00  0.00    +0.000 N 
ATOM      6  C   UNL     1       6.690   4.486  13.863  0.00  0.00    +0.000 A 
ATOM      7  S   UNL     1       7.041   4.089  12.301  0.00  0.00    +0.000 S 
ATOM      8  O   UNL     1       5.464   4.124  14.423  0.00  0.00    +0.000 OA
ATOM      9  C   UNL     1       5.569   4.673  15.695  0.00  0.00    +0.000 A 
ATOM     10  C   UNL     1       4.592   4.652  16.672  0.00  0.00    +0.000 A 
ATOM     11  H   UNL     1       8.404   5.538  14.529  0.00  0.00    +0.000 HD
ENDROOT
BRANCH   1  14
ATOM     12  O   UNL     1       2.265   3.965  17.857  0.00  0.00    +0.000 OA
ATOM     13  C   UNL     1       2.607   4.719  18.769  0.00  0.00    +0.000 C 
ATOM     14  N   UNL     1       3.821   5.383  18.844  0.00  0.00    +0.000 N 
ATOM     15  H   UNL     1       4.062   5.799  19.737  0.00  0.00    +0.000 HD
BRANCH  13  16
ATOM     16  C   UNL     1       1.696   4.912  20.007  0.00  0.00    +0.000 C 
ATOM     17  C   UNL     1       0.644   3.832  20.189  0.00  0.00    +0.000 C 
ATOM     18  C   UNL     1       1.395   2.705  20.877  0.00  0.00    +0.000 C 
ATOM     19  C   UNL     1       2.550   3.381  21.602  0.00  0.00    +0.000 C 
ATOM     20  N   UNL     1       2.487   4.806  21.256  0.00  0.00    +0.000 NA
ATOM     21  H   UNL     1       3.438   5.132  21.052  0.00  0.00    +0.000 HD
ENDBRANCH  13  16
ENDBRANCH   1  14
TORSDOF 2
ENDMDL
MODEL 5
REMARK VINA RESULT:      -6.8      1.177      1.552
REMARK  Name = 
REMARK  2 active torsions:
REMARK  status: ('A' for Active; 'I' for Inactive)
REMARK    1  A    between atoms: C_2  and  C_14
REMARK    2  A    between atoms: N_3  and  C_4
REMARK                            x       y       z     vdW  Elec       q    Type
REMARK                         _______ _______ _______ _____ _____    ______ ____
ROOT
ATOM      1  C   UNL     1       4.755   4.083  17.693  0.00  0.00    +0.000 A 
ATOM      2  C   UNL     1       5.729   4.941  18.259  0.00  0.00    +0.000 A 
ATOM      3  C   UNL     1       6.758   5.496  17.488  0.00  0.00    +0.000 A 
ATOM      4  C   UNL     1       6.779   5.160  16.162  0.00  0.00    +0.000 A 
ATOM      5  N   UNL     1       7.609   5.568  15.154  0.00  0.00    +0.000 N 
ATOM      6  C   UNL     1       7.169   4.958  14.009  0.00  0.00    +0.000 A 
ATOM      7  S   UNL     1       7.788   5.133  12.490  0.00  0.00    +0.000 S 
ATOM      8  O   UNL     1       6.072   4.122  14.230  0.00  0.00    +0.000 OA
ATOM      9  C   UNL     1       5.864   4.297  15.592  0.00  0.00    +0.000 A 
ATOM     10  C   UNL     1       4.850   3.726  16.339  0.00  0.00    +0.000 A 
ATOM     11  H   UNL     1       8.376   6.217  15.210  0.00  0.00    +0.000 HD
ENDROOT
BRANCH   1  14
ATOM     12  O   UNL     1       4.806   2.181  19.916  0.00  0.00    +0.000 OA
ATOM     13  C   UNL     1       3.757   2.654  19.479  0.00  0.00    +0.000 C 
ATOM     14  N   UNL     1       3.665   3.568  18.440  0.00  0.00    +0.000 N 
ATOM     15  H   UNL     1       2.773   4.036  18.319  0.00  0.00    +0.000 HD
BRANCH  13  16
ATOM     16  C   UNL     1       2.406   2.319  20.156  0.00  0.00    +0.000 C 
ATOM     17  C   UNL     1       2.326   2.700  21.624  0.00  0.00    +0.000 C 
ATOM     18  C   UNL     1       1.983   4.179  21.599  0.00  0.00    +0.000 C 
ATOM     19  C   UNL     1       1.278   4.401  20.267  0.00  0.00    +0.000 C 
ATOM     20  N   UNL     1       1.310   3.118  19.556  0.00  0.00    +0.000 NA
ATOM     21  H   UNL     1       1.556   3.298  18.576  0.00  0.00    +0.000 HD
ENDBRANCH  13  16
ENDBRANCH   1  14
TORSDOF 2
ENDMDL
MODEL 6
REMARK VINA RESULT:      -6.8      4.481      7.110
REMARK  Name = 
REMARK  2 active torsions:
REMARK  status: ('A' for Active; 'I' for Inactive)
REMARK    1  A    between atoms: C_2  and  C_14
REMARK    2  A    between atoms: N_3  and  C_4
REMARK                            x       y       z     vdW  Elec       q    Type
REMARK                         _______ _______ _______ _____ _____    ______ ____
ROOT
ATOM      1  C   UNL     1       3.247   6.733  18.205  0.00  0.00    +0.000 A 
ATOM      2  C   UNL     1       2.937   7.880  17.435  0.00  0.00    +0.000 A 
ATOM      3  C   UNL     1       2.142   8.915  17.942  0.00  0.00    +0.000 A 
ATOM      4  C   UNL     1       1.671   8.757  19.217  0.00  0.00    +0.000 A 
ATOM      5  N   UNL     1       0.925   9.594  20.000  0.00  0.00    +0.000 N 
ATOM      6  C   UNL     1       0.763   8.966  21.207  0.00  0.00    +0.000 A 
ATOM      7  S   UNL     1      -0.026   9.550  22.533  0.00  0.00    +0.000 S 
ATOM      8  O   UNL     1       1.363   7.705  21.245  0.00  0.00    +0.000 OA
ATOM      9  C   UNL     1       1.927   7.632  19.977  0.00  0.00    +0.000 A 
ATOM     10  C   UNL     1       2.697   6.593  19.489  0.00  0.00    +0.000 A 
ATOM     11  H   UNL     1       0.582  10.512  19.771  0.00  0.00    +0.000 HD
ENDROOT
BRANCH   1  14
ATOM     12  O   UNL     1       6.105   6.891  17.597  0.00  0.00    +0.000 OA
ATOM     13  C   UNL     1       5.458   5.853  17.454  0.00  0.00    +0.000 C 
ATOM     14  N   UNL     1       4.108   5.709  17.737  0.00  0.00    +0.000 N 
ATOM     15  H   UNL     1       3.747   4.761  17.778  0.00  0.00    +0.000 HD
BRANCH  13  16
ATOM     16  C   UNL     1       6.163   4.546  17.018  0.00  0.00    +0.000 C 
ATOM     17  C   UNL     1       5.368   3.697  16.043  0.00  0.00    +0.000 C 
ATOM     18  C   UNL     1       5.646   4.335  14.693  0.00  0.00    +0.000 C 
ATOM     19  C   UNL     1       6.993   5.028  14.851  0.00  0.00    +0.000 C 
ATOM     20  N   UNL     1       7.395   4.851  16.251  0.00  0.00    +0.000 NA
ATOM     21  H   UNL     1       7.765   5.743  16.596  0.00  0.00    +0.000 HD
ENDBRANCH  13  16
ENDBRANCH   1  14
TORSDOF 2
ENDMDL
MODEL 7
REMARK VINA RESULT:      -6.8      4.709      7.059
REMARK  Name = 
REMARK  2 active torsions:
REMARK  status: ('A' for Active; 'I' for Inactive)
REMARK    1  A    between atoms: C_2  and  C_14
REMARK    2  A    between atoms: N_3  and  C_4
REMARK                            x       y       z     vdW  Elec       q    Type
REMARK                         _______ _______ _______ _____ _____    ______ ____
ROOT
ATOM      1  C   UNL     1       2.708   6.896  18.530  0.00  0.00    +0.000 A 
ATOM      2  C   UNL     1       2.524   8.080  17.778  0.00  0.00    +0.000 A 
ATOM      3  C   UNL     1       1.834   9.183  18.296  0.00  0.00    +0.000 A 
ATOM      4  C   UNL     1       1.339   9.054  19.565  0.00  0.00    +0.000 A 
ATOM      5  N   UNL     1       0.676   9.950  20.357  0.00  0.00    +0.000 N 
ATOM      6  C   UNL     1       0.440   9.323  21.552  0.00  0.00    +0.000 A 
ATOM      7  S   UNL     1      -0.296   9.964  22.882  0.00  0.00    +0.000 S 
ATOM      8  O   UNL     1       0.908   8.008  21.572  0.00  0.00    +0.000 OA
ATOM      9  C   UNL     1       1.472   7.897  20.308  0.00  0.00    +0.000 A 
ATOM     10  C   UNL     1       2.136   6.792  19.808  0.00  0.00    +0.000 A 
ATOM     11  H   UNL     1       0.431  10.902  20.140  0.00  0.00    +0.000 HD
ENDROOT
BRANCH   1  14
ATOM     12  O   UNL     1       5.099   5.679  19.700  0.00  0.00    +0.000 OA
ATOM     13  C   UNL     1       4.601   5.274  18.649  0.00  0.00    +0.000 C 
ATOM     14  N   UNL     1       3.464   5.796  18.051  0.00  0.00    +0.000 N 
ATOM     15  H   UNL     1       3.041   5.244  17.312  0.00  0.00    +0.000 HD
BRANCH  13  16
ATOM     16  C   UNL     1       5.183   4.029  17.937  0.00  0.00    +0.000 C 
ATOM     17  C   UNL     1       4.970   4.006  16.434  0.00  0.00    +0.000 C 
ATOM     18  C   UNL     1       6.090   4.879  15.893  0.00  0.00    +0.000 C 
ATOM     19  C   UNL     1       7.189   4.811  16.944  0.00  0.00    +0.000 C 
ATOM     20  N   UNL     1       6.661   4.007  18.053  0.00  0.00    +0.000 NA
ATOM     21  H   UNL     1       6.912   4.468  18.935  0.00  0.00    +0.000 HD
ENDBRANCH  13  16
ENDBRANCH   1  14
TORSDOF 2
ENDMDL
MODEL 8
REMARK VINA RESULT:      -6.8      1.479      1.725
REMARK  Name = 
REMARK  2 active torsions:
REMARK  status: ('A' for Active; 'I' for Inactive)
REMARK    1  A    between atoms: C_2  and  C_14
REMARK    2  A    between atoms: N_3  and  C_4
REMARK                            x       y       z     vdW  Elec       q    Type
REMARK                         _______ _______ _______ _____ _____    ______ ____
ROOT
ATOM      1  C   UNL     1       4.656   4.064  17.663  0.00  0.00    +0.000 A 
ATOM      2  C   UNL     1       5.660   4.850  18.278  0.00  0.00    +0.000 A 
ATOM      3  C   UNL     1       6.726   5.388  17.547  0.00  0.00    +0.000 A 
ATOM      4  C   UNL     1       6.752   5.108  16.207  0.00  0.00    +0.000 A 
ATOM      5  N   UNL     1       7.614   5.519  15.229  0.00  0.00    +0.000 N 
ATOM      6  C   UNL     1       7.164   4.980  14.053  0.00  0.00    +0.000 A 
ATOM      7  S   UNL     1       7.813   5.190  12.551  0.00  0.00    +0.000 S 
ATOM      8  O   UNL     1       6.026   4.189  14.223  0.00  0.00    +0.000 OA
ATOM      9  C   UNL     1       5.805   4.314  15.589  0.00  0.00    +0.000 A 
ATOM     10  C   UNL     1       4.755   3.761  16.296  0.00  0.00    +0.000 A 
ATOM     11  H   UNL     1       8.410   6.129  15.324  0.00  0.00    +0.000 HD
ENDROOT
BRANCH   1  14
ATOM     12  O   UNL     1       1.986   5.239  17.894  0.00  0.00    +0.000 OA
ATOM     13  C   UNL     1       2.292   4.185  18.453  0.00  0.00    +0.000 C 
ATOM     14  N   UNL     1       3.532   3.570  18.373  0.00  0.00    +0.000 N 
ATOM     15  H   UNL     1       3.590   2.611  18.700  0.00  0.00    +0.000 HD
BRANCH  13  16
ATOM     16  C   UNL     1       1.231   3.383  19.246  0.00  0.00    +0.000 C 
ATOM     17  C   UNL     1       1.742   2.087  19.849  0.00  0.00    +0.000 C 
ATOM     18  C   UNL     1       2.420   2.526  21.136  0.00  0.00    +0.000 C 
ATOM     19  C   UNL     1       1.740   3.833  21.517  0.00  0.00    +0.000 C 
ATOM     20  N   UNL     1       0.791   4.143  20.441  0.00  0.00    +0.000 NA
ATOM     21  H   UNL     1       0.867   5.143  20.221  0.00  0.00    +0.000 HD
ENDBRANCH  13  16
ENDBRANCH   1  14
TORSDOF 2
ENDMDL
MODEL 9
REMARK VINA RESULT:      -6.6      5.157      6.981
REMARK  Name = 
REMARK  2 active torsions:
REMARK  status: ('A' for Active; 'I' for Inactive)
REMARK    1  A    between atoms: C_2  and  C_14
REMARK    2  A    between atoms: N_3  and  C_4
REMARK                            x       y       z     vdW  Elec       q    Type
REMARK                         _______ _______ _______ _____ _____    ______ ____
ROOT
ATOM      1  C   UNL     1       2.460   7.341  18.839  0.00  0.00    +0.000 A 
ATOM      2  C   UNL     1       2.200   8.385  17.918  0.00  0.00    +0.000 A 
ATOM      3  C   UNL     1       1.438   9.505  18.271  0.00  0.00    +0.000 A 
ATOM      4  C   UNL     1       0.950   9.537  19.549  0.00  0.00    +0.000 A 
ATOM      5  N   UNL     1       0.228  10.497  20.203  0.00  0.00    +0.000 N 
ATOM      6  C   UNL     1       0.032  10.042  21.480  0.00  0.00    +0.000 A 
ATOM      7  S   UNL     1      -0.747  10.826  22.704  0.00  0.00    +0.000 S 
ATOM      8  O   UNL     1       0.585   8.778  21.694  0.00  0.00    +0.000 OA
ATOM      9  C   UNL     1       1.158   8.515  20.456  0.00  0.00    +0.000 A 
ATOM     10  C   UNL     1       1.894   7.394  20.122  0.00  0.00    +0.000 A 
ATOM     11  H   UNL     1      -0.079  11.387  19.847  0.00  0.00    +0.000 HD
ENDROOT
BRANCH   1  14
ATOM     12  O   UNL     1       1.688   4.750  17.720  0.00  0.00    +0.000 OA
ATOM     13  C   UNL     1       2.855   5.023  18.005  0.00  0.00    +0.000 C 
ATOM     14  N   UNL     1       3.288   6.234  18.524  0.00  0.00    +0.000 N 
ATOM     15  H   UNL     1       4.288   6.405  18.515  0.00  0.00    +0.000 HD
BRANCH  13  16
ATOM     16  C   UNL     1       3.991   4.016  17.698  0.00  0.00    +0.000 C 
ATOM     17  C   UNL     1       5.016   3.868  18.807  0.00  0.00    +0.000 C 
ATOM     18  C   UNL     1       4.369   2.892  19.775  0.00  0.00    +0.000 C 
ATOM     19  C   UNL     1       3.399   2.079  18.929  0.00  0.00    +0.000 C 
ATOM     20  N   UNL     1       3.448   2.642  17.574  0.00  0.00    +0.000 NA
ATOM     21  H   UNL     1       2.488   2.716  17.220  0.00  0.00    +0.000 HD
ENDBRANCH  13  16
ENDBRANCH   1  14
TORSDOF 2
ENDMDL
