MODEL 1
REMARK VINA RESULT:      -8.4      0.000      0.000
REMARK  Name = 
REMARK  8 active torsions:
REMARK  status: ('A' for Active; 'I' for Inactive)
REMARK    1  A    between atoms: C_1  and  C_2
REMARK    2  A    between atoms: C_5  and  C_6
REMARK    3  A    between atoms: C_10  and  C_11
REMARK    4  A    between atoms: C_14  and  C_15
REMARK    5  A    between atoms: C_15  and  C_16
REMARK    6  A    between atoms: C_20  and  C_21
REMARK    7  A    between atoms: C_28  and  N_29
REMARK    8  A    between atoms: C_34  and  C_35
REMARK                            x       y       z     vdW  Elec       q    Type
REMARK                         _______ _______ _______ _____ _____    ______ ____
ROOT
ATOM      1  C   UNL     1      -1.996  12.429  22.778  0.00  0.00    +0.000 C 
ATOM      2  O   UNL     1      -2.166  11.350  23.348  0.00  0.00    +0.000 OA
ATOM      3  N   UNL     1      -1.143  12.575  21.671  0.00  0.00    +0.000 N 
ATOM      4  C   UNL     1      -0.646  13.830  21.091  0.00  0.00    +0.000 C 
ATOM      5  C   UNL     1      -0.926  13.978  19.587  0.00  0.00    +0.000 C 
ATOM      6  C   UNL     1      -0.052  15.088  19.010  0.00  0.00    +0.000 C 
ATOM      7  O   UNL     1      -0.642  12.785  18.844  0.00  0.00    +0.000 OA
ATOM      8  C   UNL     1      -1.306  11.649  19.403  0.00  0.00    +0.000 C 
ATOM      9  C   UNL     1      -0.862  11.376  20.849  0.00  0.00    +0.000 C 
ENDROOT
BRANCH   1  14
ATOM     10  C   UNL     1      -4.716  17.042  25.056  0.00  0.00    +0.000 C 
ATOM     11  C   UNL     1      -4.095  15.812  24.445  0.00  0.00    +0.000 A 
ATOM     12  C   UNL     1      -2.880  15.356  24.972  0.00  0.00    +0.000 A 
ATOM     13  C   UNL     1      -2.254  14.242  24.435  0.00  0.00    +0.000 A 
ATOM     14  C   UNL     1      -2.766  13.601  23.298  0.00  0.00    +0.000 A 
ATOM     15  C   UNL     1      -4.029  13.999  22.781  0.00  0.00    +0.000 A 
ATOM     16  C   UNL     1      -4.710  15.120  23.364  0.00  0.00    +0.000 A 
ATOM     17  C   UNL     1      -6.008  15.699  22.841  0.00  0.00    +0.000 C 
BRANCH  15  18
ATOM     18  N   UNL     1      -4.614  13.258  21.715  0.00  0.00    +0.000 N 
ATOM     19  N   UNL     1      -5.567  12.304  21.924  0.00  0.00    +0.000 NA
ATOM     20  C   UNL     1      -5.864  11.910  20.685  0.00  0.00    +0.000 A 
ATOM     21  C   UNL     1      -5.108  12.642  19.767  0.00  0.00    +0.000 A 
ATOM     22  N   UNL     1      -4.340  13.527  20.404  0.00  0.00    +0.000 NA
ENDBRANCH  15  18
ENDBRANCH   1  14
BRANCH   9  23
ATOM     23  C   UNL     1       0.558  10.761  20.967  0.00  0.00    +0.000 C 
BRANCH  23  24
ATOM     24  C   UNL     1       1.091   9.723  19.994  0.00  0.00    +0.000 A 
ATOM     25  C   UNL     1       1.350  10.123  18.675  0.00  0.00    +0.000 A 
ATOM     26  C   UNL     1       1.979   9.266  17.780  0.00  0.00    +0.000 A 
ATOM     27  C   UNL     1       2.331   7.982  18.186  0.00  0.00    +0.000 A 
ATOM     28  C   UNL     1       2.044   7.503  19.481  0.00  0.00    +0.000 A 
ATOM     29  C   UNL     1       1.443   8.410  20.386  0.00  0.00    +0.000 A 
BRANCH  28  30
ATOM     30  C   UNL     1       2.369   6.096  19.807  0.00  0.00    +0.000 A 
ATOM     31  N   UNL     1       3.344   5.458  19.133  0.00  0.00    +0.000 NA
ATOM     32  C   UNL     1       3.546   4.164  19.467  0.00  0.00    +0.000 A 
ATOM     33  C   UNL     1       2.833   3.494  20.437  0.00  0.00    +0.000 A 
ATOM     34  C   UNL     1       1.870   4.234  21.072  0.00  0.00    +0.000 A 
ATOM     35  N   UNL     1       1.619   5.519  20.777  0.00  0.00    +0.000 NA
ENDBRANCH  28  30
ENDBRANCH  23  24
ENDBRANCH   9  23
TORSDOF 5
ENDMDL
MODEL 2
REMARK VINA RESULT:      -8.3      2.460      4.136
REMARK  Name = 
REMARK  8 active torsions:
REMARK  status: ('A' for Active; 'I' for Inactive)
REMARK    1  A    between atoms: C_1  and  C_2
REMARK    2  A    between atoms: C_5  and  C_6
REMARK    3  A    between atoms: C_10  and  C_11
REMARK    4  A    between atoms: C_14  and  C_15
REMARK    5  A    between atoms: C_15  and  C_16
REMARK    6  A    between atoms: C_20  and  C_21
REMARK    7  A    between atoms: C_28  and  N_29
REMARK    8  A    between atoms: C_34  and  C_35
REMARK                            x       y       z     vdW  Elec       q    Type
REMARK                         _______ _______ _______ _____ _____    ______ ____
ROOT
ATOM      1  C   UNL     1       0.423  13.332  19.461  0.00  0.00    +0.000 C 
ATOM      2  O   UNL     1       1.483  13.254  20.085  0.00  0.00    +0.000 OA
ATOM      3  N   UNL     1      -0.123  12.246  18.756  0.00  0.00    +0.000 N 
ATOM      4  C   UNL     1      -1.205  12.284  17.764  0.00  0.00    +0.000 C 
ATOM      5  C   UNL     1      -2.374  11.336  18.076  0.00  0.00    +0.000 C 
ATOM      6  C   UNL     1      -3.233  11.154  16.828  0.00  0.00    +0.000 C 
ATOM      7  O   UNL     1      -1.944  10.032  18.488  0.00  0.00    +0.000 OA
ATOM      8  C   UNL     1      -1.011  10.106  19.569  0.00  0.00    +0.000 C 
ATOM      9  C   UNL     1       0.260  10.881  19.182  0.00  0.00    +0.000 C 
ENDROOT
BRANCH   1  14
ATOM     10  C   UNL     1      -2.163  18.543  19.314  0.00  0.00    +0.000 C 
ATOM     11  C   UNL     1      -1.506  17.194  19.445  0.00  0.00    +0.000 A 
ATOM     12  C   UNL     1      -0.498  16.860  18.529  0.00  0.00    +0.000 A 
ATOM     13  C   UNL     1       0.126  15.624  18.590  0.00  0.00    +0.000 A 
ATOM     14  C   UNL     1      -0.294  14.644  19.501  0.00  0.00    +0.000 A 
ATOM     15  C   UNL     1      -1.267  14.974  20.483  0.00  0.00    +0.000 A 
ATOM     16  C   UNL     1      -1.882  16.271  20.460  0.00  0.00    +0.000 A 
ATOM     17  C   UNL     1      -2.998  16.706  21.389  0.00  0.00    +0.000 C 
BRANCH  15  18
ATOM     18  N   UNL     1      -1.591  14.026  21.494  0.00  0.00    +0.000 N 
ATOM     19  N   UNL     1      -2.541  13.063  21.317  0.00  0.00    +0.000 NA
ATOM     20  C   UNL     1      -2.485  12.381  22.461  0.00  0.00    +0.000 A 
ATOM     21  C   UNL     1      -1.499  12.929  23.284  0.00  0.00    +0.000 A 
ATOM     22  N   UNL     1      -0.897  13.948  22.668  0.00  0.00    +0.000 NA
ENDBRANCH  15  18
ENDBRANCH   1  14
BRANCH   9  23
ATOM     23  C   UNL     1       1.215  10.095  18.244  0.00  0.00    +0.000 C 
BRANCH  23  24
ATOM     24  C   UNL     1       1.886   8.795  18.652  0.00  0.00    +0.000 A 
ATOM     25  C   UNL     1       1.612   8.279  19.927  0.00  0.00    +0.000 A 
ATOM     26  C   UNL     1       2.069   7.023  20.303  0.00  0.00    +0.000 A 
ATOM     27  C   UNL     1       2.836   6.273  19.415  0.00  0.00    +0.000 A 
ATOM     28  C   UNL     1       3.193   6.762  18.141  0.00  0.00    +0.000 A 
ATOM     29  C   UNL     1       2.678   8.026  17.766  0.00  0.00    +0.000 A 
BRANCH  28  30
ATOM     30  C   UNL     1       4.087   5.943  17.290  0.00  0.00    +0.000 A 
ATOM     31  N   UNL     1       4.875   6.539  16.376  0.00  0.00    +0.000 NA
ATOM     32  C   UNL     1       5.627   5.714  15.615  0.00  0.00    +0.000 A 
ATOM     33  C   UNL     1       5.633   4.341  15.734  0.00  0.00    +0.000 A 
ATOM     34  C   UNL     1       4.806   3.833  16.701  0.00  0.00    +0.000 A 
ATOM     35  N   UNL     1       4.029   4.603  17.480  0.00  0.00    +0.000 NA
ENDBRANCH  28  30
ENDBRANCH  23  24
ENDBRANCH   9  23
TORSDOF 5
ENDMDL
MODEL 3
REMARK VINA RESULT:      -8.0      2.656      4.432
REMARK  Name = 
REMARK  8 active torsions:
REMARK  status: ('A' for Active; 'I' for Inactive)
REMARK    1  A    between atoms: C_1  and  C_2
REMARK    2  A    between atoms: C_5  and  C_6
REMARK    3  A    between atoms: C_10  and  C_11
REMARK    4  A    between atoms: C_14  and  C_15
REMARK    5  A    between atoms: C_15  and  C_16
REMARK    6  A    between atoms: C_20  and  C_21
REMARK    7  A    between atoms: C_28  and  N_29
REMARK    8  A    between atoms: C_34  and  C_35
REMARK                            x       y       z     vdW  Elec       q    Type
REMARK                         _______ _______ _______ _____ _____    ______ ____
ROOT
ATOM      1  C   UNL     1       0.998  13.088  19.402  0.00  0.00    +0.000 C 
ATOM      2  O   UNL     1       2.078  12.888  19.960  0.00  0.00    +0.000 OA
ATOM      3  N   UNL     1       0.291  12.072  18.734  0.00  0.00    +0.000 N 
ATOM      4  C   UNL     1      -0.838  12.237  17.809  0.00  0.00    +0.000 C 
ATOM      5  C   UNL     1      -2.085  11.425  18.194  0.00  0.00    +0.000 C 
ATOM      6  C   UNL     1      -3.034  11.347  17.001  0.00  0.00    +0.000 C 
ATOM      7  O   UNL     1      -1.781  10.080  18.583  0.00  0.00    +0.000 OA
ATOM      8  C   UNL     1      -0.782  10.043  19.604  0.00  0.00    +0.000 C 
ATOM      9  C   UNL     1       0.542  10.671  19.139  0.00  0.00    +0.000 C 
ENDROOT
BRANCH   1  14
ATOM     10  C   UNL     1      -0.943  18.574  19.437  0.00  0.00    +0.000 C 
ATOM     11  C   UNL     1      -0.461  17.148  19.519  0.00  0.00    +0.000 A 
ATOM     12  C   UNL     1       0.581  16.754  18.667  0.00  0.00    +0.000 A 
ATOM     13  C   UNL     1       1.049  15.450  18.685  0.00  0.00    +0.000 A 
ATOM     14  C   UNL     1       0.437  14.471  19.482  0.00  0.00    +0.000 A 
ATOM     15  C   UNL     1      -0.576  14.853  20.402  0.00  0.00    +0.000 A 
ATOM     16  C   UNL     1      -1.032  16.214  20.428  0.00  0.00    +0.000 A 
ATOM     17  C   UNL     1      -2.170  16.720  21.291  0.00  0.00    +0.000 C 
BRANCH  15  18
ATOM     18  N   UNL     1      -1.098  13.887  21.308  0.00  0.00    +0.000 N 
ATOM     19  N   UNL     1      -0.537  13.651  22.530  0.00  0.00    +0.000 NA
ATOM     20  C   UNL     1      -1.350  12.734  23.054  0.00  0.00    +0.000 A 
ATOM     21  C   UNL     1      -2.383  12.457  22.157  0.00  0.00    +0.000 A 
ATOM     22  N   UNL     1      -2.258  13.209  21.062  0.00  0.00    +0.000 NA
ENDBRANCH  15  18
ENDBRANCH   1  14
BRANCH   9  23
ATOM     23  C   UNL     1       1.345   9.787  18.147  0.00  0.00    +0.000 C 
BRANCH  23  24
ATOM     24  C   UNL     1       2.072   8.523  18.572  0.00  0.00    +0.000 A 
ATOM     25  C   UNL     1       1.709   7.927  19.788  0.00  0.00    +0.000 A 
ATOM     26  C   UNL     1       2.225   6.692  20.160  0.00  0.00    +0.000 A 
ATOM     27  C   UNL     1       3.139   6.047  19.330  0.00  0.00    +0.000 A 
ATOM     28  C   UNL     1       3.586   6.624  18.123  0.00  0.00    +0.000 A 
ATOM     29  C   UNL     1       3.012   7.862  17.746  0.00  0.00    +0.000 A 
BRANCH  28  30
ATOM     30  C   UNL     1       4.627   5.918  17.341  0.00  0.00    +0.000 A 
ATOM     31  N   UNL     1       4.355   4.723  16.785  0.00  0.00    +0.000 NA
ATOM     32  C   UNL     1       5.374   4.131  16.124  0.00  0.00    +0.000 A 
ATOM     33  C   UNL     1       6.631   4.679  15.988  0.00  0.00    +0.000 A 
ATOM     34  C   UNL     1       6.804   5.903  16.580  0.00  0.00    +0.000 A 
ATOM     35  N   UNL     1       5.831   6.534  17.257  0.00  0.00    +0.000 NA
ENDBRANCH  28  30
ENDBRANCH  23  24
ENDBRANCH   9  23
TORSDOF 5
ENDMDL
MODEL 4
REMARK VINA RESULT:      -7.8      2.483      8.716
REMARK  Name = 
REMARK  8 active torsions:
REMARK  status: ('A' for Active; 'I' for Inactive)
REMARK    1  A    between atoms: C_1  and  C_2
REMARK    2  A    between atoms: C_5  and  C_6
REMARK    3  A    between atoms: C_10  and  C_11
REMARK    4  A    between atoms: C_14  and  C_15
REMARK    5  A    between atoms: C_15  and  C_16
REMARK    6  A    between atoms: C_20  and  C_21
REMARK    7  A    between atoms: C_28  and  N_29
REMARK    8  A    between atoms: C_34  and  C_35
REMARK                            x       y       z     vdW  Elec       q    Type
REMARK                         _______ _______ _______ _____ _____    ______ ____
ROOT
ATOM      1  C   UNL     1       1.323  10.686  19.183  0.00  0.00    +0.000 C 
ATOM      2  O   UNL     1       2.238  11.465  19.454  0.00  0.00    +0.000 OA
ATOM      3  N   UNL     1      -0.006  11.110  19.006  0.00  0.00    +0.000 N 
ATOM      4  C   UNL     1      -1.208  10.267  18.962  0.00  0.00    +0.000 C 
ATOM      5  C   UNL     1      -2.066  10.469  17.703  0.00  0.00    +0.000 C 
ATOM      6  C   UNL     1      -3.452   9.869  17.926  0.00  0.00    +0.000 C 
ATOM      7  O   UNL     1      -2.252  11.849  17.365  0.00  0.00    +0.000 OA
ATOM      8  C   UNL     1      -1.003  12.540  17.278  0.00  0.00    +0.000 C 
ATOM      9  C   UNL     1      -0.237  12.517  18.611  0.00  0.00    +0.000 C 
ENDROOT
BRANCH   1  14
ATOM     10  C   UNL     1       2.840   5.157  18.188  0.00  0.00    +0.000 C 
ATOM     11  C   UNL     1       2.381   6.557  18.503  0.00  0.00    +0.000 A 
ATOM     12  C   UNL     1       2.513   7.534  17.507  0.00  0.00    +0.000 A 
ATOM     13  C   UNL     1       2.126   8.843  17.749  0.00  0.00    +0.000 A 
ATOM     14  C   UNL     1       1.684   9.244  19.019  0.00  0.00    +0.000 A 
ATOM     15  C   UNL     1       1.478   8.265  20.028  0.00  0.00    +0.000 A 
ATOM     16  C   UNL     1       1.827   6.897  19.768  0.00  0.00    +0.000 A 
ATOM     17  C   UNL     1       1.746   5.784  20.793  0.00  0.00    +0.000 C 
BRANCH  15  18
ATOM     18  N   UNL     1       0.897   8.652  21.269  0.00  0.00    +0.000 N 
ATOM     19  N   UNL     1       1.607   9.295  22.241  0.00  0.00    +0.000 NA
ATOM     20  C   UNL     1       0.688   9.507  23.183  0.00  0.00    +0.000 A 
ATOM     21  C   UNL     1      -0.545   9.012  22.755  0.00  0.00    +0.000 A 
ATOM     22  N   UNL     1      -0.436   8.502  21.527  0.00  0.00    +0.000 NA
ENDBRANCH  15  18
ENDBRANCH   1  14
BRANCH   9  23
ATOM     23  C   UNL     1      -0.827  13.462  19.692  0.00  0.00    +0.000 C 
BRANCH  23  24
ATOM     24  C   UNL     1      -1.620  12.956  20.885  0.00  0.00    +0.000 A 
ATOM     25  C   UNL     1      -0.915  12.561  22.030  0.00  0.00    +0.000 A 
ATOM     26  C   UNL     1      -1.583  12.235  23.204  0.00  0.00    +0.000 A 
ATOM     27  C   UNL     1      -2.974  12.272  23.239  0.00  0.00    +0.000 A 
ATOM     28  C   UNL     1      -3.740  12.606  22.103  0.00  0.00    +0.000 A 
ATOM     29  C   UNL     1      -3.035  12.975  20.933  0.00  0.00    +0.000 A 
BRANCH  28  30
ATOM     30  C   UNL     1      -5.216  12.534  22.195  0.00  0.00    +0.000 A 
ATOM     31  N   UNL     1      -5.968  12.720  21.094  0.00  0.00    +0.000 NA
ATOM     32  C   UNL     1      -7.307  12.679  21.277  0.00  0.00    +0.000 A 
ATOM     33  C   UNL     1      -7.915  12.453  22.492  0.00  0.00    +0.000 A 
ATOM     34  C   UNL     1      -7.064  12.265  23.548  0.00  0.00    +0.000 A 
ATOM     35  N   UNL     1      -5.728  12.304  23.429  0.00  0.00    +0.000 NA
ENDBRANCH  28  30
ENDBRANCH  23  24
ENDBRANCH   9  23
TORSDOF 5
ENDMDL
MODEL 5
REMARK VINA RESULT:      -7.7      0.974      1.186
REMARK  Name = 
REMARK  8 active torsions:
REMARK  status: ('A' for Active; 'I' for Inactive)
REMARK    1  A    between atoms: C_1  and  C_2
REMARK    2  A    between atoms: C_5  and  C_6
REMARK    3  A    between atoms: C_10  and  C_11
REMARK    4  A    between atoms: C_14  and  C_15
REMARK    5  A    between atoms: C_15  and  C_16
REMARK    6  A    between atoms: C_20  and  C_21
REMARK    7  A    between atoms: C_28  and  N_29
REMARK    8  A    between atoms: C_34  and  C_35
REMARK                            x       y       z     vdW  Elec       q    Type
REMARK                         _______ _______ _______ _____ _____    ______ ____
ROOT
ATOM      1  C   UNL     1      -1.427  12.252  22.632  0.00  0.00    +0.000 C 
ATOM      2  O   UNL     1      -1.781  11.235  23.229  0.00  0.00    +0.000 OA
ATOM      3  N   UNL     1      -0.525  12.223  21.554  0.00  0.00    +0.000 N 
ATOM      4  C   UNL     1       0.179  13.364  20.954  0.00  0.00    +0.000 C 
ATOM      5  C   UNL     1      -0.024  13.496  19.437  0.00  0.00    +0.000 C 
ATOM      6  C   UNL     1       1.031  14.435  18.858  0.00  0.00    +0.000 C 
ATOM      7  O   UNL     1       0.097  12.247  18.743  0.00  0.00    +0.000 OA
ATOM      8  C   UNL     1      -0.754  11.248  19.312  0.00  0.00    +0.000 C 
ATOM      9  C   UNL     1      -0.407  10.965  20.783  0.00  0.00    +0.000 C 
ENDROOT
BRANCH   1  14
ATOM     10  C   UNL     1      -3.454  17.328  24.630  0.00  0.00    +0.000 C 
ATOM     11  C   UNL     1      -3.018  15.988  24.096  0.00  0.00    +0.000 A 
ATOM     12  C   UNL     1      -1.849  15.418  24.621  0.00  0.00    +0.000 A 
ATOM     13  C   UNL     1      -1.390  14.198  24.152  0.00  0.00    +0.000 A 
ATOM     14  C   UNL     1      -2.023  13.547  23.083  0.00  0.00    +0.000 A 
ATOM     15  C   UNL     1      -3.245  14.066  22.575  0.00  0.00    +0.000 A 
ATOM     16  C   UNL     1      -3.756  15.304  23.091  0.00  0.00    +0.000 A 
ATOM     17  C   UNL     1      -4.991  16.006  22.564  0.00  0.00    +0.000 C 
BRANCH  15  18
ATOM     18  N   UNL     1      -3.959  13.332  21.587  0.00  0.00    +0.000 N 
ATOM     19  N   UNL     1      -3.592  13.323  20.272  0.00  0.00    +0.000 NA
ATOM     20  C   UNL     1      -4.479  12.491  19.725  0.00  0.00    +0.000 A 
ATOM     21  C   UNL     1      -5.337  12.006  20.714  0.00  0.00    +0.000 A 
ATOM     22  N   UNL     1      -4.995  12.500  21.905  0.00  0.00    +0.000 NA
ENDBRANCH  15  18
ENDBRANCH   1  14
BRANCH   9  23
ATOM     23  C   UNL     1       0.897  10.144  20.976  0.00  0.00    +0.000 C 
BRANCH  23  24
ATOM     24  C   UNL     1       1.306   9.017  20.043  0.00  0.00    +0.000 A 
ATOM     25  C   UNL     1       1.724   9.348  18.747  0.00  0.00    +0.000 A 
ATOM     26  C   UNL     1       2.255   8.384  17.899  0.00  0.00    +0.000 A 
ATOM     27  C   UNL     1       2.347   7.063  18.328  0.00  0.00    +0.000 A 
ATOM     28  C   UNL     1       1.890   6.658  19.599  0.00  0.00    +0.000 A 
ATOM     29  C   UNL     1       1.395   7.667  20.460  0.00  0.00    +0.000 A 
BRANCH  28  30
ATOM     30  C   UNL     1       1.940   5.220  19.947  0.00  0.00    +0.000 A 
ATOM     31  N   UNL     1       1.703   4.291  19.002  0.00  0.00    +0.000 NA
ATOM     32  C   UNL     1       1.728   3.005  19.416  0.00  0.00    +0.000 A 
ATOM     33  C   UNL     1       1.986   2.613  20.711  0.00  0.00    +0.000 A 
ATOM     34  C   UNL     1       2.225   3.632  21.595  0.00  0.00    +0.000 A 
ATOM     35  N   UNL     1       2.204   4.928  21.244  0.00  0.00    +0.000 NA
ENDBRANCH  28  30
ENDBRANCH  23  24
ENDBRANCH   9  23
TORSDOF 5
ENDMDL
MODEL 6
REMARK VINA RESULT:      -7.6      4.146      6.802
REMARK  Name = 
REMARK  8 active torsions:
REMARK  status: ('A' for Active; 'I' for Inactive)
REMARK    1  A    between atoms: C_1  and  C_2
REMARK    2  A    between atoms: C_5  and  C_6
REMARK    3  A    between atoms: C_10  and  C_11
REMARK    4  A    between atoms: C_14  and  C_15
REMARK    5  A    between atoms: C_15  and  C_16
REMARK    6  A    between atoms: C_20  and  C_21
REMARK    7  A    between atoms: C_28  and  N_29
REMARK    8  A    between atoms: C_34  and  C_35
REMARK                            x       y       z     vdW  Elec       q    Type
REMARK                         _______ _______ _______ _____ _____    ______ ____
ROOT
ATOM      1  C   UNL     1       0.312  12.890  21.138  0.00  0.00    +0.000 C 
ATOM      2  O   UNL     1       1.346  13.373  21.602  0.00  0.00    +0.000 OA
ATOM      3  N   UNL     1       0.247  12.336  19.848  0.00  0.00    +0.000 N 
ATOM      4  C   UNL     1      -0.962  11.993  19.088  0.00  0.00    +0.000 C 
ATOM      5  C   UNL     1      -0.998  10.539  18.592  0.00  0.00    +0.000 C 
ATOM      6  C   UNL     1      -2.064  10.393  17.509  0.00  0.00    +0.000 C 
ATOM      7  O   UNL     1       0.246  10.110  18.022  0.00  0.00    +0.000 OA
ATOM      8  C   UNL     1       1.339  10.345  18.913  0.00  0.00    +0.000 C 
ATOM      9  C   UNL     1       1.503  11.838  19.243  0.00  0.00    +0.000 C 
ENDROOT
BRANCH   1  14
ATOM     10  C   UNL     1      -4.314  12.511  24.648  0.00  0.00    +0.000 C 
ATOM     11  C   UNL     1      -3.161  12.675  23.691  0.00  0.00    +0.000 A 
ATOM     12  C   UNL     1      -2.361  11.555  23.426  0.00  0.00    +0.000 A 
ATOM     13  C   UNL     1      -1.275  11.653  22.570  0.00  0.00    +0.000 A 
ATOM     14  C   UNL     1      -0.893  12.887  22.022  0.00  0.00    +0.000 A 
ATOM     15  C   UNL     1      -1.722  14.025  22.220  0.00  0.00    +0.000 A 
ATOM     16  C   UNL     1      -2.879  13.920  23.063  0.00  0.00    +0.000 A 
ATOM     17  C   UNL     1      -3.780  15.082  23.428  0.00  0.00    +0.000 C 
BRANCH  15  18
ATOM     18  N   UNL     1      -1.411  15.241  21.549  0.00  0.00    +0.000 N 
ATOM     19  N   UNL     1      -1.945  15.566  20.336  0.00  0.00    +0.000 NA
ATOM     20  C   UNL     1      -1.439  16.778  20.107  0.00  0.00    +0.000 A 
ATOM     21  C   UNL     1      -0.638  17.162  21.185  0.00  0.00    +0.000 A 
ATOM     22  N   UNL     1      -0.642  16.214  22.123  0.00  0.00    +0.000 NA
ENDBRANCH  15  18
ENDBRANCH   1  14
BRANCH   9  23
ATOM     23  C   UNL     1       2.105  12.676  18.084  0.00  0.00    +0.000 C 
BRANCH  23  24
ATOM     24  C   UNL     1       2.671  14.071  18.282  0.00  0.00    +0.000 A 
ATOM     25  C   UNL     1       1.783  15.106  18.610  0.00  0.00    +0.000 A 
ATOM     26  C   UNL     1       2.252  16.368  18.954  0.00  0.00    +0.000 A 
ATOM     27  C   UNL     1       3.622  16.621  18.944  0.00  0.00    +0.000 A 
ATOM     28  C   UNL     1       4.559  15.638  18.567  0.00  0.00    +0.000 A 
ATOM     29  C   UNL     1       4.059  14.349  18.264  0.00  0.00    +0.000 A 
BRANCH  28  30
ATOM     30  C   UNL     1       5.991  16.011  18.495  0.00  0.00    +0.000 A 
ATOM     31  N   UNL     1       6.376  17.261  18.813  0.00  0.00    +0.000 NA
ATOM     32  C   UNL     1       7.694  17.527  18.680  0.00  0.00    +0.000 A 
ATOM     33  C   UNL     1       8.630  16.608  18.259  0.00  0.00    +0.000 A 
ATOM     34  C   UNL     1       8.140  15.362  17.971  0.00  0.00    +0.000 A 
ATOM     35  N   UNL     1       6.840  15.043  18.075  0.00  0.00    +0.000 NA
ENDBRANCH  28  30
ENDBRANCH  23  24
ENDBRANCH   9  23
TORSDOF 5
ENDMDL
MODEL 7
REMARK VINA RESULT:      -7.5      3.504      7.186
REMARK  Name = 
REMARK  8 active torsions:
REMARK  status: ('A' for Active; 'I' for Inactive)
REMARK    1  A    between atoms: C_1  and  C_2
REMARK    2  A    between atoms: C_5  and  C_6
REMARK    3  A    between atoms: C_10  and  C_11
REMARK    4  A    between atoms: C_14  and  C_15
REMARK    5  A    between atoms: C_15  and  C_16
REMARK    6  A    between atoms: C_20  and  C_21
REMARK    7  A    between atoms: C_28  and  N_29
REMARK    8  A    between atoms: C_34  and  C_35
REMARK                            x       y       z     vdW  Elec       q    Type
REMARK                         _______ _______ _______ _____ _____    ______ ____
ROOT
ATOM      1  C   UNL     1      -0.831  13.417  19.782  0.00  0.00    +0.000 C 
ATOM      2  O   UNL     1      -0.784  13.793  18.610  0.00  0.00    +0.000 OA
ATOM      3  N   UNL     1      -0.739  12.063  20.148  0.00  0.00    +0.000 N 
ATOM      4  C   UNL     1      -1.057  11.472  21.455  0.00  0.00    +0.000 C 
ATOM      5  C   UNL     1       0.087  10.646  22.062  0.00  0.00    +0.000 C 
ATOM      6  C   UNL     1      -0.455   9.770  23.189  0.00  0.00    +0.000 C 
ATOM      7  O   UNL     1       0.715   9.774  21.114  0.00  0.00    +0.000 OA
ATOM      8  C   UNL     1       1.130  10.484  19.944  0.00  0.00    +0.000 C 
ATOM      9  C   UNL     1      -0.055  11.139  19.216  0.00  0.00    +0.000 C 
ENDROOT
BRANCH   1  14
ATOM     10  C   UNL     1      -1.736  17.497  23.833  0.00  0.00    +0.000 C 
ATOM     11  C   UNL     1      -1.424  16.486  22.760  0.00  0.00    +0.000 A 
ATOM     12  C   UNL     1      -2.497  15.855  22.116  0.00  0.00    +0.000 A 
ATOM     13  C   UNL     1      -2.268  14.901  21.136  0.00  0.00    +0.000 A 
ATOM     14  C   UNL     1      -0.967  14.475  20.831  0.00  0.00    +0.000 A 
ATOM     15  C   UNL     1       0.143  15.141  21.419  0.00  0.00    +0.000 A 
ATOM     16  C   UNL     1      -0.086  16.167  22.396  0.00  0.00    +0.000 A 
ATOM     17  C   UNL     1       1.011  16.878  23.163  0.00  0.00    +0.000 C 
BRANCH  15  18
ATOM     18  N   UNL     1       1.461  14.804  21.003  0.00  0.00    +0.000 N 
ATOM     19  N   UNL     1       2.120  15.493  20.026  0.00  0.00    +0.000 NA
ATOM     20  C   UNL     1       3.309  14.891  19.992  0.00  0.00    +0.000 A 
ATOM     21  C   UNL     1       3.348  13.878  20.953  0.00  0.00    +0.000 A 
ATOM     22  N   UNL     1       2.198  13.837  21.627  0.00  0.00    +0.000 NA
ENDBRANCH  15  18
ENDBRANCH   1  14
BRANCH   9  23
ATOM     23  C   UNL     1      -0.950  10.135  18.441  0.00  0.00    +0.000 C 
BRANCH  23  24
ATOM     24  C   UNL     1      -2.161  10.564  17.632  0.00  0.00    +0.000 A 
ATOM     25  C   UNL     1      -2.220  10.196  16.280  0.00  0.00    +0.000 A 
ATOM     26  C   UNL     1      -3.364  10.423  15.527  0.00  0.00    +0.000 A 
ATOM     27  C   UNL     1      -4.461  11.053  16.110  0.00  0.00    +0.000 A 
ATOM     28  C   UNL     1      -4.441  11.498  17.447  0.00  0.00    +0.000 A 
ATOM     29  C   UNL     1      -3.280  11.215  18.206  0.00  0.00    +0.000 A 
BRANCH  28  30
ATOM     30  C   UNL     1      -5.612  12.239  17.967  0.00  0.00    +0.000 A 
ATOM     31  N   UNL     1      -5.854  12.271  19.291  0.00  0.00    +0.000 NA
ATOM     32  C   UNL     1      -6.967  12.935  19.675  0.00  0.00    +0.000 A 
ATOM     33  C   UNL     1      -7.828  13.568  18.806  0.00  0.00    +0.000 A 
ATOM     34  C   UNL     1      -7.489  13.488  17.481  0.00  0.00    +0.000 A 
ATOM     35  N   UNL     1      -6.402  12.835  17.041  0.00  0.00    +0.000 NA
ENDBRANCH  28  30
ENDBRANCH  23  24
ENDBRANCH   9  23
TORSDOF 5
ENDMDL
MODEL 8
REMARK VINA RESULT:      -7.4      2.618      4.067
REMARK  Name = 
REMARK  8 active torsions:
REMARK  status: ('A' for Active; 'I' for Inactive)
REMARK    1  A    between atoms: C_1  and  C_2
REMARK    2  A    between atoms: C_5  and  C_6
REMARK    3  A    between atoms: C_10  and  C_11
REMARK    4  A    between atoms: C_14  and  C_15
REMARK    5  A    between atoms: C_15  and  C_16
REMARK    6  A    between atoms: C_20  and  C_21
REMARK    7  A    between atoms: C_28  and  N_29
REMARK    8  A    between atoms: C_34  and  C_35
REMARK                            x       y       z     vdW  Elec       q    Type
REMARK                         _______ _______ _______ _____ _____    ______ ____
ROOT
ATOM      1  C   UNL     1       0.548  11.315  21.214  0.00  0.00    +0.000 C 
ATOM      2  O   UNL     1       1.417  10.711  21.844  0.00  0.00    +0.000 OA
ATOM      3  N   UNL     1       0.221  11.002  19.882  0.00  0.00    +0.000 N 
ATOM      4  C   UNL     1      -0.577  11.809  18.950  0.00  0.00    +0.000 C 
ATOM      5  C   UNL     1      -1.765  11.057  18.331  0.00  0.00    +0.000 C 
ATOM      6  C   UNL     1      -2.278  11.822  17.114  0.00  0.00    +0.000 C 
ATOM      7  O   UNL     1      -1.425   9.737  17.888  0.00  0.00    +0.000 OA
ATOM      8  C   UNL     1      -0.796   8.982  18.926  0.00  0.00    +0.000 C 
ATOM      9  C   UNL     1       0.514   9.633  19.401  0.00  0.00    +0.000 C 
ENDROOT
BRANCH   1  14
ATOM     10  C   UNL     1      -2.560  15.277  24.130  0.00  0.00    +0.000 C 
ATOM     11  C   UNL     1      -1.730  14.319  23.315  0.00  0.00    +0.000 A 
ATOM     12  C   UNL     1      -2.145  12.982  23.247  0.00  0.00    +0.000 A 
ATOM     13  C   UNL     1      -1.407  12.053  22.530  0.00  0.00    +0.000 A 
ATOM     14  C   UNL     1      -0.185  12.400  21.935  0.00  0.00    +0.000 A 
ATOM     15  C   UNL     1       0.228  13.760  21.932  0.00  0.00    +0.000 A 
ATOM     16  C   UNL     1      -0.557  14.739  22.629  0.00  0.00    +0.000 A 
ATOM     17  C   UNL     1      -0.170  16.196  22.780  0.00  0.00    +0.000 C 
BRANCH  15  18
ATOM     18  N   UNL     1       1.396  14.134  21.209  0.00  0.00    +0.000 N 
ATOM     19  N   UNL     1       2.654  13.964  21.711  0.00  0.00    +0.000 NA
ATOM     20  C   UNL     1       3.428  14.389  20.712  0.00  0.00    +0.000 A 
ATOM     21  C   UNL     1       2.630  14.781  19.636  0.00  0.00    +0.000 A 
ATOM     22  N   UNL     1       1.341  14.588  19.922  0.00  0.00    +0.000 NA
ENDBRANCH  15  18
ENDBRANCH   1  14
BRANCH   9  23
ATOM     23  C   UNL     1       1.692   9.478  18.402  0.00  0.00    +0.000 C 
BRANCH  23  24
ATOM     24  C   UNL     1       2.482   8.189  18.253  0.00  0.00    +0.000 A 
ATOM     25  C   UNL     1       3.479   8.133  17.269  0.00  0.00    +0.000 A 
ATOM     26  C   UNL     1       4.337   7.045  17.182  0.00  0.00    +0.000 A 
ATOM     27  C   UNL     1       4.190   5.978  18.065  0.00  0.00    +0.000 A 
ATOM     28  C   UNL     1       3.170   5.950  19.038  0.00  0.00    +0.000 A 
ATOM     29  C   UNL     1       2.337   7.091  19.134  0.00  0.00    +0.000 A 
BRANCH  28  30
ATOM     30  C   UNL     1       3.022   4.741  19.879  0.00  0.00    +0.000 A 
ATOM     31  N   UNL     1       3.709   3.623  19.576  0.00  0.00    +0.000 NA
ATOM     32  C   UNL     1       3.483   2.555  20.371  0.00  0.00    +0.000 A 
ATOM     33  C   UNL     1       2.622   2.559  21.447  0.00  0.00    +0.000 A 
ATOM     34  C   UNL     1       1.980   3.746  21.679  0.00  0.00    +0.000 A 
ATOM     35  N   UNL     1       2.157   4.837  20.918  0.00  0.00    +0.000 NA
ENDBRANCH  28  30
ENDBRANCH  23  24
ENDBRANCH   9  23
TORSDOF 5
ENDMDL
MODEL 9
REMARK VINA RESULT:      -7.4      1.232      1.709
REMARK  Name = 
REMARK  8 active torsions:
REMARK  status: ('A' for Active; 'I' for Inactive)
REMARK    1  A    between atoms: C_1  and  C_2
REMARK    2  A    between atoms: C_5  and  C_6
REMARK    3  A    between atoms: C_10  and  C_11
REMARK    4  A    between atoms: C_14  and  C_15
REMARK    5  A    between atoms: C_15  and  C_16
REMARK    6  A    between atoms: C_20  and  C_21
REMARK    7  A    between atoms: C_28  and  N_29
REMARK    8  A    between atoms: C_34  and  C_35
REMARK                            x       y       z     vdW  Elec       q    Type
REMARK                         _______ _______ _______ _____ _____    ______ ____
ROOT
ATOM      1  C   UNL     1      -1.373  12.404  21.860  0.00  0.00    +0.000 C 
ATOM      2  O   UNL     1      -1.504  11.231  22.213  0.00  0.00    +0.000 OA
ATOM      3  N   UNL     1      -0.659  12.773  20.707  0.00  0.00    +0.000 N 
ATOM      4  C   UNL     1      -0.199  14.119  20.340  0.00  0.00    +0.000 C 
ATOM      5  C   UNL     1      -0.657  14.578  18.946  0.00  0.00    +0.000 C 
ATOM      6  C   UNL     1       0.173  15.779  18.503  0.00  0.00    +0.000 C 
ATOM      7  O   UNL     1      -0.505  13.565  17.944  0.00  0.00    +0.000 OA
ATOM      8  C   UNL     1      -1.129  12.340  18.337  0.00  0.00    +0.000 C 
ATOM      9  C   UNL     1      -0.519  11.770  19.628  0.00  0.00    +0.000 C 
ENDROOT
BRANCH   1  14
ATOM     10  C   UNL     1      -3.625  16.497  25.331  0.00  0.00    +0.000 C 
ATOM     11  C   UNL     1      -3.127  15.399  24.426  0.00  0.00    +0.000 A 
ATOM     12  C   UNL     1      -1.806  14.960  24.588  0.00  0.00    +0.000 A 
ATOM     13  C   UNL     1      -1.289  13.968  23.769  0.00  0.00    +0.000 A 
ATOM     14  C   UNL     1      -2.036  13.446  22.703  0.00  0.00    +0.000 A 
ATOM     15  C   UNL     1      -3.398  13.823  22.554  0.00  0.00    +0.000 A 
ATOM     16  C   UNL     1      -3.958  14.812  23.431  0.00  0.00    +0.000 A 
ATOM     17  C   UNL     1      -5.363  15.367  23.310  0.00  0.00    +0.000 C 
BRANCH  15  18
ATOM     18  N   UNL     1      -4.195  13.188  21.560  0.00  0.00    +0.000 N 
ATOM     19  N   UNL     1      -5.197  12.316  21.872  0.00  0.00    +0.000 NA
ATOM     20  C   UNL     1      -5.701  12.008  20.677  0.00  0.00    +0.000 A 
ATOM     21  C   UNL     1      -5.014  12.710  19.684  0.00  0.00    +0.000 A 
ATOM     22  N   UNL     1      -4.082  13.492  20.233  0.00  0.00    +0.000 NA
ENDBRANCH  15  18
ENDBRANCH   1  14
BRANCH   9  23
ATOM     23  C   UNL     1       0.885  11.138  19.434  0.00  0.00    +0.000 C 
BRANCH  23  24
ATOM     24  C   UNL     1       1.214   9.716  19.854  0.00  0.00    +0.000 A 
ATOM     25  C   UNL     1       0.751   9.268  21.099  0.00  0.00    +0.000 A 
ATOM     26  C   UNL     1       0.885   7.938  21.475  0.00  0.00    +0.000 A 
ATOM     27  C   UNL     1       1.514   7.038  20.618  0.00  0.00    +0.000 A 
ATOM     28  C   UNL     1       2.052   7.441  19.379  0.00  0.00    +0.000 A 
ATOM     29  C   UNL     1       1.864   8.792  19.000  0.00  0.00    +0.000 A 
BRANCH  28  30
ATOM     30  C   UNL     1       2.787   6.445  18.565  0.00  0.00    +0.000 A 
ATOM     31  N   UNL     1       3.848   6.828  17.831  0.00  0.00    +0.000 NA
ATOM     32  C   UNL     1       4.434   5.864  17.088  0.00  0.00    +0.000 A 
ATOM     33  C   UNL     1       4.016   4.551  17.054  0.00  0.00    +0.000 A 
ATOM     34  C   UNL     1       2.934   4.260  17.844  0.00  0.00    +0.000 A 
ATOM     35  N   UNL     1       2.307   5.178  18.596  0.00  0.00    +0.000 NA
ENDBRANCH  28  30
ENDBRANCH  23  24
ENDBRANCH   9  23
TORSDOF 5
ENDMDL
