MODEL 1
REMARK VINA RESULT:      -7.6      0.000      0.000
REMARK  Name = 
REMARK  13 active torsions:
REMARK  status: ('A' for Active; 'I' for Inactive)
REMARK    1  A    between atoms: C_1  and  O_2
REMARK    2  A    between atoms: O_2  and  C_3
REMARK    3  A    between atoms: C_5  and  N_6
REMARK    4  A    between atoms: C_11  and  C_12
REMARK    5  A    between atoms: C_25  and  O_26
REMARK    6  A    between atoms: O_26  and  C_27
REMARK    7  A    between atoms: C_27  and  C_28
REMARK    8  A    between atoms: C_28  and  C_29
REMARK    9  A    between atoms: C_28  and  C_30
REMARK   10  A    between atoms: C_28  and  O_31
REMARK   11  A    between atoms: O_31  and  C_32
REMARK   12  A    between atoms: C_32  and  C_34
REMARK   13  A    between atoms: C_34  and  N_35
REMARK                            x       y       z     vdW  Elec       q    Type
REMARK                         _______ _______ _______ _____ _____    ______ ____
ROOT
ATOM      1  C   UNL     1       2.892   5.981  19.495  0.00  0.00    +0.000 A 
ATOM      2  C   UNL     1       2.108   6.927  20.171  0.00  0.00    +0.000 A 
ATOM      3  C   UNL     1       1.826   8.203  19.648  0.00  0.00    +0.000 A 
ATOM      4  C   UNL     1       2.329   8.497  18.375  0.00  0.00    +0.000 A 
ATOM      5  C   UNL     1       3.071   7.545  17.663  0.00  0.00    +0.000 A 
ATOM      6  C   UNL     1       3.355   6.285  18.204  0.00  0.00    +0.000 A 
ENDROOT
BRANCH   3   7
ATOM      7  N   UNL     1       1.000   9.127  20.388  0.00  0.00    +0.000 N 
ATOM      8  C   UNL     1       1.099   9.212  21.768  0.00  0.00    +0.000 A 
ATOM      9  N   UNL     1       0.531  10.080  22.546  0.00  0.00    +0.000 NA
ATOM     10  N   UNL     1      -0.210  10.995  21.899  0.00  0.00    +0.000 N 
ATOM     11  C   UNL     1      -0.804  12.083  22.472  0.00  0.00    +0.000 A 
ATOM     12  C   UNL     1      -1.446  12.809  21.482  0.00  0.00    +0.000 A 
ATOM     13  C   UNL     1      -1.251  12.087  20.270  0.00  0.00    +0.000 A 
ATOM     14  C   UNL     1      -0.455  10.996  20.562  0.00  0.00    +0.000 A 
ATOM     15  C   UNL     1       0.096   9.976  19.725  0.00  0.00    +0.000 A 
ATOM     16  O   UNL     1      -0.245   9.872  18.549  0.00  0.00    +0.000 OA
BRANCH  12  17
ATOM     17  C   UNL     1      -2.152  14.059  21.704  0.00  0.00    +0.000 A 
ATOM     18  N   UNL     1      -2.167  14.963  20.703  0.00  0.00    +0.000 NA
ATOM     19  C   UNL     1      -2.843  16.107  20.947  0.00  0.00    +0.000 A 
ATOM     20  C   UNL     1      -3.487  16.373  22.134  0.00  0.00    +0.000 A 
ATOM     21 CL   UNL     1      -4.314  17.841  22.414  0.00  0.00    +0.000 Cl
ATOM     22  C   UNL     1      -3.414  15.379  23.083  0.00  0.00    +0.000 A 
ATOM     23  N   UNL     1      -2.760  14.211  22.896  0.00  0.00    +0.000 NA
ENDBRANCH  12  17
ENDBRANCH   3   7
BRANCH   1  25
ATOM     24  C   UNL     1       2.354   4.098  20.935  0.00  0.00    +0.000 C 
ATOM     25  O   UNL     1       3.227   4.774  20.041  0.00  0.00    +0.000 OA
ENDBRANCH   1  25
BRANCH   6  26
ATOM     26  O   UNL     1       4.081   5.493  17.346  0.00  0.00    +0.000 OA
BRANCH  26  27
ATOM     27  C   UNL     1       4.987   6.140  16.447  0.00  0.00    +0.000 C 
BRANCH  27  28
ATOM     28  C   UNL     1       6.129   5.192  16.014  0.00  0.00    +0.000 C 
ATOM     29  C   UNL     1       5.811   3.757  16.471  0.00  0.00    +0.000 C 
ATOM     30  C   UNL     1       6.269   5.184  14.484  0.00  0.00    +0.000 C 
BRANCH  28  31
ATOM     31  O   UNL     1       7.400   5.539  16.643  0.00  0.00    +0.000 OA
BRANCH  31  32
ATOM     32  C   UNL     1       7.417   6.428  17.670  0.00  0.00    +0.000 C 
ATOM     33  O   UNL     1       7.284   7.642  17.567  0.00  0.00    +0.000 OA
BRANCH  32  34
ATOM     34  C   UNL     1       7.708   5.735  18.995  0.00  0.00    +0.000 C 
BRANCH  34  35
ATOM     35  N   UNL     1       6.446   5.294  19.620  0.00  0.00    +0.000 NA
ATOM     36  H   UNL     1       5.679   5.516  18.976  0.00  0.00    +0.000 HD
ATOM     37  H   UNL     1       6.277   5.831  20.466  0.00  0.00    +0.000 HD
ENDBRANCH  34  35
ENDBRANCH  32  34
ENDBRANCH  31  32
ENDBRANCH  28  31
ENDBRANCH  27  28
ENDBRANCH  26  27
ENDBRANCH   6  26
TORSDOF 10
ENDMDL
MODEL 2
REMARK VINA RESULT:      -7.5      1.554      2.120
REMARK  Name = 
REMARK  13 active torsions:
REMARK  status: ('A' for Active; 'I' for Inactive)
REMARK    1  A    between atoms: C_1  and  O_2
REMARK    2  A    between atoms: O_2  and  C_3
REMARK    3  A    between atoms: C_5  and  N_6
REMARK    4  A    between atoms: C_11  and  C_12
REMARK    5  A    between atoms: C_25  and  O_26
REMARK    6  A    between atoms: O_26  and  C_27
REMARK    7  A    between atoms: C_27  and  C_28
REMARK    8  A    between atoms: C_28  and  C_29
REMARK    9  A    between atoms: C_28  and  C_30
REMARK   10  A    between atoms: C_28  and  O_31
REMARK   11  A    between atoms: O_31  and  C_32
REMARK   12  A    between atoms: C_32  and  C_34
REMARK   13  A    between atoms: C_34  and  N_35
REMARK                            x       y       z     vdW  Elec       q    Type
REMARK                         _______ _______ _______ _____ _____    ______ ____
ROOT
ATOM      1  C   UNL     1       2.491   6.088  19.805  0.00  0.00    +0.000 A 
ATOM      2  C   UNL     1       1.710   7.015  20.510  0.00  0.00    +0.000 A 
ATOM      3  C   UNL     1       1.488   8.329  20.060  0.00  0.00    +0.000 A 
ATOM      4  C   UNL     1       2.049   8.686  18.829  0.00  0.00    +0.000 A 
ATOM      5  C   UNL     1       2.790   7.758  18.086  0.00  0.00    +0.000 A 
ATOM      6  C   UNL     1       3.015   6.458  18.555  0.00  0.00    +0.000 A 
ENDROOT
BRANCH   3   7
ATOM      7  N   UNL     1       0.660   9.231  20.827  0.00  0.00    +0.000 N 
ATOM      8  C   UNL     1       0.812   9.331  22.201  0.00  0.00    +0.000 A 
ATOM      9  N   UNL     1       0.246  10.186  22.995  0.00  0.00    +0.000 NA
ATOM     10  N   UNL     1      -0.551  11.070  22.372  0.00  0.00    +0.000 N 
ATOM     11  C   UNL     1      -1.159  12.142  22.960  0.00  0.00    +0.000 A 
ATOM     12  C   UNL     1      -1.864  12.837  21.992  0.00  0.00    +0.000 A 
ATOM     13  C   UNL     1      -1.694  12.111  20.779  0.00  0.00    +0.000 A 
ATOM     14  C   UNL     1      -0.850  11.051  21.046  0.00  0.00    +0.000 A 
ATOM     15  C   UNL     1      -0.298  10.043  20.195  0.00  0.00    +0.000 A 
ATOM     16  O   UNL     1      -0.682   9.917  19.034  0.00  0.00    +0.000 OA
BRANCH  12  17
ATOM     17  C   UNL     1      -2.603  14.064  22.233  0.00  0.00    +0.000 A 
ATOM     18  N   UNL     1      -2.399  14.706  23.402  0.00  0.00    +0.000 NA
ATOM     19  C   UNL     1      -3.097  15.849  23.580  0.00  0.00    +0.000 A 
ATOM     20  C   UNL     1      -3.976  16.358  22.652  0.00  0.00    +0.000 A 
ATOM     21 CL   UNL     1      -4.859  17.795  22.924  0.00  0.00    +0.000 Cl
ATOM     22  C   UNL     1      -4.103  15.626  21.493  0.00  0.00    +0.000 A 
ATOM     23  N   UNL     1      -3.427  14.481  21.253  0.00  0.00    +0.000 NA
ENDBRANCH  12  17
ENDBRANCH   3   7
BRANCH   1  25
ATOM     24  C   UNL     1       1.789   4.079  20.978  0.00  0.00    +0.000 C 
ATOM     25  O   UNL     1       2.768   4.839  20.284  0.00  0.00    +0.000 OA
ENDBRANCH   1  25
BRANCH   6  26
ATOM     26  O   UNL     1       3.750   5.699  17.675  0.00  0.00    +0.000 OA
BRANCH  26  27
ATOM     27  C   UNL     1       5.125   5.458  17.990  0.00  0.00    +0.000 C 
BRANCH  27  28
ATOM     28  C   UNL     1       6.058   5.947  16.859  0.00  0.00    +0.000 C 
ATOM     29  C   UNL     1       5.216   6.532  15.710  0.00  0.00    +0.000 C 
ATOM     30  C   UNL     1       6.994   7.051  17.373  0.00  0.00    +0.000 C 
BRANCH  28  31
ATOM     31  O   UNL     1       6.830   4.855  16.271  0.00  0.00    +0.000 OA
BRANCH  31  32
ATOM     32  C   UNL     1       6.980   4.794  14.921  0.00  0.00    +0.000 C 
ATOM     33  O   UNL     1       7.778   5.449  14.261  0.00  0.00    +0.000 OA
BRANCH  32  34
ATOM     34  C   UNL     1       5.961   3.851  14.296  0.00  0.00    +0.000 C 
BRANCH  34  35
ATOM     35  N   UNL     1       6.478   3.331  13.014  0.00  0.00    +0.000 NA
ATOM     36  H   UNL     1       6.794   2.367  13.168  0.00  0.00    +0.000 HD
ATOM     37  H   UNL     1       7.298   3.862  12.734  0.00  0.00    +0.000 HD
ENDBRANCH  34  35
ENDBRANCH  32  34
ENDBRANCH  31  32
ENDBRANCH  28  31
ENDBRANCH  27  28
ENDBRANCH  26  27
ENDBRANCH   6  26
TORSDOF 10
ENDMDL
MODEL 3
REMARK VINA RESULT:      -7.5      1.780      2.310
REMARK  Name = 
REMARK  13 active torsions:
REMARK  status: ('A' for Active; 'I' for Inactive)
REMARK    1  A    between atoms: C_1  and  O_2
REMARK    2  A    between atoms: O_2  and  C_3
REMARK    3  A    between atoms: C_5  and  N_6
REMARK    4  A    between atoms: C_11  and  C_12
REMARK    5  A    between atoms: C_25  and  O_26
REMARK    6  A    between atoms: O_26  and  C_27
REMARK    7  A    between atoms: C_27  and  C_28
REMARK    8  A    between atoms: C_28  and  C_29
REMARK    9  A    between atoms: C_28  and  C_30
REMARK   10  A    between atoms: C_28  and  O_31
REMARK   11  A    between atoms: O_31  and  C_32
REMARK   12  A    between atoms: C_32  and  C_34
REMARK   13  A    between atoms: C_34  and  N_35
REMARK                            x       y       z     vdW  Elec       q    Type
REMARK                         _______ _______ _______ _____ _____    ______ ____
ROOT
ATOM      1  C   UNL     1       1.958   7.345  19.802  0.00  0.00    +0.000 A 
ATOM      2  C   UNL     1       1.261   8.530  20.075  0.00  0.00    +0.000 A 
ATOM      3  C   UNL     1       1.176   9.597  19.161  0.00  0.00    +0.000 A 
ATOM      4  C   UNL     1       1.790   9.422  17.916  0.00  0.00    +0.000 A 
ATOM      5  C   UNL     1       2.448   8.224  17.607  0.00  0.00    +0.000 A 
ATOM      6  C   UNL     1       2.536   7.177  18.533  0.00  0.00    +0.000 A 
ENDROOT
BRANCH   3   7
ATOM      7  N   UNL     1       0.429  10.786  19.498  0.00  0.00    +0.000 N 
ATOM      8  C   UNL     1      -0.419  11.372  18.572  0.00  0.00    +0.000 A 
ATOM      9  N   UNL     1      -1.251  12.348  18.772  0.00  0.00    +0.000 NA
ATOM     10  N   UNL     1      -1.276  12.796  20.039  0.00  0.00    +0.000 N 
ATOM     11  C   UNL     1      -2.147  13.723  20.535  0.00  0.00    +0.000 A 
ATOM     12  C   UNL     1      -1.887  13.897  21.884  0.00  0.00    +0.000 A 
ATOM     13  C   UNL     1      -0.779  13.057  22.187  0.00  0.00    +0.000 A 
ATOM     14  C   UNL     1      -0.454  12.368  21.034  0.00  0.00    +0.000 A 
ATOM     15  C   UNL     1       0.528  11.360  20.778  0.00  0.00    +0.000 A 
ATOM     16  O   UNL     1       1.378  11.079  21.620  0.00  0.00    +0.000 OA
BRANCH  12  17
ATOM     17  C   UNL     1      -2.644  14.773  22.762  0.00  0.00    +0.000 A 
ATOM     18  N   UNL     1      -3.937  14.473  22.994  0.00  0.00    +0.000 NA
ATOM     19  C   UNL     1      -4.600  15.306  23.825  0.00  0.00    +0.000 A 
ATOM     20  C   UNL     1      -4.027  16.410  24.414  0.00  0.00    +0.000 A 
ATOM     21 CL   UNL     1      -4.905  17.455  25.442  0.00  0.00    +0.000 Cl
ATOM     22  C   UNL     1      -2.700  16.619  24.114  0.00  0.00    +0.000 A 
ATOM     23  N   UNL     1      -1.982  15.817  23.298  0.00  0.00    +0.000 NA
ENDBRANCH  12  17
ENDBRANCH   3   7
BRANCH   1  25
ATOM     24  C   UNL     1       1.406   5.114  20.592  0.00  0.00    +0.000 C 
ATOM     25  O   UNL     1       2.102   6.345  20.722  0.00  0.00    +0.000 OA
ENDBRANCH   1  25
BRANCH   6  26
ATOM     26  O   UNL     1       3.207   6.086  18.034  0.00  0.00    +0.000 OA
BRANCH  26  27
ATOM     27  C   UNL     1       4.630   6.051  18.188  0.00  0.00    +0.000 C 
BRANCH  27  28
ATOM     28  C   UNL     1       5.185   4.622  17.989  0.00  0.00    +0.000 C 
ATOM     29  C   UNL     1       4.787   3.741  19.188  0.00  0.00    +0.000 C 
ATOM     30  C   UNL     1       4.597   3.989  16.719  0.00  0.00    +0.000 C 
BRANCH  28  31
ATOM     31  O   UNL     1       6.644   4.599  17.944  0.00  0.00    +0.000 OA
BRANCH  31  32
ATOM     32  C   UNL     1       7.318   5.711  17.546  0.00  0.00    +0.000 C 
ATOM     33  O   UNL     1       7.492   6.064  16.385  0.00  0.00    +0.000 OA
BRANCH  32  34
ATOM     34  C   UNL     1       7.917   6.448  18.736  0.00  0.00    +0.000 C 
BRANCH  34  35
ATOM     35  N   UNL     1       8.214   5.493  19.822  0.00  0.00    +0.000 NA
ATOM     36  H   UNL     1       8.880   4.801  19.461  0.00  0.00    +0.000 HD
ATOM     37  H   UNL     1       7.371   4.980  20.067  0.00  0.00    +0.000 HD
ENDBRANCH  34  35
ENDBRANCH  32  34
ENDBRANCH  31  32
ENDBRANCH  28  31
ENDBRANCH  27  28
ENDBRANCH  26  27
ENDBRANCH   6  26
TORSDOF 10
ENDMDL
MODEL 4
REMARK VINA RESULT:      -7.4      1.393      1.984
REMARK  Name = 
REMARK  13 active torsions:
REMARK  status: ('A' for Active; 'I' for Inactive)
REMARK    1  A    between atoms: C_1  and  O_2
REMARK    2  A    between atoms: O_2  and  C_3
REMARK    3  A    between atoms: C_5  and  N_6
REMARK    4  A    between atoms: C_11  and  C_12
REMARK    5  A    between atoms: C_25  and  O_26
REMARK    6  A    between atoms: O_26  and  C_27
REMARK    7  A    between atoms: C_27  and  C_28
REMARK    8  A    between atoms: C_28  and  C_29
REMARK    9  A    between atoms: C_28  and  C_30
REMARK   10  A    between atoms: C_28  and  O_31
REMARK   11  A    between atoms: O_31  and  C_32
REMARK   12  A    between atoms: C_32  and  C_34
REMARK   13  A    between atoms: C_34  and  N_35
REMARK                            x       y       z     vdW  Elec       q    Type
REMARK                         _______ _______ _______ _____ _____    ______ ____
ROOT
ATOM      1  C   UNL     1       2.544   6.133  19.867  0.00  0.00    +0.000 A 
ATOM      2  C   UNL     1       1.749   7.057  20.560  0.00  0.00    +0.000 A 
ATOM      3  C   UNL     1       1.474   8.349  20.073  0.00  0.00    +0.000 A 
ATOM      4  C   UNL     1       1.995   8.683  18.818  0.00  0.00    +0.000 A 
ATOM      5  C   UNL     1       2.749   7.754  18.088  0.00  0.00    +0.000 A 
ATOM      6  C   UNL     1       3.027   6.478  18.593  0.00  0.00    +0.000 A 
ENDROOT
BRANCH   3   7
ATOM      7  N   UNL     1       0.635   9.248  20.829  0.00  0.00    +0.000 N 
ATOM      8  C   UNL     1       0.757   9.335  22.207  0.00  0.00    +0.000 A 
ATOM      9  N   UNL     1       0.179  10.187  22.997  0.00  0.00    +0.000 NA
ATOM     10  N   UNL     1      -0.600  11.081  22.364  0.00  0.00    +0.000 N 
ATOM     11  C   UNL     1      -1.214  12.151  22.948  0.00  0.00    +0.000 A 
ATOM     12  C   UNL     1      -1.894  12.859  21.971  0.00  0.00    +0.000 A 
ATOM     13  C   UNL     1      -1.701  12.143  20.756  0.00  0.00    +0.000 A 
ATOM     14  C   UNL     1      -0.869  11.076  21.032  0.00  0.00    +0.000 A 
ATOM     15  C   UNL     1      -0.305  10.072  20.184  0.00  0.00    +0.000 A 
ATOM     16  O   UNL     1      -0.663   9.959  19.014  0.00  0.00    +0.000 OA
BRANCH  12  17
ATOM     17  C   UNL     1      -2.630  14.089  22.207  0.00  0.00    +0.000 A 
ATOM     18  N   UNL     1      -3.323  14.619  21.179  0.00  0.00    +0.000 NA
ATOM     19  C   UNL     1      -4.002  15.756  21.444  0.00  0.00    +0.000 A 
ATOM     20  C   UNL     1      -4.008  16.370  22.676  0.00  0.00    +0.000 A 
ATOM     21 CL   UNL     1      -4.862  17.821  22.967  0.00  0.00    +0.000 Cl
ATOM     22  C   UNL     1      -3.274  15.740  23.655  0.00  0.00    +0.000 A 
ATOM     23  N   UNL     1      -2.581  14.598  23.453  0.00  0.00    +0.000 NA
ENDBRANCH  12  17
ENDBRANCH   3   7
BRANCH   1  25
ATOM     24  C   UNL     1       1.916   4.116  21.068  0.00  0.00    +0.000 C 
ATOM     25  O   UNL     1       2.872   4.910  20.380  0.00  0.00    +0.000 OA
ENDBRANCH   1  25
BRANCH   6  26
ATOM     26  O   UNL     1       3.766   5.714  17.722  0.00  0.00    +0.000 OA
BRANCH  26  27
ATOM     27  C   UNL     1       5.166   5.573  17.981  0.00  0.00    +0.000 C 
BRANCH  27  28
ATOM     28  C   UNL     1       6.017   6.199  16.852  0.00  0.00    +0.000 C 
ATOM     29  C   UNL     1       5.094   6.686  15.720  0.00  0.00    +0.000 C 
ATOM     30  C   UNL     1       6.803   7.409  17.379  0.00  0.00    +0.000 C 
BRANCH  28  31
ATOM     31  O   UNL     1       6.921   5.228  16.241  0.00  0.00    +0.000 OA
BRANCH  31  32
ATOM     32  C   UNL     1       6.418   4.281  15.406  0.00  0.00    +0.000 C 
ATOM     33  O   UNL     1       5.733   3.322  15.742  0.00  0.00    +0.000 OA
BRANCH  32  34
ATOM     34  C   UNL     1       6.882   4.508  13.973  0.00  0.00    +0.000 C 
BRANCH  34  35
ATOM     35  N   UNL     1       7.950   5.527  13.946  0.00  0.00    +0.000 NA
ATOM     36  H   UNL     1       7.903   6.059  14.821  0.00  0.00    +0.000 HD
ATOM     37  H   UNL     1       7.773   6.190  13.195  0.00  0.00    +0.000 HD
ENDBRANCH  34  35
ENDBRANCH  32  34
ENDBRANCH  31  32
ENDBRANCH  28  31
ENDBRANCH  27  28
ENDBRANCH  26  27
ENDBRANCH   6  26
TORSDOF 10
ENDMDL
MODEL 5
REMARK VINA RESULT:      -7.3      1.108      1.478
REMARK  Name = 
REMARK  13 active torsions:
REMARK  status: ('A' for Active; 'I' for Inactive)
REMARK    1  A    between atoms: C_1  and  O_2
REMARK    2  A    between atoms: O_2  and  C_3
REMARK    3  A    between atoms: C_5  and  N_6
REMARK    4  A    between atoms: C_11  and  C_12
REMARK    5  A    between atoms: C_25  and  O_26
REMARK    6  A    between atoms: O_26  and  C_27
REMARK    7  A    between atoms: C_27  and  C_28
REMARK    8  A    between atoms: C_28  and  C_29
REMARK    9  A    between atoms: C_28  and  C_30
REMARK   10  A    between atoms: C_28  and  O_31
REMARK   11  A    between atoms: O_31  and  C_32
REMARK   12  A    between atoms: C_32  and  C_34
REMARK   13  A    between atoms: C_34  and  N_35
REMARK                            x       y       z     vdW  Elec       q    Type
REMARK                         _______ _______ _______ _____ _____    ______ ____
ROOT
ATOM      1  C   UNL     1       2.214   6.738  19.857  0.00  0.00    +0.000 A 
ATOM      2  C   UNL     1       1.418   7.613  20.610  0.00  0.00    +0.000 A 
ATOM      3  C   UNL     1       1.053   8.896  20.159  0.00  0.00    +0.000 A 
ATOM      4  C   UNL     1       1.482   9.270  18.881  0.00  0.00    +0.000 A 
ATOM      5  C   UNL     1       2.235   8.389  18.094  0.00  0.00    +0.000 A 
ATOM      6  C   UNL     1       2.604   7.122  18.562  0.00  0.00    +0.000 A 
ENDROOT
BRANCH   3   7
ATOM      7  N   UNL     1       0.218   9.744  20.977  0.00  0.00    +0.000 N 
ATOM      8  C   UNL     1       0.329   9.721  22.358  0.00  0.00    +0.000 A 
ATOM      9  N   UNL     1      -0.246  10.516  23.208  0.00  0.00    +0.000 NA
ATOM     10  N   UNL     1      -1.008  11.466  22.641  0.00  0.00    +0.000 N 
ATOM     11  C   UNL     1      -1.615  12.495  23.302  0.00  0.00    +0.000 A 
ATOM     12  C   UNL     1      -2.278  13.285  22.378  0.00  0.00    +0.000 A 
ATOM     13  C   UNL     1      -2.083  12.664  21.112  0.00  0.00    +0.000 A 
ATOM     14  C   UNL     1      -1.266  11.568  21.310  0.00  0.00    +0.000 A 
ATOM     15  C   UNL     1      -0.707  10.626  20.391  0.00  0.00    +0.000 A 
ATOM     16  O   UNL     1      -1.056  10.609  19.213  0.00  0.00    +0.000 OA
BRANCH  12  17
ATOM     17  C   UNL     1      -3.003  14.501  22.704  0.00  0.00    +0.000 A 
ATOM     18  N   UNL     1      -3.522  14.616  23.943  0.00  0.00    +0.000 NA
ATOM     19  C   UNL     1      -4.177  15.767  24.208  0.00  0.00    +0.000 A 
ATOM     20  C   UNL     1      -4.332  16.783  23.293  0.00  0.00    +0.000 A 
ATOM     21 CL   UNL     1      -5.188  18.216  23.658  0.00  0.00    +0.000 Cl
ATOM     22  C   UNL     1      -3.757  16.564  22.062  0.00  0.00    +0.000 A 
ATOM     23  N   UNL     1      -3.082  15.439  21.740  0.00  0.00    +0.000 NA
ENDBRANCH  12  17
ENDBRANCH   3   7
BRANCH   1  25
ATOM     24  C   UNL     1       1.702   4.503  20.664  0.00  0.00    +0.000 C 
ATOM     25  O   UNL     1       2.630   5.526  20.331  0.00  0.00    +0.000 OA
ENDBRANCH   1  25
BRANCH   6  26
ATOM     26  O   UNL     1       3.326   6.406  17.638  0.00  0.00    +0.000 OA
BRANCH  26  27
ATOM     27  C   UNL     1       4.734   6.267  17.853  0.00  0.00    +0.000 C 
BRANCH  27  28
ATOM     28  C   UNL     1       5.451   5.738  16.590  0.00  0.00    +0.000 C 
ATOM     29  C   UNL     1       5.070   4.264  16.359  0.00  0.00    +0.000 C 
ATOM     30  C   UNL     1       5.020   6.540  15.353  0.00  0.00    +0.000 C 
BRANCH  28  31
ATOM     31  O   UNL     1       6.904   5.758  16.733  0.00  0.00    +0.000 OA
BRANCH  31  32
ATOM     32  C   UNL     1       7.489   6.730  17.481  0.00  0.00    +0.000 C 
ATOM     33  O   UNL     1       7.764   7.860  17.095  0.00  0.00    +0.000 OA
BRANCH  32  34
ATOM     34  C   UNL     1       7.846   6.217  18.869  0.00  0.00    +0.000 C 
BRANCH  34  35
ATOM     35  N   UNL     1       8.145   4.773  18.810  0.00  0.00    +0.000 NA
ATOM     36  H   UNL     1       8.379   4.537  17.839  0.00  0.00    +0.000 HD
ATOM     37  H   UNL     1       7.311   4.240  19.043  0.00  0.00    +0.000 HD
ENDBRANCH  34  35
ENDBRANCH  32  34
ENDBRANCH  31  32
ENDBRANCH  28  31
ENDBRANCH  27  28
ENDBRANCH  26  27
ENDBRANCH   6  26
TORSDOF 10
ENDMDL
MODEL 6
REMARK VINA RESULT:      -7.3      1.350      1.767
REMARK  Name = 
REMARK  13 active torsions:
REMARK  status: ('A' for Active; 'I' for Inactive)
REMARK    1  A    between atoms: C_1  and  O_2
REMARK    2  A    between atoms: O_2  and  C_3
REMARK    3  A    between atoms: C_5  and  N_6
REMARK    4  A    between atoms: C_11  and  C_12
REMARK    5  A    between atoms: C_25  and  O_26
REMARK    6  A    between atoms: O_26  and  C_27
REMARK    7  A    between atoms: C_27  and  C_28
REMARK    8  A    between atoms: C_28  and  C_29
REMARK    9  A    between atoms: C_28  and  C_30
REMARK   10  A    between atoms: C_28  and  O_31
REMARK   11  A    between atoms: O_31  and  C_32
REMARK   12  A    between atoms: C_32  and  C_34
REMARK   13  A    between atoms: C_34  and  N_35
REMARK                            x       y       z     vdW  Elec       q    Type
REMARK                         _______ _______ _______ _____ _____    ______ ____
ROOT
ATOM      1  C   UNL     1       2.626   5.318  20.019  0.00  0.00    +0.000 A 
ATOM      2  C   UNL     1       1.950   6.491  20.387  0.00  0.00    +0.000 A 
ATOM      3  C   UNL     1       2.060   7.696  19.669  0.00  0.00    +0.000 A 
ATOM      4  C   UNL     1       2.854   7.683  18.517  0.00  0.00    +0.000 A 
ATOM      5  C   UNL     1       3.496   6.508  18.106  0.00  0.00    +0.000 A 
ATOM      6  C   UNL     1       3.389   5.320  18.839  0.00  0.00    +0.000 A 
ENDROOT
BRANCH   3   7
ATOM      7  N   UNL     1       1.325   8.865  20.093  0.00  0.00    +0.000 N 
ATOM      8  C   UNL     1       1.181   9.158  21.439  0.00  0.00    +0.000 A 
ATOM      9  N   UNL     1       0.675  10.232  21.962  0.00  0.00    +0.000 NA
ATOM     10  N   UNL     1       0.279  11.146  21.061  0.00  0.00    +0.000 N 
ATOM     11  C   UNL     1      -0.168  12.404  21.351  0.00  0.00    +0.000 A 
ATOM     12  C   UNL     1      -0.445  13.060  20.164  0.00  0.00    +0.000 A 
ATOM     13  C   UNL     1      -0.185  12.124  19.123  0.00  0.00    +0.000 A 
ATOM     14  C   UNL     1       0.293  10.970  19.713  0.00  0.00    +0.000 A 
ATOM     15  C   UNL     1       0.761   9.742  19.149  0.00  0.00    +0.000 A 
ATOM     16  O   UNL     1       0.632   9.508  17.950  0.00  0.00    +0.000 OA
BRANCH  12  17
ATOM     17  C   UNL     1      -0.898  14.437  20.070  0.00  0.00    +0.000 A 
ATOM     18  N   UNL     1      -1.799  14.870  20.975  0.00  0.00    +0.000 NA
ATOM     19  C   UNL     1      -2.185  16.159  20.859  0.00  0.00    +0.000 A 
ATOM     20  C   UNL     1      -1.714  17.010  19.886  0.00  0.00    +0.000 A 
ATOM     21 CL   UNL     1      -2.244  18.629  19.756  0.00  0.00    +0.000 Cl
ATOM     22  C   UNL     1      -0.793  16.467  19.019  0.00  0.00    +0.000 A 
ATOM     23  N   UNL     1      -0.362  15.188  19.089  0.00  0.00    +0.000 NA
ENDBRANCH  12  17
ENDBRANCH   3   7
BRANCH   1  25
ATOM     24  C   UNL     1       1.370   3.440  20.914  0.00  0.00    +0.000 C 
ATOM     25  O   UNL     1       2.577   4.174  20.763  0.00  0.00    +0.000 OA
ENDBRANCH   1  25
BRANCH   6  26
ATOM     26  O   UNL     1       4.079   4.280  18.264  0.00  0.00    +0.000 OA
BRANCH  26  27
ATOM     27  C   UNL     1       4.079   4.188  16.836  0.00  0.00    +0.000 C 
BRANCH  27  28
ATOM     28  C   UNL     1       5.442   4.609  16.241  0.00  0.00    +0.000 C 
ATOM     29  C   UNL     1       5.894   3.569  15.199  0.00  0.00    +0.000 C 
ATOM     30  C   UNL     1       5.324   5.968  15.536  0.00  0.00    +0.000 C 
BRANCH  28  31
ATOM     31  O   UNL     1       6.496   4.645  17.251  0.00  0.00    +0.000 OA
BRANCH  31  32
ATOM     32  C   UNL     1       7.275   5.754  17.364  0.00  0.00    +0.000 C 
ATOM     33  O   UNL     1       7.680   6.440  16.433  0.00  0.00    +0.000 OA
BRANCH  32  34
ATOM     34  C   UNL     1       7.665   6.008  18.814  0.00  0.00    +0.000 C 
BRANCH  34  35
ATOM     35  N   UNL     1       6.781   5.241  19.714  0.00  0.00    +0.000 NA
ATOM     36  H   UNL     1       6.531   5.847  20.503  0.00  0.00    +0.000 HD
ATOM     37  H   UNL     1       7.292   4.453  20.106  0.00  0.00    +0.000 HD
ENDBRANCH  34  35
ENDBRANCH  32  34
ENDBRANCH  31  32
ENDBRANCH  28  31
ENDBRANCH  27  28
ENDBRANCH  26  27
ENDBRANCH   6  26
TORSDOF 10
ENDMDL
MODEL 7
REMARK VINA RESULT:      -7.3      1.933      2.676
REMARK  Name = 
REMARK  13 active torsions:
REMARK  status: ('A' for Active; 'I' for Inactive)
REMARK    1  A    between atoms: C_1  and  O_2
REMARK    2  A    between atoms: O_2  and  C_3
REMARK    3  A    between atoms: C_5  and  N_6
REMARK    4  A    between atoms: C_11  and  C_12
REMARK    5  A    between atoms: C_25  and  O_26
REMARK    6  A    between atoms: O_26  and  C_27
REMARK    7  A    between atoms: C_27  and  C_28
REMARK    8  A    between atoms: C_28  and  C_29
REMARK    9  A    between atoms: C_28  and  C_30
REMARK   10  A    between atoms: C_28  and  O_31
REMARK   11  A    between atoms: O_31  and  C_32
REMARK   12  A    between atoms: C_32  and  C_34
REMARK   13  A    between atoms: C_34  and  N_35
REMARK                            x       y       z     vdW  Elec       q    Type
REMARK                         _______ _______ _______ _____ _____    ______ ____
ROOT
ATOM      1  C   UNL     1       2.158   7.019  19.816  0.00  0.00    +0.000 A 
ATOM      2  C   UNL     1       1.294   8.101  20.037  0.00  0.00    +0.000 A 
ATOM      3  C   UNL     1       1.224   9.214  19.178  0.00  0.00    +0.000 A 
ATOM      4  C   UNL     1       2.035   9.193  18.037  0.00  0.00    +0.000 A 
ATOM      5  C   UNL     1       2.866   8.097  17.774  0.00  0.00    +0.000 A 
ATOM      6  C   UNL     1       2.936   7.003  18.646  0.00  0.00    +0.000 A 
ENDROOT
BRANCH   3   7
ATOM      7  N   UNL     1       0.301  10.290  19.455  0.00  0.00    +0.000 N 
ATOM      8  C   UNL     1      -0.857  10.436  18.708  0.00  0.00    +0.000 A 
ATOM      9  N   UNL     1      -1.837  11.257  18.926  0.00  0.00    +0.000 NA
ATOM     10  N   UNL     1      -1.681  12.018  20.022  0.00  0.00    +0.000 N 
ATOM     11  C   UNL     1      -2.618  12.867  20.538  0.00  0.00    +0.000 A 
ATOM     12  C   UNL     1      -2.107  13.444  21.689  0.00  0.00    +0.000 A 
ATOM     13  C   UNL     1      -0.784  12.937  21.833  0.00  0.00    +0.000 A 
ATOM     14  C   UNL     1      -0.572  12.036  20.809  0.00  0.00    +0.000 A 
ATOM     15  C   UNL     1       0.545  11.197  20.502  0.00  0.00    +0.000 A 
ATOM     16  O   UNL     1       1.609  11.316  21.106  0.00  0.00    +0.000 OA
BRANCH  12  17
ATOM     17  C   UNL     1      -2.835  14.369  22.540  0.00  0.00    +0.000 A 
ATOM     18  N   UNL     1      -2.314  15.597  22.731  0.00  0.00    +0.000 NA
ATOM     19  C   UNL     1      -3.028  16.429  23.520  0.00  0.00    +0.000 A 
ATOM     20  C   UNL     1      -4.219  16.079  24.115  0.00  0.00    +0.000 A 
ATOM     21 CL   UNL     1      -5.083  17.152  25.125  0.00  0.00    +0.000 Cl
ATOM     22  C   UNL     1      -4.663  14.805  23.846  0.00  0.00    +0.000 A 
ATOM     23  N   UNL     1      -3.998  13.930  23.060  0.00  0.00    +0.000 NA
ENDBRANCH  12  17
ENDBRANCH   3   7
BRANCH   1  25
ATOM     24  C   UNL     1       1.492   4.803  20.559  0.00  0.00    +0.000 C 
ATOM     25  O   UNL     1       2.278   5.979  20.693  0.00  0.00    +0.000 OA
ENDBRANCH   1  25
BRANCH   6  26
ATOM     26  O   UNL     1       3.797   6.028  18.203  0.00  0.00    +0.000 OA
BRANCH  26  27
ATOM     27  C   UNL     1       4.890   6.431  17.372  0.00  0.00    +0.000 C 
BRANCH  27  28
ATOM     28  C   UNL     1       6.219   5.791  17.836  0.00  0.00    +0.000 C 
ATOM     29  C   UNL     1       7.368   6.802  17.662  0.00  0.00    +0.000 C 
ATOM     30  C   UNL     1       6.142   5.410  19.322  0.00  0.00    +0.000 C 
BRANCH  28  31
ATOM     31  O   UNL     1       6.583   4.630  17.028  0.00  0.00    +0.000 OA
BRANCH  31  32
ATOM     32  C   UNL     1       5.848   4.327  15.925  0.00  0.00    +0.000 C 
ATOM     33  O   UNL     1       4.723   3.841  15.928  0.00  0.00    +0.000 OA
BRANCH  32  34
ATOM     34  C   UNL     1       6.635   4.591  14.648  0.00  0.00    +0.000 C 
BRANCH  34  35
ATOM     35  N   UNL     1       6.275   3.593  13.621  0.00  0.00    +0.000 NA
ATOM     36  H   UNL     1       6.593   3.947  12.712  0.00  0.00    +0.000 HD
ATOM     37  H   UNL     1       5.263   3.513  13.561  0.00  0.00    +0.000 HD
ENDBRANCH  34  35
ENDBRANCH  32  34
ENDBRANCH  31  32
ENDBRANCH  28  31
ENDBRANCH  27  28
ENDBRANCH  26  27
ENDBRANCH   6  26
TORSDOF 10
ENDMDL
MODEL 8
REMARK VINA RESULT:      -7.2      1.981      2.690
REMARK  Name = 
REMARK  13 active torsions:
REMARK  status: ('A' for Active; 'I' for Inactive)
REMARK    1  A    between atoms: C_1  and  O_2
REMARK    2  A    between atoms: O_2  and  C_3
REMARK    3  A    between atoms: C_5  and  N_6
REMARK    4  A    between atoms: C_11  and  C_12
REMARK    5  A    between atoms: C_25  and  O_26
REMARK    6  A    between atoms: O_26  and  C_27
REMARK    7  A    between atoms: C_27  and  C_28
REMARK    8  A    between atoms: C_28  and  C_29
REMARK    9  A    between atoms: C_28  and  C_30
REMARK   10  A    between atoms: C_28  and  O_31
REMARK   11  A    between atoms: O_31  and  C_32
REMARK   12  A    between atoms: C_32  and  C_34
REMARK   13  A    between atoms: C_34  and  N_35
REMARK                            x       y       z     vdW  Elec       q    Type
REMARK                         _______ _______ _______ _____ _____    ______ ____
ROOT
ATOM      1  C   UNL     1       2.413   6.799  19.682  0.00  0.00    +0.000 A 
ATOM      2  C   UNL     1       1.587   7.906  19.926  0.00  0.00    +0.000 A 
ATOM      3  C   UNL     1       1.531   9.023  19.072  0.00  0.00    +0.000 A 
ATOM      4  C   UNL     1       2.315   8.981  17.913  0.00  0.00    +0.000 A 
ATOM      5  C   UNL     1       3.107   7.862  17.627  0.00  0.00    +0.000 A 
ATOM      6  C   UNL     1       3.163   6.764  18.495  0.00  0.00    +0.000 A 
ENDROOT
BRANCH   3   7
ATOM      7  N   UNL     1       0.647  10.125  19.372  0.00  0.00    +0.000 N 
ATOM      8  C   UNL     1       0.204  10.968  18.366  0.00  0.00    +0.000 A 
ATOM      9  N   UNL     1      -0.691  11.902  18.459  0.00  0.00    +0.000 NA
ATOM     10  N   UNL     1      -1.240  12.017  19.680  0.00  0.00    +0.000 N 
ATOM     11  C   UNL     1      -2.286  12.832  20.006  0.00  0.00    +0.000 A 
ATOM     12  C   UNL     1      -2.591  12.647  21.344  0.00  0.00    +0.000 A 
ATOM     13  C   UNL     1      -1.648  11.702  21.839  0.00  0.00    +0.000 A 
ATOM     14  C   UNL     1      -0.857  11.311  20.776  0.00  0.00    +0.000 A 
ATOM     15  C   UNL     1       0.200  10.352  20.686  0.00  0.00    +0.000 A 
ATOM     16  O   UNL     1       0.662   9.824  21.695  0.00  0.00    +0.000 OA
BRANCH  12  17
ATOM     17  C   UNL     1      -3.680  13.311  22.040  0.00  0.00    +0.000 A 
ATOM     18  N   UNL     1      -3.543  14.621  22.325  0.00  0.00    +0.000 NA
ATOM     19  C   UNL     1      -4.583  15.202  22.962  0.00  0.00    +0.000 A 
ATOM     20  C   UNL     1      -5.729  14.529  23.321  0.00  0.00    +0.000 A 
ATOM     21 CL   UNL     1      -7.014  15.293  24.147  0.00  0.00    +0.000 Cl
ATOM     22  C   UNL     1      -5.766  13.197  22.975  0.00  0.00    +0.000 A 
ATOM     23  N   UNL     1      -4.762  12.563  22.330  0.00  0.00    +0.000 NA
ENDBRANCH  12  17
ENDBRANCH   3   7
BRANCH   1  25
ATOM     24  C   UNL     1       1.570   4.697  20.564  0.00  0.00    +0.000 C 
ATOM     25  O   UNL     1       2.521   5.752  20.553  0.00  0.00    +0.000 OA
ENDBRANCH   1  25
BRANCH   6  26
ATOM     26  O   UNL     1       3.985   5.765  18.029  0.00  0.00    +0.000 OA
BRANCH  26  27
ATOM     27  C   UNL     1       5.087   6.141  17.197  0.00  0.00    +0.000 C 
BRANCH  27  28
ATOM     28  C   UNL     1       6.439   5.752  17.839  0.00  0.00    +0.000 C 
ATOM     29  C   UNL     1       7.381   6.970  17.836  0.00  0.00    +0.000 C 
ATOM     30  C   UNL     1       6.235   5.312  19.296  0.00  0.00    +0.000 C 
BRANCH  28  31
ATOM     31  O   UNL     1       7.129   4.712  17.082  0.00  0.00    +0.000 OA
BRANCH  31  32
ATOM     32  C   UNL     1       7.110   4.750  15.723  0.00  0.00    +0.000 C 
ATOM     33  O   UNL     1       7.702   5.563  15.022  0.00  0.00    +0.000 OA
BRANCH  32  34
ATOM     34  C   UNL     1       6.177   3.688  15.155  0.00  0.00    +0.000 C 
BRANCH  34  35
ATOM     35  N   UNL     1       5.343   4.272  14.086  0.00  0.00    +0.000 NA
ATOM     36  H   UNL     1       5.960   4.530  13.308  0.00  0.00    +0.000 HD
ATOM     37  H   UNL     1       4.917   5.134  14.415  0.00  0.00    +0.000 HD
ENDBRANCH  34  35
ENDBRANCH  32  34
ENDBRANCH  31  32
ENDBRANCH  28  31
ENDBRANCH  27  28
ENDBRANCH  26  27
ENDBRANCH   6  26
TORSDOF 10
ENDMDL
MODEL 9
REMARK VINA RESULT:      -7.2      1.662      2.210
REMARK  Name = 
REMARK  13 active torsions:
REMARK  status: ('A' for Active; 'I' for Inactive)
REMARK    1  A    between atoms: C_1  and  O_2
REMARK    2  A    between atoms: O_2  and  C_3
REMARK    3  A    between atoms: C_5  and  N_6
REMARK    4  A    between atoms: C_11  and  C_12
REMARK    5  A    between atoms: C_25  and  O_26
REMARK    6  A    between atoms: O_26  and  C_27
REMARK    7  A    between atoms: C_27  and  C_28
REMARK    8  A    between atoms: C_28  and  C_29
REMARK    9  A    between atoms: C_28  and  C_30
REMARK   10  A    between atoms: C_28  and  O_31
REMARK   11  A    between atoms: O_31  and  C_32
REMARK   12  A    between atoms: C_32  and  C_34
REMARK   13  A    between atoms: C_34  and  N_35
REMARK                            x       y       z     vdW  Elec       q    Type
REMARK                         _______ _______ _______ _____ _____    ______ ____
ROOT
ATOM      1  C   UNL     1       2.282   6.571  19.853  0.00  0.00    +0.000 A 
ATOM      2  C   UNL     1       1.506   7.482  20.584  0.00  0.00    +0.000 A 
ATOM      3  C   UNL     1       1.174   8.763  20.105  0.00  0.00    +0.000 A 
ATOM      4  C   UNL     1       1.616   9.100  18.821  0.00  0.00    +0.000 A 
ATOM      5  C   UNL     1       2.349   8.184  18.056  0.00  0.00    +0.000 A 
ATOM      6  C   UNL     1       2.685   6.918  18.552  0.00  0.00    +0.000 A 
ENDROOT
BRANCH   3   7
ATOM      7  N   UNL     1       0.358   9.649  20.903  0.00  0.00    +0.000 N 
ATOM      8  C   UNL     1       0.518   9.708  22.278  0.00  0.00    +0.000 A 
ATOM      9  N   UNL     1      -0.037  10.544  23.100  0.00  0.00    +0.000 NA
ATOM     10  N   UNL     1      -0.831  11.452  22.507  0.00  0.00    +0.000 N 
ATOM     11  C   UNL     1      -1.427  12.511  23.129  0.00  0.00    +0.000 A 
ATOM     12  C   UNL     1      -2.132  13.239  22.186  0.00  0.00    +0.000 A 
ATOM     13  C   UNL     1      -1.973  12.548  20.951  0.00  0.00    +0.000 A 
ATOM     14  C   UNL     1      -1.137  11.474  21.183  0.00  0.00    +0.000 A 
ATOM     15  C   UNL     1      -0.598  10.486  20.299  0.00  0.00    +0.000 A 
ATOM     16  O   UNL     1      -0.988  10.397  19.138  0.00  0.00    +0.000 OA
BRANCH  12  17
ATOM     17  C   UNL     1      -2.859  14.465  22.466  0.00  0.00    +0.000 A 
ATOM     18  N   UNL     1      -2.823  15.448  21.543  0.00  0.00    +0.000 NA
ATOM     19  C   UNL     1      -3.522  16.565  21.839  0.00  0.00    +0.000 A 
ATOM     20  C   UNL     1      -4.236  16.731  23.003  0.00  0.00    +0.000 A 
ATOM     21 CL   UNL     1      -5.090  18.170  23.352  0.00  0.00    +0.000 Cl
ATOM     22  C   UNL     1      -4.211  15.663  23.871  0.00  0.00    +0.000 A 
ATOM     23  N   UNL     1      -3.538  14.517  23.629  0.00  0.00    +0.000 NA
ENDBRANCH  12  17
ENDBRANCH   3   7
BRANCH   1  25
ATOM     24  C   UNL     1       1.711   4.393  20.766  0.00  0.00    +0.000 C 
ATOM     25  O   UNL     1       2.666   5.360  20.353  0.00  0.00    +0.000 OA
ENDBRANCH   1  25
BRANCH   6  26
ATOM     26  O   UNL     1       3.392   6.165  17.645  0.00  0.00    +0.000 OA
BRANCH  26  27
ATOM     27  C   UNL     1       4.815   6.116  17.785  0.00  0.00    +0.000 C 
BRANCH  27  28
ATOM     28  C   UNL     1       5.441   5.062  16.843  0.00  0.00    +0.000 C 
ATOM     29  C   UNL     1       5.542   5.636  15.418  0.00  0.00    +0.000 C 
ATOM     30  C   UNL     1       6.858   4.698  17.311  0.00  0.00    +0.000 C 
BRANCH  28  31
ATOM     31  O   UNL     1       4.614   3.863  16.733  0.00  0.00    +0.000 OA
BRANCH  31  32
ATOM     32  C   UNL     1       4.119   3.287  17.860  0.00  0.00    +0.000 C 
ATOM     33  O   UNL     1       4.725   3.145  18.916  0.00  0.00    +0.000 OA
BRANCH  32  34
ATOM     34  C   UNL     1       2.712   2.750  17.632  0.00  0.00    +0.000 C 
BRANCH  34  35
ATOM     35  N   UNL     1       2.489   1.552  18.466  0.00  0.00    +0.000 NA
ATOM     36  H   UNL     1       2.485   0.733  17.849  0.00  0.00    +0.000 HD
ATOM     37  H   UNL     1       1.567   1.598  18.891  0.00  0.00    +0.000 HD
ENDBRANCH  34  35
ENDBRANCH  32  34
ENDBRANCH  31  32
ENDBRANCH  28  31
ENDBRANCH  27  28
ENDBRANCH  26  27
ENDBRANCH   6  26
TORSDOF 10
ENDMDL
