MODEL 1
REMARK VINA RESULT:      -7.8      0.000      0.000
REMARK  Name = 
REMARK  3 active torsions:
REMARK  status: ('A' for Active; 'I' for Inactive)
REMARK    1  A    between atoms: C_2  and  C_4
REMARK    2  A    between atoms: C_9  and  N_10
REMARK    3  A    between atoms: C_11  and  C_13
REMARK                            x       y       z     vdW  Elec       q    Type
REMARK                         _______ _______ _______ _____ _____    ______ ____
ROOT
ATOM      1  N   UNL     1       3.790   4.323  17.938  0.00  0.00    +0.000 N 
ATOM      2  C   UNL     1       5.161   4.509  17.833  0.00  0.00    +0.000 C 
ATOM      3  O   UNL     1       5.991   4.404  18.730  0.00  0.00    +0.000 OA
ATOM      4  H   UNL     1       3.242   4.258  17.079  0.00  0.00    +0.000 HD
ENDROOT
BRANCH   2   5
ATOM      5  C   UNL     1       5.651   4.741  16.451  0.00  0.00    +0.000 A 
ATOM      6  C   UNL     1       6.987   5.177  16.281  0.00  0.00    +0.000 A 
ATOM      7  C   UNL     1       7.590   5.135  15.022  0.00  0.00    +0.000 A 
ATOM      8  C   UNL     1       6.837   4.622  13.990  0.00  0.00    +0.000 A 
ATOM      9  C   UNL     1       5.506   4.292  14.146  0.00  0.00    +0.000 A 
ATOM     10  C   UNL     1       4.862   4.388  15.353  0.00  0.00    +0.000 A 
ATOM     11  O   UNL     1       4.982   3.733  13.020  0.00  0.00    +0.000 OA
ATOM     12  C   UNL     1       6.211   3.417  12.340  0.00  0.00    +0.000 C 
ATOM     13  O   UNL     1       7.299   4.271  12.758  0.00  0.00    +0.000 OA
ENDBRANCH   2   5
BRANCH   1  19
ATOM     14  C   UNL     1       3.096   2.837  19.765  0.00  0.00    +0.000 A 
ATOM     15  C   UNL     1       2.299   2.600  20.905  0.00  0.00    +0.000 A 
ATOM     16  C   UNL     1       1.519   3.620  21.448  0.00  0.00    +0.000 A 
ATOM     17  C   UNL     1       1.508   4.872  20.839  0.00  0.00    +0.000 A 
ATOM     18  C   UNL     1       2.251   5.101  19.678  0.00  0.00    +0.000 A 
ATOM     19  C   UNL     1       3.048   4.094  19.124  0.00  0.00    +0.000 A 
BRANCH  14  21
ATOM     20  N   UNL     1       5.141   1.516  19.949  0.00  0.00    +0.000 N 
ATOM     21  C   UNL     1       3.973   1.746  19.261  0.00  0.00    +0.000 C 
ATOM     22  O   UNL     1       3.707   1.124  18.247  0.00  0.00    +0.000 OA
ATOM     23  H   UNL     1       5.794   0.858  19.536  0.00  0.00    +0.000 HD
ATOM     24  H   UNL     1       5.512   2.175  20.619  0.00  0.00    +0.000 HD
ENDBRANCH  14  21
ENDBRANCH   1  19
TORSDOF 3
ENDMDL
MODEL 2
REMARK VINA RESULT:      -7.5      3.807      7.267
REMARK  Name = 
REMARK  3 active torsions:
REMARK  status: ('A' for Active; 'I' for Inactive)
REMARK    1  A    between atoms: C_2  and  C_4
REMARK    2  A    between atoms: C_9  and  N_10
REMARK    3  A    between atoms: C_11  and  C_13
REMARK                            x       y       z     vdW  Elec       q    Type
REMARK                         _______ _______ _______ _____ _____    ______ ____
ROOT
ATOM      1  N   UNL     1       4.477   6.871  17.480  0.00  0.00    +0.000 N 
ATOM      2  C   UNL     1       3.188   6.595  17.912  0.00  0.00    +0.000 C 
ATOM      3  O   UNL     1       2.607   5.516  17.858  0.00  0.00    +0.000 OA
ATOM      4  H   UNL     1       4.900   7.759  17.754  0.00  0.00    +0.000 HD
ENDROOT
BRANCH   2   5
ATOM      5  C   UNL     1       2.516   7.715  18.615  0.00  0.00    +0.000 A 
ATOM      6  C   UNL     1       2.068   8.816  17.845  0.00  0.00    +0.000 A 
ATOM      7  C   UNL     1       1.187   9.750  18.392  0.00  0.00    +0.000 A 
ATOM      8  C   UNL     1       0.762   9.523  19.681  0.00  0.00    +0.000 A 
ATOM      9  C   UNL     1       1.280   8.504  20.455  0.00  0.00    +0.000 A 
ATOM     10  C   UNL     1       2.200   7.609  19.973  0.00  0.00    +0.000 A 
ATOM     11  O   UNL     1       0.661   8.416  21.666  0.00  0.00    +0.000 OA
ATOM     12  C   UNL     1      -0.503   9.212  21.375  0.00  0.00    +0.000 C 
ATOM     13  O   UNL     1      -0.262  10.160  20.313  0.00  0.00    +0.000 OA
ENDBRANCH   2   5
BRANCH   1  19
ATOM     14  C   UNL     1       6.424   5.375  17.444  0.00  0.00    +0.000 A 
ATOM     15  C   UNL     1       7.323   4.566  16.718  0.00  0.00    +0.000 A 
ATOM     16  C   UNL     1       7.117   4.319  15.361  0.00  0.00    +0.000 A 
ATOM     17  C   UNL     1       6.029   4.901  14.717  0.00  0.00    +0.000 A 
ATOM     18  C   UNL     1       5.163   5.748  15.414  0.00  0.00    +0.000 A 
ATOM     19  C   UNL     1       5.348   6.000  16.777  0.00  0.00    +0.000 A 
BRANCH  14  21
ATOM     20  N   UNL     1       7.876   5.986  19.310  0.00  0.00    +0.000 N 
ATOM     21  C   UNL     1       6.635   5.553  18.906  0.00  0.00    +0.000 C 
ATOM     22  O   UNL     1       5.773   5.266  19.719  0.00  0.00    +0.000 OA
ATOM     23  H   UNL     1       8.057   5.990  20.307  0.00  0.00    +0.000 HD
ATOM     24  H   UNL     1       8.678   5.977  18.694  0.00  0.00    +0.000 HD
ENDBRANCH  14  21
ENDBRANCH   1  19
TORSDOF 3
ENDMDL
MODEL 3
REMARK VINA RESULT:      -7.5      1.494      2.176
REMARK  Name = 
REMARK  3 active torsions:
REMARK  status: ('A' for Active; 'I' for Inactive)
REMARK    1  A    between atoms: C_2  and  C_4
REMARK    2  A    between atoms: C_9  and  N_10
REMARK    3  A    between atoms: C_11  and  C_13
REMARK                            x       y       z     vdW  Elec       q    Type
REMARK                         _______ _______ _______ _____ _____    ______ ____
ROOT
ATOM      1  N   UNL     1       3.906   3.486  17.024  0.00  0.00    +0.000 N 
ATOM      2  C   UNL     1       4.522   4.625  16.524  0.00  0.00    +0.000 C 
ATOM      3  O   UNL     1       4.450   5.762  16.979  0.00  0.00    +0.000 OA
ATOM      4  H   UNL     1       4.199   2.578  16.662  0.00  0.00    +0.000 HD
ENDROOT
BRANCH   2   5
ATOM      5  C   UNL     1       5.452   4.382  15.394  0.00  0.00    +0.000 A 
ATOM      6  C   UNL     1       4.977   3.639  14.286  0.00  0.00    +0.000 A 
ATOM      7  C   UNL     1       5.692   3.624  13.087  0.00  0.00    +0.000 A 
ATOM      8  C   UNL     1       6.839   4.384  13.037  0.00  0.00    +0.000 A 
ATOM      9  C   UNL     1       7.344   5.023  14.151  0.00  0.00    +0.000 A 
ATOM     10  C   UNL     1       6.704   5.001  15.364  0.00  0.00    +0.000 A 
ATOM     11  O   UNL     1       8.438   5.778  13.856  0.00  0.00    +0.000 OA
ATOM     12  C   UNL     1       8.291   5.826  12.425  0.00  0.00    +0.000 C 
ATOM     13  O   UNL     1       7.544   4.699  11.916  0.00  0.00    +0.000 OA
ENDBRANCH   2   5
BRANCH   1  19
ATOM     14  C   UNL     1       3.394   3.088  19.392  0.00  0.00    +0.000 A 
ATOM     15  C   UNL     1       2.442   2.955  20.425  0.00  0.00    +0.000 A 
ATOM     16  C   UNL     1       1.094   3.218  20.186  0.00  0.00    +0.000 A 
ATOM     17  C   UNL     1       0.685   3.588  18.906  0.00  0.00    +0.000 A 
ATOM     18  C   UNL     1       1.611   3.669  17.863  0.00  0.00    +0.000 A 
ATOM     19  C   UNL     1       2.969   3.417  18.086  0.00  0.00    +0.000 A 
BRANCH  14  21
ATOM     20  N   UNL     1       5.172   1.674  20.287  0.00  0.00    +0.000 N 
ATOM     21  C   UNL     1       4.832   2.873  19.706  0.00  0.00    +0.000 C 
ATOM     22  O   UNL     1       5.667   3.741  19.520  0.00  0.00    +0.000 OA
ATOM     23  H   UNL     1       6.128   1.577  20.611  0.00  0.00    +0.000 HD
ATOM     24  H   UNL     1       4.483   1.054  20.690  0.00  0.00    +0.000 HD
ENDBRANCH  14  21
ENDBRANCH   1  19
TORSDOF 3
ENDMDL
MODEL 4
REMARK VINA RESULT:      -7.5      2.169      6.941
REMARK  Name = 
REMARK  3 active torsions:
REMARK  status: ('A' for Active; 'I' for Inactive)
REMARK    1  A    between atoms: C_2  and  C_4
REMARK    2  A    between atoms: C_9  and  N_10
REMARK    3  A    between atoms: C_11  and  C_13
REMARK                            x       y       z     vdW  Elec       q    Type
REMARK                         _______ _______ _______ _____ _____    ______ ____
ROOT
ATOM      1  N   UNL     1       5.043   3.721  15.705  0.00  0.00    +0.000 N 
ATOM      2  C   UNL     1       4.404   4.597  16.570  0.00  0.00    +0.000 C 
ATOM      3  O   UNL     1       4.377   5.821  16.493  0.00  0.00    +0.000 OA
ATOM      4  H   UNL     1       4.830   2.726  15.778  0.00  0.00    +0.000 HD
ENDROOT
BRANCH   2   5
ATOM      5  C   UNL     1       3.578   3.945  17.615  0.00  0.00    +0.000 A 
ATOM      6  C   UNL     1       3.674   2.540  17.762  0.00  0.00    +0.000 A 
ATOM      7  C   UNL     1       3.155   1.910  18.895  0.00  0.00    +0.000 A 
ATOM      8  C   UNL     1       2.590   2.722  19.853  0.00  0.00    +0.000 A 
ATOM      9  C   UNL     1       2.414   4.076  19.656  0.00  0.00    +0.000 A 
ATOM     10  C   UNL     1       2.848   4.717  18.523  0.00  0.00    +0.000 A 
ATOM     11  O   UNL     1       1.910   4.693  20.761  0.00  0.00    +0.000 OA
ATOM     12  C   UNL     1       2.173   3.659  21.727  0.00  0.00    +0.000 C 
ATOM     13  O   UNL     1       2.248   2.352  21.118  0.00  0.00    +0.000 OA
ENDBRANCH   2   5
BRANCH   1  19
ATOM     14  C   UNL     1       7.076   4.803  14.853  0.00  0.00    +0.000 A 
ATOM     15  C   UNL     1       7.881   5.191  13.761  0.00  0.00    +0.000 A 
ATOM     16  C   UNL     1       7.565   4.783  12.466  0.00  0.00    +0.000 A 
ATOM     17  C   UNL     1       6.427   4.010  12.251  0.00  0.00    +0.000 A 
ATOM     18  C   UNL     1       5.592   3.666  13.317  0.00  0.00    +0.000 A 
ATOM     19  C   UNL     1       5.898   4.058  14.625  0.00  0.00    +0.000 A 
BRANCH  14  21
ATOM     20  N   UNL     1       7.433   6.532  16.540  0.00  0.00    +0.000 N 
ATOM     21  C   UNL     1       7.489   5.194  16.227  0.00  0.00    +0.000 C 
ATOM     22  O   UNL     1       7.922   4.379  17.024  0.00  0.00    +0.000 OA
ATOM     23  H   UNL     1       7.829   6.810  17.431  0.00  0.00    +0.000 HD
ATOM     24  H   UNL     1       7.336   7.248  15.833  0.00  0.00    +0.000 HD
ENDBRANCH  14  21
ENDBRANCH   1  19
TORSDOF 3
ENDMDL
MODEL 5
REMARK VINA RESULT:      -7.5      1.327      2.381
REMARK  Name = 
REMARK  3 active torsions:
REMARK  status: ('A' for Active; 'I' for Inactive)
REMARK    1  A    between atoms: C_2  and  C_4
REMARK    2  A    between atoms: C_9  and  N_10
REMARK    3  A    between atoms: C_11  and  C_13
REMARK                            x       y       z     vdW  Elec       q    Type
REMARK                         _______ _______ _______ _____ _____    ______ ____
ROOT
ATOM      1  N   UNL     1       3.809   4.139  18.015  0.00  0.00    +0.000 N 
ATOM      2  C   UNL     1       5.180   4.321  17.915  0.00  0.00    +0.000 C 
ATOM      3  O   UNL     1       6.014   4.150  18.798  0.00  0.00    +0.000 OA
ATOM      4  H   UNL     1       3.256   4.136  17.157  0.00  0.00    +0.000 HD
ENDROOT
BRANCH   2   5
ATOM      5  C   UNL     1       5.666   4.640  16.549  0.00  0.00    +0.000 A 
ATOM      6  C   UNL     1       6.977   5.156  16.409  0.00  0.00    +0.000 A 
ATOM      7  C   UNL     1       7.588   5.202  15.155  0.00  0.00    +0.000 A 
ATOM      8  C   UNL     1       6.872   4.694  14.095  0.00  0.00    +0.000 A 
ATOM      9  C   UNL     1       5.560   4.285  14.226  0.00  0.00    +0.000 A 
ATOM     10  C   UNL     1       4.904   4.292  15.430  0.00  0.00    +0.000 A 
ATOM     11  O   UNL     1       5.074   3.747  13.072  0.00  0.00    +0.000 OA
ATOM     12  C   UNL     1       6.323   3.530  12.390  0.00  0.00    +0.000 C 
ATOM     13  O   UNL     1       7.359   4.423  12.853  0.00  0.00    +0.000 OA
ENDBRANCH   2   5
BRANCH   1  19
ATOM     14  C   UNL     1       2.404   4.862  19.895  0.00  0.00    +0.000 A 
ATOM     15  C   UNL     1       1.731   4.561  21.098  0.00  0.00    +0.000 A 
ATOM     16  C   UNL     1       1.656   3.246  21.558  0.00  0.00    +0.000 A 
ATOM     17  C   UNL     1       2.278   2.231  20.834  0.00  0.00    +0.000 A 
ATOM     18  C   UNL     1       2.993   2.527  19.670  0.00  0.00    +0.000 A 
ATOM     19  C   UNL     1       3.071   3.838  19.188  0.00  0.00    +0.000 A 
BRANCH  14  21
ATOM     20  N   UNL     1       2.339   7.262  20.343  0.00  0.00    +0.000 N 
ATOM     21  C   UNL     1       2.396   6.265  19.398  0.00  0.00    +0.000 C 
ATOM     22  O   UNL     1       2.374   6.525  18.207  0.00  0.00    +0.000 OA
ATOM     23  H   UNL     1       2.210   8.208  20.003  0.00  0.00    +0.000 HD
ATOM     24  H   UNL     1       2.091   7.080  21.306  0.00  0.00    +0.000 HD
ENDBRANCH  14  21
ENDBRANCH   1  19
TORSDOF 3
ENDMDL
MODEL 6
REMARK VINA RESULT:      -7.4      1.030      1.762
REMARK  Name = 
REMARK  3 active torsions:
REMARK  status: ('A' for Active; 'I' for Inactive)
REMARK    1  A    between atoms: C_2  and  C_4
REMARK    2  A    between atoms: C_9  and  N_10
REMARK    3  A    between atoms: C_11  and  C_13
REMARK                            x       y       z     vdW  Elec       q    Type
REMARK                         _______ _______ _______ _____ _____    ______ ____
ROOT
ATOM      1  N   UNL     1       4.266   4.443  17.448  0.00  0.00    +0.000 N 
ATOM      2  C   UNL     1       5.632   4.659  17.340  0.00  0.00    +0.000 C 
ATOM      3  O   UNL     1       6.410   4.931  18.249  0.00  0.00    +0.000 OA
ATOM      4  H   UNL     1       3.774   4.043  16.648  0.00  0.00    +0.000 HD
ENDROOT
BRANCH   2   5
ATOM      5  C   UNL     1       6.195   4.410  15.990  0.00  0.00    +0.000 A 
ATOM      6  C   UNL     1       5.415   3.673  15.067  0.00  0.00    +0.000 A 
ATOM      7  C   UNL     1       5.754   3.653  13.712  0.00  0.00    +0.000 A 
ATOM      8  C   UNL     1       6.844   4.403  13.333  0.00  0.00    +0.000 A 
ATOM      9  C   UNL     1       7.654   5.037  14.254  0.00  0.00    +0.000 A 
ATOM     10  C   UNL     1       7.391   5.019  15.600  0.00  0.00    +0.000 A 
ATOM     11  O   UNL     1       8.624   5.782  13.655  0.00  0.00    +0.000 OA
ATOM     12  C   UNL     1       8.071   5.834  12.327  0.00  0.00    +0.000 C 
ATOM     13  O   UNL     1       7.200   4.714  12.057  0.00  0.00    +0.000 OA
ENDBRANCH   2   5
BRANCH   1  19
ATOM     14  C   UNL     1       3.228   3.522  19.474  0.00  0.00    +0.000 A 
ATOM     15  C   UNL     1       2.372   3.683  20.583  0.00  0.00    +0.000 A 
ATOM     16  C   UNL     1       1.813   4.928  20.872  0.00  0.00    +0.000 A 
ATOM     17  C   UNL     1       2.083   6.010  20.038  0.00  0.00    +0.000 A 
ATOM     18  C   UNL     1       2.886   5.848  18.905  0.00  0.00    +0.000 A 
ATOM     19  C   UNL     1       3.464   4.609  18.605  0.00  0.00    +0.000 A 
BRANCH  14  21
ATOM     20  N   UNL     1       4.954   1.884  20.025  0.00  0.00    +0.000 N 
ATOM     21  C   UNL     1       3.866   2.198  19.244  0.00  0.00    +0.000 C 
ATOM     22  O   UNL     1       3.488   1.447  18.361  0.00  0.00    +0.000 OA
ATOM     23  H   UNL     1       5.460   1.038  19.786  0.00  0.00    +0.000 HD
ATOM     24  H   UNL     1       5.446   2.578  20.570  0.00  0.00    +0.000 HD
ENDBRANCH  14  21
ENDBRANCH   1  19
TORSDOF 3
ENDMDL
MODEL 7
REMARK VINA RESULT:      -7.4      3.740      5.734
REMARK  Name = 
REMARK  3 active torsions:
REMARK  status: ('A' for Active; 'I' for Inactive)
REMARK    1  A    between atoms: C_2  and  C_4
REMARK    2  A    between atoms: C_9  and  N_10
REMARK    3  A    between atoms: C_11  and  C_13
REMARK                            x       y       z     vdW  Elec       q    Type
REMARK                         _______ _______ _______ _____ _____    ______ ____
ROOT
ATOM      1  N   UNL     1       2.424   7.329  19.582  0.00  0.00    +0.000 N 
ATOM      2  C   UNL     1       2.355   5.949  19.709  0.00  0.00    +0.000 C 
ATOM      3  O   UNL     1       1.462   5.301  20.246  0.00  0.00    +0.000 OA
ATOM      4  H   UNL     1       3.124   7.723  18.952  0.00  0.00    +0.000 HD
ENDROOT
BRANCH   2   5
ATOM      5  C   UNL     1       3.430   5.206  19.005  0.00  0.00    +0.000 A 
ATOM      6  C   UNL     1       3.173   4.746  17.691  0.00  0.00    +0.000 A 
ATOM      7  C   UNL     1       4.219   4.304  16.879  0.00  0.00    +0.000 A 
ATOM      8  C   UNL     1       5.489   4.375  17.408  0.00  0.00    +0.000 A 
ATOM      9  C   UNL     1       5.717   4.732  18.722  0.00  0.00    +0.000 A 
ATOM     10  C   UNL     1       4.704   5.104  19.569  0.00  0.00    +0.000 A 
ATOM     11  O   UNL     1       7.046   4.811  19.007  0.00  0.00    +0.000 OA
ATOM     12  C   UNL     1       7.557   4.848  17.661  0.00  0.00    +0.000 C 
ATOM     13  O   UNL     1       6.654   4.228  16.720  0.00  0.00    +0.000 OA
ENDBRANCH   2   5
BRANCH   1  19
ATOM     14  C   UNL     1       1.239   9.476  19.458  0.00  0.00    +0.000 A 
ATOM     15  C   UNL     1       0.418  10.449  20.065  0.00  0.00    +0.000 A 
ATOM     16  C   UNL     1      -0.156  10.213  21.313  0.00  0.00    +0.000 A 
ATOM     17  C   UNL     1       0.111   9.017  21.975  0.00  0.00    +0.000 A 
ATOM     18  C   UNL     1       0.967   8.070  21.407  0.00  0.00    +0.000 A 
ATOM     19  C   UNL     1       1.544   8.284  20.151  0.00  0.00    +0.000 A 
BRANCH  14  21
ATOM     20  N   UNL     1       2.044  11.039  17.763  0.00  0.00    +0.000 N 
ATOM     21  C   UNL     1       1.770   9.732  18.092  0.00  0.00    +0.000 C 
ATOM     22  O   UNL     1       1.896   8.838  17.272  0.00  0.00    +0.000 OA
ATOM     23  H   UNL     1       2.288  11.227  16.797  0.00  0.00    +0.000 HD
ATOM     24  H   UNL     1       1.706  11.817  18.314  0.00  0.00    +0.000 HD
ENDBRANCH  14  21
ENDBRANCH   1  19
TORSDOF 3
ENDMDL
MODEL 8
REMARK VINA RESULT:      -7.4      2.246      6.929
REMARK  Name = 
REMARK  3 active torsions:
REMARK  status: ('A' for Active; 'I' for Inactive)
REMARK    1  A    between atoms: C_2  and  C_4
REMARK    2  A    between atoms: C_9  and  N_10
REMARK    3  A    between atoms: C_11  and  C_13
REMARK                            x       y       z     vdW  Elec       q    Type
REMARK                         _______ _______ _______ _____ _____    ______ ____
ROOT
ATOM      1  N   UNL     1       5.319   3.387  16.299  0.00  0.00    +0.000 N 
ATOM      2  C   UNL     1       4.402   4.086  17.069  0.00  0.00    +0.000 C 
ATOM      3  O   UNL     1       3.908   5.181  16.817  0.00  0.00    +0.000 OA
ATOM      4  H   UNL     1       5.503   2.410  16.531  0.00  0.00    +0.000 HD
ENDROOT
BRANCH   2   5
ATOM      5  C   UNL     1       3.895   3.348  18.253  0.00  0.00    +0.000 A 
ATOM      6  C   UNL     1       4.841   2.821  19.166  0.00  0.00    +0.000 A 
ATOM      7  C   UNL     1       4.435   2.377  20.426  0.00  0.00    +0.000 A 
ATOM      8  C   UNL     1       3.100   2.514  20.733  0.00  0.00    +0.000 A 
ATOM      9  C   UNL     1       2.173   2.937  19.802  0.00  0.00    +0.000 A 
ATOM     10  C   UNL     1       2.526   3.314  18.531  0.00  0.00    +0.000 A 
ATOM     11  O   UNL     1       0.930   3.073  20.343  0.00  0.00    +0.000 OA
ATOM     12  C   UNL     1       1.296   3.066  21.735  0.00  0.00    +0.000 C 
ATOM     13  O   UNL     1       2.542   2.374  21.967  0.00  0.00    +0.000 OA
ENDBRANCH   2   5
BRANCH   1  19
ATOM     14  C   UNL     1       7.003   4.804  15.209  0.00  0.00    +0.000 A 
ATOM     15  C   UNL     1       7.596   5.299  14.029  0.00  0.00    +0.000 A 
ATOM     16  C   UNL     1       7.226   4.795  12.783  0.00  0.00    +0.000 A 
ATOM     17  C   UNL     1       6.241   3.813  12.708  0.00  0.00    +0.000 A 
ATOM     18  C   UNL     1       5.608   3.355  13.866  0.00  0.00    +0.000 A 
ATOM     19  C   UNL     1       5.972   3.842  15.125  0.00  0.00    +0.000 A 
BRANCH  14  21
ATOM     20  N   UNL     1       7.492   6.677  16.697  0.00  0.00    +0.000 N 
ATOM     21  C   UNL     1       7.480   5.313  16.523  0.00  0.00    +0.000 C 
ATOM     22  O   UNL     1       7.905   4.564  17.387  0.00  0.00    +0.000 OA
ATOM     23  H   UNL     1       7.930   7.026  17.543  0.00  0.00    +0.000 HD
ATOM     24  H   UNL     1       7.401   7.321  15.924  0.00  0.00    +0.000 HD
ENDBRANCH  14  21
ENDBRANCH   1  19
TORSDOF 3
ENDMDL
MODEL 9
REMARK VINA RESULT:      -7.4      3.633      6.956
REMARK  Name = 
REMARK  3 active torsions:
REMARK  status: ('A' for Active; 'I' for Inactive)
REMARK    1  A    between atoms: C_2  and  C_4
REMARK    2  A    between atoms: C_9  and  N_10
REMARK    3  A    between atoms: C_11  and  C_13
REMARK                            x       y       z     vdW  Elec       q    Type
REMARK                         _______ _______ _______ _____ _____    ______ ____
ROOT
ATOM      1  N   UNL     1       4.221   6.614  17.484  0.00  0.00    +0.000 N 
ATOM      2  C   UNL     1       3.006   6.141  17.957  0.00  0.00    +0.000 C 
ATOM      3  O   UNL     1       2.602   4.983  17.927  0.00  0.00    +0.000 OA
ATOM      4  H   UNL     1       4.507   7.560  17.741  0.00  0.00    +0.000 HD
ENDROOT
BRANCH   2   5
ATOM      5  C   UNL     1       2.187   7.147  18.678  0.00  0.00    +0.000 A 
ATOM      6  C   UNL     1       1.995   6.979  20.071  0.00  0.00    +0.000 A 
ATOM      7  C   UNL     1       1.489   8.024  20.846  0.00  0.00    +0.000 A 
ATOM      8  C   UNL     1       1.229   9.210  20.196  0.00  0.00    +0.000 A 
ATOM      9  C   UNL     1       1.326   9.331  18.825  0.00  0.00    +0.000 A 
ATOM     10  C   UNL     1       1.752   8.303  18.024  0.00  0.00    +0.000 A 
ATOM     11  O   UNL     1       1.099  10.608  18.407  0.00  0.00    +0.000 OA
ATOM     12  C   UNL     1       1.244  11.281  19.671  0.00  0.00    +0.000 C 
ATOM     13  O   UNL     1       0.965  10.407  20.787  0.00  0.00    +0.000 OA
ENDBRANCH   2   5
BRANCH   1  19
ATOM     14  C   UNL     1       6.082   5.013  17.426  0.00  0.00    +0.000 A 
ATOM     15  C   UNL     1       7.092   4.348  16.701  0.00  0.00    +0.000 A 
ATOM     16  C   UNL     1       7.179   4.486  15.316  0.00  0.00    +0.000 A 
ATOM     17  C   UNL     1       6.275   5.313  14.653  0.00  0.00    +0.000 A 
ATOM     18  C   UNL     1       5.305   6.019  15.369  0.00  0.00    +0.000 A 
ATOM     19  C   UNL     1       5.197   5.885  16.757  0.00  0.00    +0.000 A 
BRANCH  14  21
ATOM     20  N   UNL     1       5.316   3.642  19.296  0.00  0.00    +0.000 N 
ATOM     21  C   UNL     1       5.976   4.779  18.891  0.00  0.00    +0.000 C 
ATOM     22  O   UNL     1       6.394   5.587  19.704  0.00  0.00    +0.000 OA
ATOM     23  H   UNL     1       5.138   3.546  20.290  0.00  0.00    +0.000 HD
ATOM     24  H   UNL     1       4.738   3.101  18.669  0.00  0.00    +0.000 HD
ENDBRANCH  14  21
ENDBRANCH   1  19
TORSDOF 3
ENDMDL
