MODEL 1
REMARK VINA RESULT:      -7.3      0.000      0.000
REMARK  Name = 
REMARK  2 active torsions:
REMARK  status: ('A' for Active; 'I' for Inactive)
REMARK    1  A    between atoms: C_1  and  S_2
REMARK    2  A    between atoms: S_2  and  C_5
REMARK                            x       y       z     vdW  Elec       q    Type
REMARK                         _______ _______ _______ _____ _____    ______ ____
ROOT
ATOM      1  C   UNL     1       5.705   5.340  17.516  0.00  0.00    +0.000 A 
ATOM      2  C   UNL     1       5.565   4.641  18.715  0.00  0.00    +0.000 A 
ATOM      3  C   UNL     1       4.453   4.889  19.519  0.00  0.00    +0.000 A 
ATOM      4  C   UNL     1       3.499   5.840  19.132  0.00  0.00    +0.000 A 
ATOM      5  C   UNL     1       3.620   6.510  17.898  0.00  0.00    +0.000 A 
ATOM      6  C   UNL     1       4.727   6.238  17.085  0.00  0.00    +0.000 A 
ATOM      7  N   UNL     1       2.766   7.569  17.546  0.00  0.00    +0.000 N 
ATOM      8  C   UNL     1       2.018   8.333  18.461  0.00  0.00    +0.000 A 
ATOM      9  C   UNL     1       1.685   9.653  18.130  0.00  0.00    +0.000 A 
ATOM     10  C   UNL     1       1.105  10.499  19.077  0.00  0.00    +0.000 A 
ATOM     11  C   UNL     1       0.833  10.028  20.359  0.00  0.00    +0.000 A 
ATOM     12  C   UNL     1       1.134   8.709  20.694  0.00  0.00    +0.000 A 
ATOM     13  C   UNL     1       1.739   7.863  19.757  0.00  0.00    +0.000 A 
ATOM     14  S   UNL     1       2.155   6.195  20.258  0.00  0.00    +0.000 S 
ATOM     15  H   UNL     1       2.789   7.891  16.588  0.00  0.00    +0.000 HD
ENDROOT
BRANCH   1  17
ATOM     16  C   UNL     1       6.584   4.282  15.106  0.00  0.00    +0.000 C 
ATOM     17  S   UNL     1       7.178   5.137  16.546  0.00  0.00    +0.000 S 
ATOM     18  O   UNL     1       8.058   4.243  17.272  0.00  0.00    +0.000 OA
ATOM     19  O   UNL     1       7.621   6.456  16.138  0.00  0.00    +0.000 OA
ENDBRANCH   1  17
TORSDOF 1
ENDMDL
MODEL 2
REMARK VINA RESULT:      -7.2      3.321      4.196
REMARK  Name = 
REMARK  2 active torsions:
REMARK  status: ('A' for Active; 'I' for Inactive)
REMARK    1  A    between atoms: C_1  and  S_2
REMARK    2  A    between atoms: S_2  and  C_5
REMARK                            x       y       z     vdW  Elec       q    Type
REMARK                         _______ _______ _______ _____ _____    ______ ____
ROOT
ATOM      1  C   UNL     1       2.673   4.315  19.549  0.00  0.00    +0.000 A 
ATOM      2  C   UNL     1       2.925   4.570  18.200  0.00  0.00    +0.000 A 
ATOM      3  C   UNL     1       2.856   5.882  17.733  0.00  0.00    +0.000 A 
ATOM      4  C   UNL     1       2.521   6.926  18.606  0.00  0.00    +0.000 A 
ATOM      5  C   UNL     1       2.313   6.670  19.976  0.00  0.00    +0.000 A 
ATOM      6  C   UNL     1       2.408   5.354  20.442  0.00  0.00    +0.000 A 
ATOM      7  N   UNL     1       1.835   7.664  20.849  0.00  0.00    +0.000 N 
ATOM      8  C   UNL     1       1.147   8.821  20.443  0.00  0.00    +0.000 A 
ATOM      9  C   UNL     1       0.242   9.419  21.331  0.00  0.00    +0.000 A 
ATOM     10  C   UNL     1      -0.592  10.455  20.906  0.00  0.00    +0.000 A 
ATOM     11  C   UNL     1      -0.515  10.921  19.596  0.00  0.00    +0.000 A 
ATOM     12  C   UNL     1       0.399  10.354  18.709  0.00  0.00    +0.000 A 
ATOM     13  C   UNL     1       1.220   9.297  19.120  0.00  0.00    +0.000 A 
ATOM     14  S   UNL     1       2.338   8.570  17.926  0.00  0.00    +0.000 S 
ATOM     15  H   UNL     1       1.871   7.473  21.840  0.00  0.00    +0.000 HD
ENDROOT
BRANCH   1  17
ATOM     16  C   UNL     1       1.610   2.760  21.587  0.00  0.00    +0.000 C 
ATOM     17  S   UNL     1       2.625   2.639  20.133  0.00  0.00    +0.000 S 
ATOM     18  O   UNL     1       3.968   2.283  20.546  0.00  0.00    +0.000 OA
ATOM     19  O   UNL     1       1.911   1.850  19.147  0.00  0.00    +0.000 OA
ENDBRANCH   1  17
TORSDOF 1
ENDMDL
MODEL 3
REMARK VINA RESULT:      -7.1      3.654      4.231
REMARK  Name = 
REMARK  2 active torsions:
REMARK  status: ('A' for Active; 'I' for Inactive)
REMARK    1  A    between atoms: C_1  and  S_2
REMARK    2  A    between atoms: S_2  and  C_5
REMARK                            x       y       z     vdW  Elec       q    Type
REMARK                         _______ _______ _______ _____ _____    ______ ____
ROOT
ATOM      1  C   UNL     1       2.615   4.423  19.803  0.00  0.00    +0.000 A 
ATOM      2  C   UNL     1       2.857   4.589  18.438  0.00  0.00    +0.000 A 
ATOM      3  C   UNL     1       2.780   5.867  17.885  0.00  0.00    +0.000 A 
ATOM      4  C   UNL     1       2.448   6.966  18.690  0.00  0.00    +0.000 A 
ATOM      5  C   UNL     1       2.251   6.801  20.076  0.00  0.00    +0.000 A 
ATOM      6  C   UNL     1       2.354   5.519  20.627  0.00  0.00    +0.000 A 
ATOM      7  N   UNL     1       1.778   7.850  20.884  0.00  0.00    +0.000 N 
ATOM      8  C   UNL     1       1.083   8.976  20.407  0.00  0.00    +0.000 A 
ATOM      9  C   UNL     1       0.182   9.629  21.260  0.00  0.00    +0.000 A 
ATOM     10  C   UNL     1      -0.657  10.633  20.774  0.00  0.00    +0.000 A 
ATOM     11  C   UNL     1      -0.592  11.010  19.435  0.00  0.00    +0.000 A 
ATOM     12  C   UNL     1       0.318  10.387  18.581  0.00  0.00    +0.000 A 
ATOM     13  C   UNL     1       1.145   9.363  19.055  0.00  0.00    +0.000 A 
ATOM     14  S   UNL     1       2.255   8.560  17.903  0.00  0.00    +0.000 S 
ATOM     15  H   UNL     1       1.821   7.725  21.885  0.00  0.00    +0.000 HD
ENDROOT
BRANCH   1  17
ATOM     16  C   UNL     1       4.231   2.205  20.216  0.00  0.00    +0.000 C 
ATOM     17  S   UNL     1       2.576   2.790  20.498  0.00  0.00    +0.000 S 
ATOM     18  O   UNL     1       1.671   1.995  19.692  0.00  0.00    +0.000 OA
ATOM     19  O   UNL     1       2.382   2.926  21.928  0.00  0.00    +0.000 OA
ENDBRANCH   1  17
TORSDOF 1
ENDMDL
MODEL 4
REMARK VINA RESULT:      -7.0      3.327      4.211
REMARK  Name = 
REMARK  2 active torsions:
REMARK  status: ('A' for Active; 'I' for Inactive)
REMARK    1  A    between atoms: C_1  and  S_2
REMARK    2  A    between atoms: S_2  and  C_5
REMARK                            x       y       z     vdW  Elec       q    Type
REMARK                         _______ _______ _______ _____ _____    ______ ____
ROOT
ATOM      1  C   UNL     1       2.666   4.515  19.852  0.00  0.00    +0.000 A 
ATOM      2  C   UNL     1       2.908   4.674  18.486  0.00  0.00    +0.000 A 
ATOM      3  C   UNL     1       2.803   5.944  17.922  0.00  0.00    +0.000 A 
ATOM      4  C   UNL     1       2.443   7.042  18.715  0.00  0.00    +0.000 A 
ATOM      5  C   UNL     1       2.245   6.885  20.101  0.00  0.00    +0.000 A 
ATOM      6  C   UNL     1       2.376   5.611  20.665  0.00  0.00    +0.000 A 
ATOM      7  N   UNL     1       1.744   7.930  20.898  0.00  0.00    +0.000 N 
ATOM      8  C   UNL     1       1.024   9.035  20.409  0.00  0.00    +0.000 A 
ATOM      9  C   UNL     1       0.105   9.674  21.253  0.00  0.00    +0.000 A 
ATOM     10  C   UNL     1      -0.756  10.653  20.755  0.00  0.00    +0.000 A 
ATOM     11  C   UNL     1      -0.695  11.019  19.413  0.00  0.00    +0.000 A 
ATOM     12  C   UNL     1       0.231  10.411  18.567  0.00  0.00    +0.000 A 
ATOM     13  C   UNL     1       1.081   9.411  19.054  0.00  0.00    +0.000 A 
ATOM     14  S   UNL     1       2.214   8.624  17.912  0.00  0.00    +0.000 S 
ATOM     15  H   UNL     1       1.787   7.815  21.901  0.00  0.00    +0.000 HD
ENDROOT
BRANCH   1  17
ATOM     16  C   UNL     1       1.547   1.999  19.502  0.00  0.00    +0.000 C 
ATOM     17  S   UNL     1       2.664   2.888  20.561  0.00  0.00    +0.000 S 
ATOM     18  O   UNL     1       2.060   2.986  21.875  0.00  0.00    +0.000 OA
ATOM     19  O   UNL     1       3.991   2.331  20.388  0.00  0.00    +0.000 OA
ENDBRANCH   1  17
TORSDOF 1
ENDMDL
MODEL 5
REMARK VINA RESULT:      -6.7      1.167      1.252
REMARK  Name = 
REMARK  2 active torsions:
REMARK  status: ('A' for Active; 'I' for Inactive)
REMARK    1  A    between atoms: C_1  and  S_2
REMARK    2  A    between atoms: S_2  and  C_5
REMARK                            x       y       z     vdW  Elec       q    Type
REMARK                         _______ _______ _______ _____ _____    ______ ____
ROOT
ATOM      1  C   UNL     1       5.232   6.046  17.596  0.00  0.00    +0.000 A 
ATOM      2  C   UNL     1       5.130   5.206  18.706  0.00  0.00    +0.000 A 
ATOM      3  C   UNL     1       4.042   5.348  19.567  0.00  0.00    +0.000 A 
ATOM      4  C   UNL     1       3.074   6.333  19.326  0.00  0.00    +0.000 A 
ATOM      5  C   UNL     1       3.156   7.147  18.178  0.00  0.00    +0.000 A 
ATOM      6  C   UNL     1       4.238   6.982  17.306  0.00  0.00    +0.000 A 
ATOM      7  N   UNL     1       2.288   8.236  17.982  0.00  0.00    +0.000 N 
ATOM      8  C   UNL     1       1.567   8.878  19.004  0.00  0.00    +0.000 A 
ATOM      9  C   UNL     1       1.220  10.227  18.845  0.00  0.00    +0.000 A 
ATOM     10  C   UNL     1       0.667  10.949  19.904  0.00  0.00    +0.000 A 
ATOM     11  C   UNL     1       0.435  10.326  21.128  0.00  0.00    +0.000 A 
ATOM     12  C   UNL     1       0.750   8.978  21.293  0.00  0.00    +0.000 A 
ATOM     13  C   UNL     1       1.328   8.254  20.243  0.00  0.00    +0.000 A 
ATOM     14  S   UNL     1       1.764   6.541  20.526  0.00  0.00    +0.000 S 
ATOM     15  H   UNL     1       2.282   8.670  17.070  0.00  0.00    +0.000 HD
ENDROOT
BRANCH   1  17
ATOM     16  C   UNL     1       7.526   4.539  17.187  0.00  0.00    +0.000 C 
ATOM     17  S   UNL     1       6.675   5.970  16.565  0.00  0.00    +0.000 S 
ATOM     18  O   UNL     1       7.481   7.139  16.857  0.00  0.00    +0.000 OA
ATOM     19  O   UNL     1       6.235   5.682  15.214  0.00  0.00    +0.000 OA
ENDBRANCH   1  17
TORSDOF 1
ENDMDL
MODEL 6
REMARK VINA RESULT:      -6.6      1.023      1.397
REMARK  Name = 
REMARK  2 active torsions:
REMARK  status: ('A' for Active; 'I' for Inactive)
REMARK    1  A    between atoms: C_1  and  S_2
REMARK    2  A    between atoms: S_2  and  C_5
REMARK                            x       y       z     vdW  Elec       q    Type
REMARK                         _______ _______ _______ _____ _____    ______ ____
ROOT
ATOM      1  C   UNL     1       5.459   5.757  17.768  0.00  0.00    +0.000 A 
ATOM      2  C   UNL     1       5.331   4.875  18.842  0.00  0.00    +0.000 A 
ATOM      3  C   UNL     1       4.203   4.957  19.657  0.00  0.00    +0.000 A 
ATOM      4  C   UNL     1       3.220   5.925  19.408  0.00  0.00    +0.000 A 
ATOM      5  C   UNL     1       3.331   6.783  18.295  0.00  0.00    +0.000 A 
ATOM      6  C   UNL     1       4.454   6.677  17.467  0.00  0.00    +0.000 A 
ATOM      7  N   UNL     1       2.443   7.855  18.099  0.00  0.00    +0.000 N 
ATOM      8  C   UNL     1       1.660   8.441  19.110  0.00  0.00    +0.000 A 
ATOM      9  C   UNL     1       1.284   9.785  18.984  0.00  0.00    +0.000 A 
ATOM     10  C   UNL     1       0.665  10.453  20.042  0.00  0.00    +0.000 A 
ATOM     11  C   UNL     1       0.397   9.779  21.230  0.00  0.00    +0.000 A 
ATOM     12  C   UNL     1       0.741   8.435  21.361  0.00  0.00    +0.000 A 
ATOM     13  C   UNL     1       1.384   7.765  20.313  0.00  0.00    +0.000 A 
ATOM     14  S   UNL     1       1.854   6.055  20.554  0.00  0.00    +0.000 S 
ATOM     15  H   UNL     1       2.465   8.323  17.204  0.00  0.00    +0.000 HD
ENDROOT
BRANCH   1  17
ATOM     16  C   UNL     1       7.721   7.286  17.271  0.00  0.00    +0.000 C 
ATOM     17  S   UNL     1       6.948   5.756  16.802  0.00  0.00    +0.000 S 
ATOM     18  O   UNL     1       6.563   5.852  15.407  0.00  0.00    +0.000 OA
ATOM     19  O   UNL     1       7.779   4.666  17.275  0.00  0.00    +0.000 OA
ENDBRANCH   1  17
TORSDOF 1
ENDMDL
MODEL 7
REMARK VINA RESULT:      -6.5      3.396      4.441
REMARK  Name = 
REMARK  2 active torsions:
REMARK  status: ('A' for Active; 'I' for Inactive)
REMARK    1  A    between atoms: C_1  and  S_2
REMARK    2  A    between atoms: S_2  and  C_5
REMARK                            x       y       z     vdW  Elec       q    Type
REMARK                         _______ _______ _______ _____ _____    ______ ____
ROOT
ATOM      1  C   UNL     1       2.252   4.991  19.334  0.00  0.00    +0.000 A 
ATOM      2  C   UNL     1       2.306   5.569  18.065  0.00  0.00    +0.000 A 
ATOM      3  C   UNL     1       2.182   6.953  17.944  0.00  0.00    +0.000 A 
ATOM      4  C   UNL     1       1.991   7.748  19.082  0.00  0.00    +0.000 A 
ATOM      5  C   UNL     1       1.984   7.165  20.365  0.00  0.00    +0.000 A 
ATOM      6  C   UNL     1       2.132   5.778  20.480  0.00  0.00    +0.000 A 
ATOM      7  N   UNL     1       1.651   7.908  21.511  0.00  0.00    +0.000 N 
ATOM      8  C   UNL     1       0.922   9.111  21.501  0.00  0.00    +0.000 A 
ATOM      9  C   UNL     1       0.164   9.455  22.629  0.00  0.00    +0.000 A 
ATOM     10  C   UNL     1      -0.712  10.542  22.593  0.00  0.00    +0.000 A 
ATOM     11  C   UNL     1      -0.824  11.310  21.437  0.00  0.00    +0.000 A 
ATOM     12  C   UNL     1      -0.056  10.996  20.316  0.00  0.00    +0.000 A 
ATOM     13  C   UNL     1       0.806   9.893  20.337  0.00  0.00    +0.000 A 
ATOM     14  S   UNL     1       1.727   9.502  18.852  0.00  0.00    +0.000 S 
ATOM     15  H   UNL     1       1.829   7.485  22.411  0.00  0.00    +0.000 HD
ENDROOT
BRANCH   1  17
ATOM     16  C   UNL     1       1.591   2.972  21.119  0.00  0.00    +0.000 C 
ATOM     17  S   UNL     1       2.272   3.224  19.497  0.00  0.00    +0.000 S 
ATOM     18  O   UNL     1       3.659   2.804  19.519  0.00  0.00    +0.000 OA
ATOM     19  O   UNL     1       1.341   2.682  18.527  0.00  0.00    +0.000 OA
ENDBRANCH   1  17
TORSDOF 1
ENDMDL
MODEL 8
REMARK VINA RESULT:      -6.4      3.227      4.352
REMARK  Name = 
REMARK  2 active torsions:
REMARK  status: ('A' for Active; 'I' for Inactive)
REMARK    1  A    between atoms: C_1  and  S_2
REMARK    2  A    between atoms: S_2  and  C_5
REMARK                            x       y       z     vdW  Elec       q    Type
REMARK                         _______ _______ _______ _____ _____    ______ ____
ROOT
ATOM      1  C   UNL     1       2.318   5.561  19.088  0.00  0.00    +0.000 A 
ATOM      2  C   UNL     1       2.274   6.289  17.898  0.00  0.00    +0.000 A 
ATOM      3  C   UNL     1       2.046   7.664  17.952  0.00  0.00    +0.000 A 
ATOM      4  C   UNL     1       1.848   8.299  19.186  0.00  0.00    +0.000 A 
ATOM      5  C   UNL     1       1.939   7.568  20.387  0.00  0.00    +0.000 A 
ATOM      6  C   UNL     1       2.193   6.193  20.326  0.00  0.00    +0.000 A 
ATOM      7  N   UNL     1       1.604   8.140  21.627  0.00  0.00    +0.000 N 
ATOM      8  C   UNL     1       0.791   9.276  21.790  0.00  0.00    +0.000 A 
ATOM      9  C   UNL     1       0.060   9.423  22.977  0.00  0.00    +0.000 A 
ATOM     10  C   UNL     1      -0.892  10.435  23.105  0.00  0.00    +0.000 A 
ATOM     11  C   UNL     1      -1.110  11.325  22.057  0.00  0.00    +0.000 A 
ATOM     12  C   UNL     1      -0.372  11.208  20.880  0.00  0.00    +0.000 A 
ATOM     13  C   UNL     1       0.567  10.180  20.735  0.00  0.00    +0.000 A 
ATOM     14  S   UNL     1       1.448  10.043  19.182  0.00  0.00    +0.000 S 
ATOM     15  H   UNL     1       1.853   7.628  22.461  0.00  0.00    +0.000 HD
ENDROOT
BRANCH   1  17
ATOM     16  C   UNL     1       3.209   3.515  17.438  0.00  0.00    +0.000 C 
ATOM     17  S   UNL     1       2.474   3.794  19.032  0.00  0.00    +0.000 S 
ATOM     18  O   UNL     1       1.135   3.238  19.016  0.00  0.00    +0.000 OA
ATOM     19  O   UNL     1       3.434   3.404  20.047  0.00  0.00    +0.000 OA
ENDBRANCH   1  17
TORSDOF 1
ENDMDL
MODEL 9
REMARK VINA RESULT:      -6.2      3.425      5.040
REMARK  Name = 
REMARK  2 active torsions:
REMARK  status: ('A' for Active; 'I' for Inactive)
REMARK    1  A    between atoms: C_1  and  S_2
REMARK    2  A    between atoms: S_2  and  C_5
REMARK                            x       y       z     vdW  Elec       q    Type
REMARK                         _______ _______ _______ _____ _____    ______ ____
ROOT
ATOM      1  C   UNL     1       2.166   7.113  19.213  0.00  0.00    +0.000 A 
ATOM      2  C   UNL     1       2.085   7.833  18.020  0.00  0.00    +0.000 A 
ATOM      3  C   UNL     1       1.669   9.164  18.057  0.00  0.00    +0.000 A 
ATOM      4  C   UNL     1       1.321   9.762  19.276  0.00  0.00    +0.000 A 
ATOM      5  C   UNL     1       1.449   9.045  20.483  0.00  0.00    +0.000 A 
ATOM      6  C   UNL     1       1.891   7.718  20.440  0.00  0.00    +0.000 A 
ATOM      7  N   UNL     1       0.975   9.562  21.702  0.00  0.00    +0.000 N 
ATOM      8  C   UNL     1       0.006  10.575  21.819  0.00  0.00    +0.000 A 
ATOM      9  C   UNL     1      -0.799  10.616  22.965  0.00  0.00    +0.000 A 
ATOM     10  C   UNL     1      -1.886  11.488  23.040  0.00  0.00    +0.000 A 
ATOM     11  C   UNL     1      -2.169  12.344  21.979  0.00  0.00    +0.000 A 
ATOM     12  C   UNL     1      -1.361  12.333  20.843  0.00  0.00    +0.000 A 
ATOM     13  C   UNL     1      -0.284  11.444  20.750  0.00  0.00    +0.000 A 
ATOM     14  S   UNL     1       0.687  11.434  19.246  0.00  0.00    +0.000 S 
ATOM     15  H   UNL     1       1.247   9.085  22.550  0.00  0.00    +0.000 HD
ENDROOT
BRANCH   1  17
ATOM     16  C   UNL     1       1.642   4.736  20.545  0.00  0.00    +0.000 C 
ATOM     17  S   UNL     1       2.565   5.384  19.171  0.00  0.00    +0.000 S 
ATOM     18  O   UNL     1       3.977   5.255  19.473  0.00  0.00    +0.000 OA
ATOM     19  O   UNL     1       2.006   4.834  17.951  0.00  0.00    +0.000 OA
ENDBRANCH   1  17
TORSDOF 1
ENDMDL
