MODEL 1
REMARK VINA RESULT:      -9.5      0.000      0.000
REMARK  Name = 
REMARK  4 active torsions:
REMARK  status: ('A' for Active; 'I' for Inactive)
REMARK    1  A    between atoms: C_1  and  C_2
REMARK    2  A    between atoms: C_5  and  S_6
REMARK    3  A    between atoms: S_6  and  C_9
REMARK    4  A    between atoms: N_19  and  C_20
REMARK                            x       y       z     vdW  Elec       q    Type
REMARK                         _______ _______ _______ _____ _____    ______ ____
ROOT
ATOM      1  C   UNL     1       4.284   5.415  17.117  0.00  0.00    +0.000 A 
ATOM      2  C   UNL     1       4.242   4.071  17.153  0.00  0.00    +0.000 A 
ATOM      3  C   UNL     1       3.174   3.386  17.866  0.00  0.00    +0.000 A 
ATOM      4  C   UNL     1       3.131   2.001  18.028  0.00  0.00    +0.000 A 
ATOM      5  C   UNL     1       2.085   1.411  18.748  0.00  0.00    +0.000 A 
ATOM      6  C   UNL     1       1.080   2.202  19.311  0.00  0.00    +0.000 A 
ATOM      7  C   UNL     1       1.108   3.583  19.140  0.00  0.00    +0.000 A 
ATOM      8  C   UNL     1       2.150   4.150  18.410  0.00  0.00    +0.000 A 
ATOM      9  O   UNL     1       2.148   5.544  18.253  0.00  0.00    +0.000 OA
ATOM     10  C   UNL     1       3.251   6.243  17.766  0.00  0.00    +0.000 A 
ATOM     11  N   UNL     1       3.328   7.531  17.899  0.00  0.00    +0.000 NA
ENDROOT
BRANCH  11  12
ATOM     12  C   UNL     1       2.319   8.252  18.568  0.00  0.00    +0.000 A 
ATOM     13  C   UNL     1       1.552   9.166  17.834  0.00  0.00    +0.000 A 
ATOM     14  C   UNL     1       0.551   9.927  18.453  0.00  0.00    +0.000 A 
ATOM     15  C   UNL     1       0.303   9.772  19.814  0.00  0.00    +0.000 A 
ATOM     16  C   UNL     1       1.051   8.852  20.552  0.00  0.00    +0.000 A 
ATOM     17  C   UNL     1       2.084   8.145  19.945  0.00  0.00    +0.000 A 
ATOM     18  O   UNL     1       0.833   8.590  21.881  0.00  0.00    +0.000 OA
ATOM     19  C   UNL     1      -0.434   9.104  22.306  0.00  0.00    +0.000 C 
ATOM     20  C   UNL     1      -0.614  10.526  21.803  0.00  0.00    +0.000 C 
ATOM     21  O   UNL     1      -0.683  10.546  20.370  0.00  0.00    +0.000 OA
ENDBRANCH  11  12
BRANCH   1  22
ATOM     22  S   UNL     1       5.565   6.178  16.237  0.00  0.00    +0.000 S 
ATOM     23  O   UNL     1       6.750   6.253  17.071  0.00  0.00    +0.000 OA
ATOM     24  O   UNL     1       5.071   7.399  15.612  0.00  0.00    +0.000 OA
BRANCH  22  29
ATOM     25  C   UNL     1       6.676   2.691  11.385  0.00  0.00    +0.000 C 
ATOM     26  C   UNL     1       6.406   3.506  12.615  0.00  0.00    +0.000 A 
ATOM     27  C   UNL     1       5.133   3.532  13.198  0.00  0.00    +0.000 A 
ATOM     28  C   UNL     1       4.882   4.325  14.320  0.00  0.00    +0.000 A 
ATOM     29  C   UNL     1       5.917   5.088  14.871  0.00  0.00    +0.000 A 
ATOM     30  C   UNL     1       7.191   5.073  14.301  0.00  0.00    +0.000 A 
ATOM     31  C   UNL     1       7.431   4.283  13.175  0.00  0.00    +0.000 A 
ENDBRANCH  22  29
ENDBRANCH   1  22
TORSDOF 3
ENDMDL
MODEL 2
REMARK VINA RESULT:      -9.5      3.812     10.559
REMARK  Name = 
REMARK  4 active torsions:
REMARK  status: ('A' for Active; 'I' for Inactive)
REMARK    1  A    between atoms: C_1  and  C_2
REMARK    2  A    between atoms: C_5  and  S_6
REMARK    3  A    between atoms: S_6  and  C_9
REMARK    4  A    between atoms: N_19  and  C_20
REMARK                            x       y       z     vdW  Elec       q    Type
REMARK                         _______ _______ _______ _____ _____    ______ ____
ROOT
ATOM      1  C   UNL     1      -1.099  11.444  20.539  0.00  0.00    +0.000 A 
ATOM      2  C   UNL     1      -2.216  11.937  19.973  0.00  0.00    +0.000 A 
ATOM      3  C   UNL     1      -2.686  11.418  18.697  0.00  0.00    +0.000 A 
ATOM      4  C   UNL     1      -3.775  11.956  18.010  0.00  0.00    +0.000 A 
ATOM      5  C   UNL     1      -4.156  11.421  16.773  0.00  0.00    +0.000 A 
ATOM      6  C   UNL     1      -3.451  10.351  16.217  0.00  0.00    +0.000 A 
ATOM      7  C   UNL     1      -2.373   9.799  16.904  0.00  0.00    +0.000 A 
ATOM      8  C   UNL     1      -2.017  10.337  18.139  0.00  0.00    +0.000 A 
ATOM      9  O   UNL     1      -0.929   9.757  18.809  0.00  0.00    +0.000 OA
ATOM     10  C   UNL     1      -0.327  10.354  19.915  0.00  0.00    +0.000 A 
ATOM     11  N   UNL     1       0.835   9.955  20.331  0.00  0.00    +0.000 NA
ENDROOT
BRANCH  11  12
ATOM     12  C   UNL     1       1.534   8.933  19.658  0.00  0.00    +0.000 A 
ATOM     13  C   UNL     1       1.962   9.167  18.346  0.00  0.00    +0.000 A 
ATOM     14  C   UNL     1       2.640   8.177  17.622  0.00  0.00    +0.000 A 
ATOM     15  C   UNL     1       2.904   6.944  18.212  0.00  0.00    +0.000 A 
ATOM     16  C   UNL     1       2.496   6.706  19.526  0.00  0.00    +0.000 A 
ATOM     17  C   UNL     1       1.769   7.670  20.217  0.00  0.00    +0.000 A 
ATOM     18  O   UNL     1       2.769   5.545  20.205  0.00  0.00    +0.000 OA
ATOM     19  C   UNL     1       3.784   4.785  19.541  0.00  0.00    +0.000 C 
ATOM     20  C   UNL     1       3.484   4.707  18.053  0.00  0.00    +0.000 C 
ATOM     21  O   UNL     1       3.565   6.010  17.456  0.00  0.00    +0.000 OA
ENDBRANCH  11  12
BRANCH   1  22
ATOM     22  S   UNL     1      -0.597  12.083  22.067  0.00  0.00    +0.000 S 
ATOM     23  O   UNL     1       0.487  13.027  21.868  0.00  0.00    +0.000 OA
ATOM     24  O   UNL     1      -0.410  10.993  23.018  0.00  0.00    +0.000 OA
BRANCH  22  29
ATOM     25  C   UNL     1      -5.538  15.101  23.917  0.00  0.00    +0.000 C 
ATOM     26  C   UNL     1      -4.291  14.376  23.506  0.00  0.00    +0.000 A 
ATOM     27  C   UNL     1      -3.251  15.046  22.849  0.00  0.00    +0.000 A 
ATOM     28  C   UNL     1      -2.110  14.353  22.435  0.00  0.00    +0.000 A 
ATOM     29  C   UNL     1      -2.005  12.982  22.691  0.00  0.00    +0.000 A 
ATOM     30  C   UNL     1      -3.034  12.301  23.344  0.00  0.00    +0.000 A 
ATOM     31  C   UNL     1      -4.173  12.999  23.749  0.00  0.00    +0.000 A 
ENDBRANCH  22  29
ENDBRANCH   1  22
TORSDOF 3
ENDMDL
MODEL 3
REMARK VINA RESULT:      -9.1      2.626      3.535
REMARK  Name = 
REMARK  4 active torsions:
REMARK  status: ('A' for Active; 'I' for Inactive)
REMARK    1  A    between atoms: C_1  and  C_2
REMARK    2  A    between atoms: C_5  and  S_6
REMARK    3  A    between atoms: S_6  and  C_9
REMARK    4  A    between atoms: N_19  and  C_20
REMARK                            x       y       z     vdW  Elec       q    Type
REMARK                         _______ _______ _______ _____ _____    ______ ____
ROOT
ATOM      1  C   UNL     1       4.520   4.964  18.059  0.00  0.00    +0.000 A 
ATOM      2  C   UNL     1       4.637   3.761  18.650  0.00  0.00    +0.000 A 
ATOM      3  C   UNL     1       3.754   3.389  19.746  0.00  0.00    +0.000 A 
ATOM      4  C   UNL     1       3.891   2.202  20.466  0.00  0.00    +0.000 A 
ATOM      5  C   UNL     1       3.018   1.920  21.524  0.00  0.00    +0.000 A 
ATOM      6  C   UNL     1       2.009   2.823  21.869  0.00  0.00    +0.000 A 
ATOM      7  C   UNL     1       1.857   4.001  21.145  0.00  0.00    +0.000 A 
ATOM      8  C   UNL     1       2.726   4.258  20.087  0.00  0.00    +0.000 A 
ATOM      9  O   UNL     1       2.544   5.453  19.374  0.00  0.00    +0.000 OA
ATOM     10  C   UNL     1       3.490   5.935  18.470  0.00  0.00    +0.000 A 
ATOM     11  N   UNL     1       3.435   7.161  18.049  0.00  0.00    +0.000 NA
ENDROOT
BRANCH  11  12
ATOM     12  C   UNL     1       2.443   8.045  18.517  0.00  0.00    +0.000 A 
ATOM     13  C   UNL     1       1.821   8.899  17.598  0.00  0.00    +0.000 A 
ATOM     14  C   UNL     1       0.844   9.815  18.013  0.00  0.00    +0.000 A 
ATOM     15  C   UNL     1       0.475   9.876  19.354  0.00  0.00    +0.000 A 
ATOM     16  C   UNL     1       1.077   9.017  20.275  0.00  0.00    +0.000 A 
ATOM     17  C   UNL     1       2.089   8.154  19.868  0.00  0.00    +0.000 A 
ATOM     18  O   UNL     1       0.730   8.965  21.602  0.00  0.00    +0.000 OA
ATOM     19  C   UNL     1      -0.517   9.629  21.834  0.00  0.00    +0.000 C 
ATOM     20  C   UNL     1      -0.529  10.974  21.128  0.00  0.00    +0.000 C 
ATOM     21  O   UNL     1      -0.480  10.795  19.705  0.00  0.00    +0.000 OA
ENDBRANCH  11  12
BRANCH   1  22
ATOM     22  S   UNL     1       5.583   5.347  16.748  0.00  0.00    +0.000 S 
ATOM     23  O   UNL     1       4.828   5.963  15.673  0.00  0.00    +0.000 OA
ATOM     24  O   UNL     1       6.422   4.194  16.443  0.00  0.00    +0.000 OA
BRANCH  22  29
ATOM     25  C   UNL     1       9.223   9.574  19.164  0.00  0.00    +0.000 C 
ATOM     26  C   UNL     1       8.360   8.526  18.524  0.00  0.00    +0.000 A 
ATOM     27  C   UNL     1       7.486   8.851  17.479  0.00  0.00    +0.000 A 
ATOM     28  C   UNL     1       6.659   7.876  16.917  0.00  0.00    +0.000 A 
ATOM     29  C   UNL     1       6.716   6.563  17.396  0.00  0.00    +0.000 A 
ATOM     30  C   UNL     1       7.582   6.224  18.437  0.00  0.00    +0.000 A 
ATOM     31  C   UNL     1       8.400   7.206  18.998  0.00  0.00    +0.000 A 
ENDBRANCH  22  29
ENDBRANCH   1  22
TORSDOF 3
ENDMDL
MODEL 4
REMARK VINA RESULT:      -9.1      2.286      3.345
REMARK  Name = 
REMARK  4 active torsions:
REMARK  status: ('A' for Active; 'I' for Inactive)
REMARK    1  A    between atoms: C_1  and  C_2
REMARK    2  A    between atoms: C_5  and  S_6
REMARK    3  A    between atoms: S_6  and  C_9
REMARK    4  A    between atoms: N_19  and  C_20
REMARK                            x       y       z     vdW  Elec       q    Type
REMARK                         _______ _______ _______ _____ _____    ______ ____
ROOT
ATOM      1  C   UNL     1       4.470   5.027  17.139  0.00  0.00    +0.000 A 
ATOM      2  C   UNL     1       4.420   3.699  17.347  0.00  0.00    +0.000 A 
ATOM      3  C   UNL     1       3.394   3.125  18.205  0.00  0.00    +0.000 A 
ATOM      4  C   UNL     1       3.351   1.771  18.542  0.00  0.00    +0.000 A 
ATOM      5  C   UNL     1       2.348   1.294  19.394  0.00  0.00    +0.000 A 
ATOM      6  C   UNL     1       1.388   2.164  19.916  0.00  0.00    +0.000 A 
ATOM      7  C   UNL     1       1.416   3.513  19.571  0.00  0.00    +0.000 A 
ATOM      8  C   UNL     1       2.413   3.967  18.712  0.00  0.00    +0.000 A 
ATOM      9  O   UNL     1       2.412   5.331  18.381  0.00  0.00    +0.000 OA
ATOM     10  C   UNL     1       3.488   5.946  17.742  0.00  0.00    +0.000 A 
ATOM     11  N   UNL     1       3.584   7.239  17.708  0.00  0.00    +0.000 NA
ENDROOT
BRANCH  11  12
ATOM     12  C   UNL     1       2.625   8.054  18.342  0.00  0.00    +0.000 A 
ATOM     13  C   UNL     1       2.074   9.121  17.622  0.00  0.00    +0.000 A 
ATOM     14  C   UNL     1       1.134   9.978  18.212  0.00  0.00    +0.000 A 
ATOM     15  C   UNL     1       0.731   9.766  19.528  0.00  0.00    +0.000 A 
ATOM     16  C   UNL     1       1.262   8.696  20.248  0.00  0.00    +0.000 A 
ATOM     17  C   UNL     1       2.240   7.887  19.678  0.00  0.00    +0.000 A 
ATOM     18  O   UNL     1       0.876   8.376  21.526  0.00  0.00    +0.000 OA
ATOM     19  C   UNL     1      -0.341   9.042  21.878  0.00  0.00    +0.000 C 
ATOM     20  C   UNL     1      -0.265  10.507  21.483  0.00  0.00    +0.000 C 
ATOM     21  O   UNL     1      -0.185  10.639  20.056  0.00  0.00    +0.000 OA
ENDBRANCH  11  12
BRANCH   1  22
ATOM     22  S   UNL     1       5.698   5.653  16.092  0.00  0.00    +0.000 S 
ATOM     23  O   UNL     1       5.084   6.426  15.029  0.00  0.00    +0.000 OA
ATOM     24  O   UNL     1       6.629   4.589  15.736  0.00  0.00    +0.000 OA
BRANCH  22  29
ATOM     25  C   UNL     1       9.210   9.411  19.332  0.00  0.00    +0.000 C 
ATOM     26  C   UNL     1       8.306   8.482  18.575  0.00  0.00    +0.000 A 
ATOM     27  C   UNL     1       8.317   7.104  18.824  0.00  0.00    +0.000 A 
ATOM     28  C   UNL     1       7.501   6.243  18.087  0.00  0.00    +0.000 A 
ATOM     29  C   UNL     1       6.658   6.767  17.101  0.00  0.00    +0.000 A 
ATOM     30  C   UNL     1       6.637   8.138  16.841  0.00  0.00    +0.000 A 
ATOM     31  C   UNL     1       7.461   8.991  17.578  0.00  0.00    +0.000 A 
ENDBRANCH  22  29
ENDBRANCH   1  22
TORSDOF 3
ENDMDL
MODEL 5
REMARK VINA RESULT:      -8.9      0.740      1.458
REMARK  Name = 
REMARK  4 active torsions:
REMARK  status: ('A' for Active; 'I' for Inactive)
REMARK    1  A    between atoms: C_1  and  C_2
REMARK    2  A    between atoms: C_5  and  S_6
REMARK    3  A    between atoms: S_6  and  C_9
REMARK    4  A    between atoms: N_19  and  C_20
REMARK                            x       y       z     vdW  Elec       q    Type
REMARK                         _______ _______ _______ _____ _____    ______ ____
ROOT
ATOM      1  C   UNL     1       4.277   5.430  17.090  0.00  0.00    +0.000 A 
ATOM      2  C   UNL     1       4.211   4.087  17.111  0.00  0.00    +0.000 A 
ATOM      3  C   UNL     1       3.150   3.412  17.844  0.00  0.00    +0.000 A 
ATOM      4  C   UNL     1       3.085   2.026  17.989  0.00  0.00    +0.000 A 
ATOM      5  C   UNL     1       2.048   1.447  18.730  0.00  0.00    +0.000 A 
ATOM      6  C   UNL     1       1.074   2.248  19.331  0.00  0.00    +0.000 A 
ATOM      7  C   UNL     1       1.123   3.631  19.176  0.00  0.00    +0.000 A 
ATOM      8  C   UNL     1       2.156   4.188  18.425  0.00  0.00    +0.000 A 
ATOM      9  O   UNL     1       2.175   5.584  18.285  0.00  0.00    +0.000 OA
ATOM     10  C   UNL     1       3.278   6.269  17.777  0.00  0.00    +0.000 A 
ATOM     11  N   UNL     1       3.383   7.553  17.925  0.00  0.00    +0.000 NA
ENDROOT
BRANCH  11  12
ATOM     12  C   UNL     1       2.406   8.284  18.629  0.00  0.00    +0.000 A 
ATOM     13  C   UNL     1       2.029   7.841  19.903  0.00  0.00    +0.000 A 
ATOM     14  C   UNL     1       1.045   8.517  20.639  0.00  0.00    +0.000 A 
ATOM     15  C   UNL     1       0.437   9.650  20.106  0.00  0.00    +0.000 A 
ATOM     16  C   UNL     1       0.817  10.110  18.845  0.00  0.00    +0.000 A 
ATOM     17  C   UNL     1       1.749   9.400  18.094  0.00  0.00    +0.000 A 
ATOM     18  O   UNL     1       0.317  11.252  18.271  0.00  0.00    +0.000 OA
ATOM     19  C   UNL     1      -0.356  12.062  19.241  0.00  0.00    +0.000 C 
ATOM     20  C   UNL     1      -1.281  11.203  20.085  0.00  0.00    +0.000 C 
ATOM     21  O   UNL     1      -0.523  10.268  20.866  0.00  0.00    +0.000 OA
ENDBRANCH  11  12
BRANCH   1  22
ATOM     22  S   UNL     1       5.548   6.181  16.185  0.00  0.00    +0.000 S 
ATOM     23  O   UNL     1       6.740   6.274  17.007  0.00  0.00    +0.000 OA
ATOM     24  O   UNL     1       5.045   7.388  15.542  0.00  0.00    +0.000 OA
BRANCH  22  29
ATOM     25  C   UNL     1       6.655   2.616  11.388  0.00  0.00    +0.000 C 
ATOM     26  C   UNL     1       6.382   3.450  12.605  0.00  0.00    +0.000 A 
ATOM     27  C   UNL     1       5.087   3.560  13.128  0.00  0.00    +0.000 A 
ATOM     28  C   UNL     1       4.836   4.370  14.238  0.00  0.00    +0.000 A 
ATOM     29  C   UNL     1       5.891   5.066  14.836  0.00  0.00    +0.000 A 
ATOM     30  C   UNL     1       7.187   4.968  14.326  0.00  0.00    +0.000 A 
ATOM     31  C   UNL     1       7.428   4.161  13.212  0.00  0.00    +0.000 A 
ENDBRANCH  22  29
ENDBRANCH   1  22
TORSDOF 3
ENDMDL
MODEL 6
REMARK VINA RESULT:      -8.8      1.369      1.491
REMARK  Name = 
REMARK  4 active torsions:
REMARK  status: ('A' for Active; 'I' for Inactive)
REMARK    1  A    between atoms: C_1  and  C_2
REMARK    2  A    between atoms: C_5  and  S_6
REMARK    3  A    between atoms: S_6  and  C_9
REMARK    4  A    between atoms: N_19  and  C_20
REMARK                            x       y       z     vdW  Elec       q    Type
REMARK                         _______ _______ _______ _____ _____    ______ ____
ROOT
ATOM      1  C   UNL     1       4.567   5.615  18.564  0.00  0.00    +0.000 A 
ATOM      2  C   UNL     1       4.583   4.356  19.039  0.00  0.00    +0.000 A 
ATOM      3  C   UNL     1       3.430   3.822  19.749  0.00  0.00    +0.000 A 
ATOM      4  C   UNL     1       3.424   2.564  20.354  0.00  0.00    +0.000 A 
ATOM      5  C   UNL     1       2.287   2.124  21.042  0.00  0.00    +0.000 A 
ATOM      6  C   UNL     1       1.155   2.938  21.133  0.00  0.00    +0.000 A 
ATOM      7  C   UNL     1       1.149   4.187  20.518  0.00  0.00    +0.000 A 
ATOM      8  C   UNL     1       2.285   4.602  19.827  0.00  0.00    +0.000 A 
ATOM      9  O   UNL     1       2.247   5.865  19.215  0.00  0.00    +0.000 OA
ATOM     10  C   UNL     1       3.389   6.488  18.716  0.00  0.00    +0.000 A 
ATOM     11  N   UNL     1       3.377   7.752  18.424  0.00  0.00    +0.000 NA
ENDROOT
BRANCH  11  12
ATOM     12  C   UNL     1       2.223   8.534  18.634  0.00  0.00    +0.000 A 
ATOM     13  C   UNL     1       1.395   8.811  17.539  0.00  0.00    +0.000 A 
ATOM     14  C   UNL     1       0.248   9.603  17.686  0.00  0.00    +0.000 A 
ATOM     15  C   UNL     1      -0.085  10.117  18.937  0.00  0.00    +0.000 A 
ATOM     16  C   UNL     1       0.725   9.833  20.037  0.00  0.00    +0.000 A 
ATOM     17  C   UNL     1       1.895   9.099  19.873  0.00  0.00    +0.000 A 
ATOM     18  O   UNL     1       0.440  10.245  21.315  0.00  0.00    +0.000 OA
ATOM     19  C   UNL     1      -0.918  10.686  21.422  0.00  0.00    +0.000 C 
ATOM     20  C   UNL     1      -1.259  11.608  20.264  0.00  0.00    +0.000 C 
ATOM     21  O   UNL     1      -1.213  10.891  19.022  0.00  0.00    +0.000 OA
ENDBRANCH  11  12
BRANCH   1  22
ATOM     22  S   UNL     1       5.956   6.193  17.709  0.00  0.00    +0.000 S 
ATOM     23  O   UNL     1       7.156   5.878  18.461  0.00  0.00    +0.000 OA
ATOM     24  O   UNL     1       5.735   7.572  17.288  0.00  0.00    +0.000 OA
BRANCH  22  29
ATOM     25  C   UNL     1       6.005   3.284  12.372  0.00  0.00    +0.000 C 
ATOM     26  C   UNL     1       5.998   3.953  13.715  0.00  0.00    +0.000 A 
ATOM     27  C   UNL     1       4.829   4.009  14.486  0.00  0.00    +0.000 A 
ATOM     28  C   UNL     1       4.823   4.667  15.718  0.00  0.00    +0.000 A 
ATOM     29  C   UNL     1       5.997   5.264  16.187  0.00  0.00    +0.000 A 
ATOM     30  C   UNL     1       7.169   5.217  15.430  0.00  0.00    +0.000 A 
ATOM     31  C   UNL     1       7.166   4.562  14.197  0.00  0.00    +0.000 A 
ENDBRANCH  22  29
ENDBRANCH   1  22
TORSDOF 3
ENDMDL
MODEL 7
REMARK VINA RESULT:      -8.7      4.636      8.460
REMARK  Name = 
REMARK  4 active torsions:
REMARK  status: ('A' for Active; 'I' for Inactive)
REMARK    1  A    between atoms: C_1  and  C_2
REMARK    2  A    between atoms: C_5  and  S_6
REMARK    3  A    between atoms: S_6  and  C_9
REMARK    4  A    between atoms: N_19  and  C_20
REMARK                            x       y       z     vdW  Elec       q    Type
REMARK                         _______ _______ _______ _____ _____    ______ ____
ROOT
ATOM      1  C   UNL     1      -0.880  10.869  19.659  0.00  0.00    +0.000 A 
ATOM      2  C   UNL     1      -1.017  10.286  18.455  0.00  0.00    +0.000 A 
ATOM      3  C   UNL     1      -2.190  10.554  17.635  0.00  0.00    +0.000 A 
ATOM      4  C   UNL     1      -2.441   9.903  16.426  0.00  0.00    +0.000 A 
ATOM      5  C   UNL     1      -3.603  10.195  15.703  0.00  0.00    +0.000 A 
ATOM      6  C   UNL     1      -4.520  11.132  16.184  0.00  0.00    +0.000 A 
ATOM      7  C   UNL     1      -4.269  11.796  17.381  0.00  0.00    +0.000 A 
ATOM      8  C   UNL     1      -3.101  11.502  18.080  0.00  0.00    +0.000 A 
ATOM      9  O   UNL     1      -2.874  12.191  19.282  0.00  0.00    +0.000 OA
ATOM     10  C   UNL     1      -1.883  11.812  20.186  0.00  0.00    +0.000 A 
ATOM     11  N   UNL     1      -1.882  12.274  21.398  0.00  0.00    +0.000 NA
ENDROOT
BRANCH  11  12
ATOM     12  C   UNL     1      -2.899  13.142  21.843  0.00  0.00    +0.000 A 
ATOM     13  C   UNL     1      -2.608  14.507  21.960  0.00  0.00    +0.000 A 
ATOM     14  C   UNL     1      -3.574  15.413  22.420  0.00  0.00    +0.000 A 
ATOM     15  C   UNL     1      -4.846  14.958  22.758  0.00  0.00    +0.000 A 
ATOM     16  C   UNL     1      -5.151  13.602  22.630  0.00  0.00    +0.000 A 
ATOM     17  C   UNL     1      -4.170  12.700  22.232  0.00  0.00    +0.000 A 
ATOM     18  O   UNL     1      -6.394  13.078  22.880  0.00  0.00    +0.000 OA
ATOM     19  C   UNL     1      -7.384  14.110  22.949  0.00  0.00    +0.000 C 
ATOM     20  C   UNL     1      -6.884  15.252  23.818  0.00  0.00    +0.000 C 
ATOM     21  O   UNL     1      -5.749  15.886  23.209  0.00  0.00    +0.000 OA
ENDBRANCH  11  12
BRANCH   1  22
ATOM     22  S   UNL     1       0.545  10.530  20.583  0.00  0.00    +0.000 S 
ATOM     23  O   UNL     1       0.169  10.070  21.906  0.00  0.00    +0.000 OA
ATOM     24  O   UNL     1       1.480  11.643  20.468  0.00  0.00    +0.000 OA
BRANCH  22  29
ATOM     25  C   UNL     1       3.562   6.048  17.798  0.00  0.00    +0.000 C 
ATOM     26  C   UNL     1       2.771   7.140  18.457  0.00  0.00    +0.000 A 
ATOM     27  C   UNL     1       2.530   8.353  17.800  0.00  0.00    +0.000 A 
ATOM     28  C   UNL     1       1.826   9.378  18.436  0.00  0.00    +0.000 A 
ATOM     29  C   UNL     1       1.349   9.182  19.737  0.00  0.00    +0.000 A 
ATOM     30  C   UNL     1       1.582   7.979  20.405  0.00  0.00    +0.000 A 
ATOM     31  C   UNL     1       2.293   6.962  19.763  0.00  0.00    +0.000 A 
ENDBRANCH  22  29
ENDBRANCH   1  22
TORSDOF 3
ENDMDL
MODEL 8
REMARK VINA RESULT:      -8.6      3.870     10.453
REMARK  Name = 
REMARK  4 active torsions:
REMARK  status: ('A' for Active; 'I' for Inactive)
REMARK    1  A    between atoms: C_1  and  C_2
REMARK    2  A    between atoms: C_5  and  S_6
REMARK    3  A    between atoms: S_6  and  C_9
REMARK    4  A    between atoms: N_19  and  C_20
REMARK                            x       y       z     vdW  Elec       q    Type
REMARK                         _______ _______ _______ _____ _____    ______ ____
ROOT
ATOM      1  C   UNL     1      -1.008  11.733  19.943  0.00  0.00    +0.000 A 
ATOM      2  C   UNL     1      -2.151  12.138  19.360  0.00  0.00    +0.000 A 
ATOM      3  C   UNL     1      -2.668  11.443  18.191  0.00  0.00    +0.000 A 
ATOM      4  C   UNL     1      -3.789  11.875  17.480  0.00  0.00    +0.000 A 
ATOM      5  C   UNL     1      -4.216  11.169  16.349  0.00  0.00    +0.000 A 
ATOM      6  C   UNL     1      -3.526  10.032  15.922  0.00  0.00    +0.000 A 
ATOM      7  C   UNL     1      -2.417   9.586  16.635  0.00  0.00    +0.000 A 
ATOM      8  C   UNL     1      -2.015  10.294  17.765  0.00  0.00    +0.000 A 
ATOM      9  O   UNL     1      -0.896   9.817  18.464  0.00  0.00    +0.000 OA
ATOM     10  C   UNL     1      -0.254  10.567  19.448  0.00  0.00    +0.000 A 
ATOM     11  N   UNL     1       0.927  10.233  19.868  0.00  0.00    +0.000 NA
ENDROOT
BRANCH  11  12
ATOM     12  C   UNL     1       1.606   9.127  19.319  0.00  0.00    +0.000 A 
ATOM     13  C   UNL     1       2.097   9.225  18.011  0.00  0.00    +0.000 A 
ATOM     14  C   UNL     1       2.758   8.147  17.407  0.00  0.00    +0.000 A 
ATOM     15  C   UNL     1       2.943   6.962  18.114  0.00  0.00    +0.000 A 
ATOM     16  C   UNL     1       2.472   6.859  19.424  0.00  0.00    +0.000 A 
ATOM     17  C   UNL     1       1.762   7.910  19.996  0.00  0.00    +0.000 A 
ATOM     18  O   UNL     1       2.665   5.754  20.214  0.00  0.00    +0.000 OA
ATOM     19  C   UNL     1       3.670   4.896  19.664  0.00  0.00    +0.000 C 
ATOM     20  C   UNL     1       3.427   4.698  18.177  0.00  0.00    +0.000 C 
ATOM     21  O   UNL     1       3.590   5.937  17.473  0.00  0.00    +0.000 OA
ENDBRANCH  11  12
BRANCH   1  22
ATOM     22  S   UNL     1      -0.449  12.584  21.343  0.00  0.00    +0.000 S 
ATOM     23  O   UNL     1       0.571  13.540  20.956  0.00  0.00    +0.000 OA
ATOM     24  O   UNL     1      -0.150  11.634  22.408  0.00  0.00    +0.000 OA
BRANCH  22  29
ATOM     25  C   UNL     1      -5.097  15.759  23.636  0.00  0.00    +0.000 C 
ATOM     26  C   UNL     1      -3.985  14.953  23.031  0.00  0.00    +0.000 A 
ATOM     27  C   UNL     1      -3.823  13.598  23.346  0.00  0.00    +0.000 A 
ATOM     28  C   UNL     1      -2.762  12.866  22.809  0.00  0.00    +0.000 A 
ATOM     29  C   UNL     1      -1.861  13.493  21.941  0.00  0.00    +0.000 A 
ATOM     30  C   UNL     1      -2.009  14.843  21.619  0.00  0.00    +0.000 A 
ATOM     31  C   UNL     1      -3.069  15.569  22.166  0.00  0.00    +0.000 A 
ENDBRANCH  22  29
ENDBRANCH   1  22
TORSDOF 3
ENDMDL
MODEL 9
REMARK VINA RESULT:      -8.5      3.928      8.878
REMARK  Name = 
REMARK  4 active torsions:
REMARK  status: ('A' for Active; 'I' for Inactive)
REMARK    1  A    between atoms: C_1  and  C_2
REMARK    2  A    between atoms: C_5  and  S_6
REMARK    3  A    between atoms: S_6  and  C_9
REMARK    4  A    between atoms: N_19  and  C_20
REMARK                            x       y       z     vdW  Elec       q    Type
REMARK                         _______ _______ _______ _____ _____    ______ ____
ROOT
ATOM      1  C   UNL     1      -0.796  11.807  19.581  0.00  0.00    +0.000 A 
ATOM      2  C   UNL     1      -1.939  12.192  18.985  0.00  0.00    +0.000 A 
ATOM      3  C   UNL     1      -2.517  11.394  17.914  0.00  0.00    +0.000 A 
ATOM      4  C   UNL     1      -3.641  11.791  17.189  0.00  0.00    +0.000 A 
ATOM      5  C   UNL     1      -4.128  10.983  16.154  0.00  0.00    +0.000 A 
ATOM      6  C   UNL     1      -3.494   9.779  15.838  0.00  0.00    +0.000 A 
ATOM      7  C   UNL     1      -2.382   9.369  16.568  0.00  0.00    +0.000 A 
ATOM      8  C   UNL     1      -1.920  10.180  17.602  0.00  0.00    +0.000 A 
ATOM      9  O   UNL     1      -0.799   9.738  18.322  0.00  0.00    +0.000 OA
ATOM     10  C   UNL     1      -0.100  10.565  19.200  0.00  0.00    +0.000 A 
ATOM     11  N   UNL     1       1.079  10.231  19.624  0.00  0.00    +0.000 NA
ENDROOT
BRANCH  11  12
ATOM     12  C   UNL     1       1.699   9.044  19.184  0.00  0.00    +0.000 A 
ATOM     13  C   UNL     1       2.274   9.024  17.907  0.00  0.00    +0.000 A 
ATOM     14  C   UNL     1       2.883   7.863  17.410  0.00  0.00    +0.000 A 
ATOM     15  C   UNL     1       2.929   6.714  18.194  0.00  0.00    +0.000 A 
ATOM     16  C   UNL     1       2.373   6.728  19.474  0.00  0.00    +0.000 A 
ATOM     17  C   UNL     1       1.715   7.863  19.937  0.00  0.00    +0.000 A 
ATOM     18  O   UNL     1       2.428   5.662  20.336  0.00  0.00    +0.000 OA
ATOM     19  C   UNL     1       3.393   4.698  19.902  0.00  0.00    +0.000 C 
ATOM     20  C   UNL     1       3.226   4.427  18.416  0.00  0.00    +0.000 C 
ATOM     21  O   UNL     1       3.530   5.605  17.655  0.00  0.00    +0.000 OA
ENDBRANCH  11  12
BRANCH   1  22
ATOM     22  S   UNL     1      -0.163  12.783  20.863  0.00  0.00    +0.000 S 
ATOM     23  O   UNL     1       0.264  11.932  21.958  0.00  0.00    +0.000 OA
ATOM     24  O   UNL     1      -1.083  13.878  21.146  0.00  0.00    +0.000 OA
BRANCH  22  29
ATOM     25  C   UNL     1       4.885  15.212  18.503  0.00  0.00    +0.000 C 
ATOM     26  C   UNL     1       3.624  14.663  19.104  0.00  0.00    +0.000 A 
ATOM     27  C   UNL     1       3.540  14.383  20.474  0.00  0.00    +0.000 A 
ATOM     28  C   UNL     1       2.376  13.837  21.017  0.00  0.00    +0.000 A 
ATOM     29  C   UNL     1       1.282  13.579  20.185  0.00  0.00    +0.000 A 
ATOM     30  C   UNL     1       1.350  13.852  18.817  0.00  0.00    +0.000 A 
ATOM     31  C   UNL     1       2.520  14.392  18.281  0.00  0.00    +0.000 A 
ENDBRANCH  22  29
ENDBRANCH   1  22
TORSDOF 3
ENDMDL
