MODEL 1
REMARK VINA RESULT:      -7.4      0.000      0.000
REMARK  Name = 
REMARK  2 active torsions:
REMARK  status: ('A' for Active; 'I' for Inactive)
REMARK    1  A    between atoms: N_5  and  C_6
REMARK    2  A    between atoms: C_16  and  C_17
REMARK                            x       y       z     vdW  Elec       q    Type
REMARK                         _______ _______ _______ _____ _____    ______ ____
ROOT
ATOM      1  O   UNL     1       4.320   7.101  16.683  0.00  0.00    +0.000 OA
ATOM      2  C   UNL     1       3.660   6.662  17.614  0.00  0.00    +0.000 A 
ATOM      3  N   UNL     1       2.971   7.531  18.414  0.00  0.00    +0.000 N 
ATOM      4  C   UNL     1       2.171   7.166  19.454  0.00  0.00    +0.000 A 
ATOM      5  N   UNL     1       1.653   8.223  20.131  0.00  0.00    +0.000 N 
ATOM      6  N   UNL     1       1.966   5.929  19.739  0.00  0.00    +0.000 NA
ATOM      7  C   UNL     1       2.579   4.949  18.939  0.00  0.00    +0.000 A 
ATOM      8  N   UNL     1       2.200   3.691  19.263  0.00  0.00    +0.000 NA
ATOM      9  C   UNL     1       2.781   2.683  18.591  0.00  0.00    +0.000 A 
ATOM     10  C   UNL     1       3.773   2.864  17.643  0.00  0.00    +0.000 A 
ATOM     11  C   UNL     1       4.179   4.166  17.296  0.00  0.00    +0.000 A 
ATOM     12  C   UNL     1       3.515   5.229  17.937  0.00  0.00    +0.000 A 
ATOM     13  H   UNL     1       3.140   8.509  18.237  0.00  0.00    +0.000 HD
ATOM     14  H   UNL     1       1.433   9.049  19.587  0.00  0.00    +0.000 HD
ENDROOT
BRANCH   5  15
ATOM     15  C   UNL     1       1.056   8.170  21.448  0.00  0.00    +0.000 C 
ATOM     16  C   UNL     1       1.602   9.326  22.284  0.00  0.00    +0.000 C 
ATOM     17  C   UNL     1       0.572   9.522  23.381  0.00  0.00    +0.000 C 
ATOM     18  C   UNL     1      -0.759   9.079  22.781  0.00  0.00    +0.000 C 
ATOM     19  C   UNL     1      -0.445   8.428  21.432  0.00  0.00    +0.000 C 
ENDBRANCH   5  15
BRANCH  11  20
ATOM     20  C   UNL     1       5.316   4.323  16.355  0.00  0.00    +0.000 A 
ATOM     21  C   UNL     1       5.332   4.258  14.970  0.00  0.00    +0.000 A 
ATOM     22  C   UNL     1       6.621   4.485  14.405  0.00  0.00    +0.000 A 
ATOM     23  C   UNL     1       7.556   4.781  15.368  0.00  0.00    +0.000 A 
ATOM     24  S   UNL     1       6.897   4.700  16.941  0.00  0.00    +0.000 S 
ENDBRANCH  11  20
TORSDOF 2
ENDMDL
MODEL 2
REMARK VINA RESULT:      -7.3      4.644      6.294
REMARK  Name = 
REMARK  2 active torsions:
REMARK  status: ('A' for Active; 'I' for Inactive)
REMARK    1  A    between atoms: N_5  and  C_6
REMARK    2  A    between atoms: C_16  and  C_17
REMARK                            x       y       z     vdW  Elec       q    Type
REMARK                         _______ _______ _______ _____ _____    ______ ____
ROOT
ATOM      1  O   UNL     1       5.673   4.426  19.565  0.00  0.00    +0.000 OA
ATOM      2  C   UNL     1       6.224   5.140  18.739  0.00  0.00    +0.000 A 
ATOM      3  N   UNL     1       7.066   6.129  19.166  0.00  0.00    +0.000 N 
ATOM      4  C   UNL     1       7.769   6.962  18.349  0.00  0.00    +0.000 A 
ATOM      5  N   UNL     1       8.481   7.900  19.023  0.00  0.00    +0.000 N 
ATOM      6  N   UNL     1       7.721   6.841  17.069  0.00  0.00    +0.000 NA
ATOM      7  C   UNL     1       6.931   5.813  16.525  0.00  0.00    +0.000 A 
ATOM      8  N   UNL     1       7.049   5.714  15.181  0.00  0.00    +0.000 NA
ATOM      9  C   UNL     1       6.285   4.799  14.564  0.00  0.00    +0.000 A 
ATOM     10  C   UNL     1       5.356   4.008  15.218  0.00  0.00    +0.000 A 
ATOM     11  C   UNL     1       5.221   4.100  16.615  0.00  0.00    +0.000 A 
ATOM     12  C   UNL     1       6.078   4.998  17.277  0.00  0.00    +0.000 A 
ATOM     13  H   UNL     1       7.096   6.271  20.164  0.00  0.00    +0.000 HD
ATOM     14  H   UNL     1       8.866   7.626  19.919  0.00  0.00    +0.000 HD
ENDROOT
BRANCH   5  15
ATOM     15  C   UNL     1       9.045   9.103  18.448  0.00  0.00    +0.000 C 
ATOM     16  C   UNL     1       7.925   9.908  17.790  0.00  0.00    +0.000 C 
ATOM     17  C   UNL     1       8.466  11.324  17.718  0.00  0.00    +0.000 C 
ATOM     18  C   UNL     1       9.427  11.459  18.895  0.00  0.00    +0.000 C 
ATOM     19  C   UNL     1       9.596  10.062  19.495  0.00  0.00    +0.000 C 
ENDBRANCH   5  15
BRANCH  11  20
ATOM     20  C   UNL     1       4.145   3.316  17.273  0.00  0.00    +0.000 A 
ATOM     21  C   UNL     1       4.167   2.015  17.752  0.00  0.00    +0.000 A 
ATOM     22  C   UNL     1       2.938   1.607  18.348  0.00  0.00    +0.000 A 
ATOM     23  C   UNL     1       2.018   2.628  18.369  0.00  0.00    +0.000 A 
ATOM     24  S   UNL     1       2.608   4.034  17.599  0.00  0.00    +0.000 S 
ENDBRANCH  11  20
TORSDOF 2
ENDMDL
MODEL 3
REMARK VINA RESULT:      -7.3      3.415      7.336
REMARK  Name = 
REMARK  2 active torsions:
REMARK  status: ('A' for Active; 'I' for Inactive)
REMARK    1  A    between atoms: N_5  and  C_6
REMARK    2  A    between atoms: C_16  and  C_17
REMARK                            x       y       z     vdW  Elec       q    Type
REMARK                         _______ _______ _______ _____ _____    ______ ____
ROOT
ATOM      1  O   UNL     1       1.954   9.981  17.432  0.00  0.00    +0.000 OA
ATOM      2  C   UNL     1       1.941   9.061  18.238  0.00  0.00    +0.000 A 
ATOM      3  N   UNL     1       2.474   7.853  17.882  0.00  0.00    +0.000 N 
ATOM      4  C   UNL     1       2.555   6.766  18.700  0.00  0.00    +0.000 A 
ATOM      5  N   UNL     1       3.067   5.669  18.085  0.00  0.00    +0.000 N 
ATOM      6  N   UNL     1       2.163   6.818  19.923  0.00  0.00    +0.000 NA
ATOM      7  C   UNL     1       1.654   8.034  20.410  0.00  0.00    +0.000 A 
ATOM      8  N   UNL     1       1.381   7.998  21.735  0.00  0.00    +0.000 NA
ATOM      9  C   UNL     1       0.832   9.097  22.278  0.00  0.00    +0.000 A 
ATOM     10  C   UNL     1       0.486  10.222  21.549  0.00  0.00    +0.000 A 
ATOM     11  C   UNL     1       0.762  10.274  20.171  0.00  0.00    +0.000 A 
ATOM     12  C   UNL     1       1.413   9.158  19.613  0.00  0.00    +0.000 A 
ATOM     13  H   UNL     1       2.758   7.772  16.918  0.00  0.00    +0.000 HD
ATOM     14  H   UNL     1       3.778   5.830  17.382  0.00  0.00    +0.000 HD
ENDROOT
BRANCH   5  15
ATOM     15  C   UNL     1       2.972   4.310  18.572  0.00  0.00    +0.000 C 
ATOM     16  C   UNL     1       1.595   3.752  18.212  0.00  0.00    +0.000 C 
ATOM     17  C   UNL     1       1.773   2.246  18.250  0.00  0.00    +0.000 C 
ATOM     18  C   UNL     1       3.235   1.994  17.890  0.00  0.00    +0.000 C 
ATOM     19  C   UNL     1       3.929   3.357  17.869  0.00  0.00    +0.000 C 
ENDBRANCH   5  15
BRANCH  11  20
ATOM     20  C   UNL     1       0.284  11.449  19.400  0.00  0.00    +0.000 A 
ATOM     21  C   UNL     1      -0.860  11.594  18.629  0.00  0.00    +0.000 A 
ATOM     22  C   UNL     1      -0.996  12.890  18.050  0.00  0.00    +0.000 A 
ATOM     23  C   UNL     1       0.018  13.732  18.441  0.00  0.00    +0.000 A 
ATOM     24  S   UNL     1       1.163  12.936  19.426  0.00  0.00    +0.000 S 
ENDBRANCH  11  20
TORSDOF 2
ENDMDL
MODEL 4
REMARK VINA RESULT:      -7.0      1.345      1.584
REMARK  Name = 
REMARK  2 active torsions:
REMARK  status: ('A' for Active; 'I' for Inactive)
REMARK    1  A    between atoms: N_5  and  C_6
REMARK    2  A    between atoms: C_16  and  C_17
REMARK                            x       y       z     vdW  Elec       q    Type
REMARK                         _______ _______ _______ _____ _____    ______ ____
ROOT
ATOM      1  O   UNL     1       3.594   7.115  17.065  0.00  0.00    +0.000 OA
ATOM      2  C   UNL     1       3.087   7.050  18.176  0.00  0.00    +0.000 A 
ATOM      3  N   UNL     1       2.432   8.140  18.677  0.00  0.00    +0.000 N 
ATOM      4  C   UNL     1       1.793   8.181  19.880  0.00  0.00    +0.000 A 
ATOM      5  N   UNL     1       1.277   9.403  20.173  0.00  0.00    +0.000 N 
ATOM      6  N   UNL     1       1.722   7.144  20.636  0.00  0.00    +0.000 NA
ATOM      7  C   UNL     1       2.311   5.949  20.186  0.00  0.00    +0.000 A 
ATOM      8  N   UNL     1       2.075   4.903  21.011  0.00  0.00    +0.000 NA
ATOM      9  C   UNL     1       2.649   3.731  20.695  0.00  0.00    +0.000 A 
ATOM     10  C   UNL     1       3.504   3.561  19.619  0.00  0.00    +0.000 A 
ATOM     11  C   UNL     1       3.761   4.639  18.754  0.00  0.00    +0.000 A 
ATOM     12  C   UNL     1       3.095   5.848  19.032  0.00  0.00    +0.000 A 
ATOM     13  H   UNL     1       2.500   8.980  18.122  0.00  0.00    +0.000 HD
ATOM     14  H   UNL     1       0.929   9.950  19.394  0.00  0.00    +0.000 HD
ENDROOT
BRANCH   5  15
ATOM     15  C   UNL     1       0.848   9.844  21.482  0.00  0.00    +0.000 C 
ATOM     16  C   UNL     1       0.227  11.234  21.356  0.00  0.00    +0.000 C 
ATOM     17  C   UNL     1      -0.650  11.373  22.586  0.00  0.00    +0.000 C 
ATOM     18  C   UNL     1      -1.091   9.955  22.940  0.00  0.00    +0.000 C 
ATOM     19  C   UNL     1      -0.289   9.004  22.050  0.00  0.00    +0.000 C 
ENDBRANCH   5  15
BRANCH  11  20
ATOM     20  C   UNL     1       4.761   4.454  17.673  0.00  0.00    +0.000 A 
ATOM     21  C   UNL     1       4.595   3.945  16.393  0.00  0.00    +0.000 A 
ATOM     22  C   UNL     1       5.795   3.942  15.623  0.00  0.00    +0.000 A 
ATOM     23  C   UNL     1       6.843   4.509  16.308  0.00  0.00    +0.000 A 
ATOM     24  S   UNL     1       6.399   4.958  17.894  0.00  0.00    +0.000 S 
ENDBRANCH  11  20
TORSDOF 2
ENDMDL
MODEL 5
REMARK VINA RESULT:      -6.8      1.855      2.173
REMARK  Name = 
REMARK  2 active torsions:
REMARK  status: ('A' for Active; 'I' for Inactive)
REMARK    1  A    between atoms: N_5  and  C_6
REMARK    2  A    between atoms: C_16  and  C_17
REMARK                            x       y       z     vdW  Elec       q    Type
REMARK                         _______ _______ _______ _____ _____    ______ ____
ROOT
ATOM      1  O   UNL     1       3.992   7.297  16.706  0.00  0.00    +0.000 OA
ATOM      2  C   UNL     1       3.336   7.383  17.734  0.00  0.00    +0.000 A 
ATOM      3  N   UNL     1       2.642   8.532  17.991  0.00  0.00    +0.000 N 
ATOM      4  C   UNL     1       1.845   8.736  19.077  0.00  0.00    +0.000 A 
ATOM      5  N   UNL     1       1.321   9.987  19.132  0.00  0.00    +0.000 N 
ATOM      6  N   UNL     1       1.649   7.809  19.947  0.00  0.00    +0.000 NA
ATOM      7  C   UNL     1       2.268   6.563  19.745  0.00  0.00    +0.000 A 
ATOM      8  N   UNL     1       1.898   5.638  20.660  0.00  0.00    +0.000 NA
ATOM      9  C   UNL     1       2.485   4.432  20.584  0.00  0.00    +0.000 A 
ATOM     10  C   UNL     1       3.476   4.117  19.670  0.00  0.00    +0.000 A 
ATOM     11  C   UNL     1       3.872   5.069  18.714  0.00  0.00    +0.000 A 
ATOM     12  C   UNL     1       3.201   6.306  18.735  0.00  0.00    +0.000 A 
ATOM     13  H   UNL     1       2.804   9.290  17.345  0.00  0.00    +0.000 HD
ATOM     14  H   UNL     1       1.095  10.426  18.247  0.00  0.00    +0.000 HD
ENDROOT
BRANCH   5  15
ATOM     15  C   UNL     1       0.725  10.600  20.299  0.00  0.00    +0.000 C 
ATOM     16  C   UNL     1       1.199  12.051  20.391  0.00  0.00    +0.000 C 
ATOM     17  C   UNL     1       0.157  12.738  21.253  0.00  0.00    +0.000 C 
ATOM     18  C   UNL     1      -1.144  11.978  21.013  0.00  0.00    +0.000 C 
ATOM     19  C   UNL     1      -0.788  10.735  20.195  0.00  0.00    +0.000 C 
ENDBRANCH   5  15
BRANCH  11  20
ATOM     20  C   UNL     1       5.007   4.738  17.816  0.00  0.00    +0.000 A 
ATOM     21  C   UNL     1       5.002   4.111  16.579  0.00  0.00    +0.000 A 
ATOM     22  C   UNL     1       6.298   3.984  16.000  0.00  0.00    +0.000 A 
ATOM     23  C   UNL     1       7.265   4.574  16.779  0.00  0.00    +0.000 A 
ATOM     24  S   UNL     1       6.621   5.195  18.233  0.00  0.00    +0.000 S 
ENDBRANCH  11  20
TORSDOF 2
ENDMDL
MODEL 6
REMARK VINA RESULT:      -6.8      1.166      1.402
REMARK  Name = 
REMARK  2 active torsions:
REMARK  status: ('A' for Active; 'I' for Inactive)
REMARK    1  A    between atoms: N_5  and  C_6
REMARK    2  A    between atoms: C_16  and  C_17
REMARK                            x       y       z     vdW  Elec       q    Type
REMARK                         _______ _______ _______ _____ _____    ______ ____
ROOT
ATOM      1  O   UNL     1       4.212   7.190  17.267  0.00  0.00    +0.000 OA
ATOM      2  C   UNL     1       3.439   6.882  18.163  0.00  0.00    +0.000 A 
ATOM      3  N   UNL     1       2.583   7.825  18.661  0.00  0.00    +0.000 N 
ATOM      4  C   UNL     1       1.650   7.598  19.627  0.00  0.00    +0.000 A 
ATOM      5  N   UNL     1       0.972   8.716  19.992  0.00  0.00    +0.000 N 
ATOM      6  N   UNL     1       1.472   6.425  20.124  0.00  0.00    +0.000 NA
ATOM      7  C   UNL     1       2.260   5.368  19.637  0.00  0.00    +0.000 A 
ATOM      8  N   UNL     1       1.906   4.168  20.151  0.00  0.00    +0.000 NA
ATOM      9  C   UNL     1       2.643   3.104  19.790  0.00  0.00    +0.000 A 
ATOM     10  C   UNL     1       3.762   3.186  18.979  0.00  0.00    +0.000 A 
ATOM     11  C   UNL     1       4.143   4.427  18.437  0.00  0.00    +0.000 A 
ATOM     12  C   UNL     1       3.326   5.530  18.745  0.00  0.00    +0.000 A 
ATOM     13  H   UNL     1       2.723   8.762  18.316  0.00  0.00    +0.000 HD
ATOM     14  H   UNL     1       0.795   9.400  19.266  0.00  0.00    +0.000 HD
ENDROOT
BRANCH   5  15
ATOM     15  C   UNL     1       0.177   8.865  21.192  0.00  0.00    +0.000 C 
ATOM     16  C   UNL     1       1.113   8.951  22.397  0.00  0.00    +0.000 C 
ATOM     17  C   UNL     1       0.287   9.631  23.473  0.00  0.00    +0.000 C 
ATOM     18  C   UNL     1      -0.701  10.526  22.731  0.00  0.00    +0.000 C 
ATOM     19  C   UNL     1      -0.582  10.184  21.245  0.00  0.00    +0.000 C 
ENDBRANCH   5  15
BRANCH  11  20
ATOM     20  C   UNL     1       5.404   4.499  17.658  0.00  0.00    +0.000 A 
ATOM     21  C   UNL     1       6.697   4.757  18.091  0.00  0.00    +0.000 A 
ATOM     22  C   UNL     1       7.665   4.722  17.045  0.00  0.00    +0.000 A 
ATOM     23  C   UNL     1       7.102   4.376  15.840  0.00  0.00    +0.000 A 
ATOM     24  S   UNL     1       5.409   4.181  15.960  0.00  0.00    +0.000 S 
ENDBRANCH  11  20
TORSDOF 2
ENDMDL
MODEL 7
REMARK VINA RESULT:      -6.7      2.767      4.111
REMARK  Name = 
REMARK  2 active torsions:
REMARK  status: ('A' for Active; 'I' for Inactive)
REMARK    1  A    between atoms: N_5  and  C_6
REMARK    2  A    between atoms: C_16  and  C_17
REMARK                            x       y       z     vdW  Elec       q    Type
REMARK                         _______ _______ _______ _____ _____    ______ ____
ROOT
ATOM      1  O   UNL     1       2.518   5.423  20.390  0.00  0.00    +0.000 OA
ATOM      2  C   UNL     1       2.558   6.326  19.567  0.00  0.00    +0.000 A 
ATOM      3  N   UNL     1       1.862   7.478  19.806  0.00  0.00    +0.000 N 
ATOM      4  C   UNL     1       1.857   8.569  18.989  0.00  0.00    +0.000 A 
ATOM      5  N   UNL     1       1.032   9.558  19.420  0.00  0.00    +0.000 N 
ATOM      6  N   UNL     1       2.570   8.609  17.920  0.00  0.00    +0.000 NA
ATOM      7  C   UNL     1       3.373   7.496  17.612  0.00  0.00    +0.000 A 
ATOM      8  N   UNL     1       4.160   7.698  16.531  0.00  0.00    +0.000 NA
ATOM      9  C   UNL     1       4.919   6.668  16.124  0.00  0.00    +0.000 A 
ATOM     10  C   UNL     1       4.892   5.415  16.711  0.00  0.00    +0.000 A 
ATOM     11  C   UNL     1       4.078   5.189  17.836  0.00  0.00    +0.000 A 
ATOM     12  C   UNL     1       3.343   6.289  18.318  0.00  0.00    +0.000 A 
ATOM     13  H   UNL     1       1.266   7.464  20.619  0.00  0.00    +0.000 HD
ATOM     14  H   UNL     1       0.943   9.674  20.422  0.00  0.00    +0.000 HD
ENDROOT
BRANCH   5  15
ATOM     15  C   UNL     1       0.565  10.672  18.622  0.00  0.00    +0.000 C 
ATOM     16  C   UNL     1      -0.949  10.552  18.446  0.00  0.00    +0.000 C 
ATOM     17  C   UNL     1      -1.405  11.959  18.109  0.00  0.00    +0.000 C 
ATOM     18  C   UNL     1      -0.407  12.891  18.790  0.00  0.00    +0.000 C 
ATOM     19  C   UNL     1       0.729  12.015  19.320  0.00  0.00    +0.000 C 
ENDBRANCH   5  15
BRANCH  11  20
ATOM     20  C   UNL     1       3.991   3.810  18.378  0.00  0.00    +0.000 A 
ATOM     21  C   UNL     1       4.697   3.223  19.418  0.00  0.00    +0.000 A 
ATOM     22  C   UNL     1       4.320   1.871  19.669  0.00  0.00    +0.000 A 
ATOM     23  C   UNL     1       3.287   1.469  18.856  0.00  0.00    +0.000 A 
ATOM     24  S   UNL     1       2.840   2.687  17.746  0.00  0.00    +0.000 S 
ENDBRANCH  11  20
TORSDOF 2
ENDMDL
MODEL 8
REMARK VINA RESULT:      -6.6      2.578      3.791
REMARK  Name = 
REMARK  2 active torsions:
REMARK  status: ('A' for Active; 'I' for Inactive)
REMARK    1  A    between atoms: N_5  and  C_6
REMARK    2  A    between atoms: C_16  and  C_17
REMARK                            x       y       z     vdW  Elec       q    Type
REMARK                         _______ _______ _______ _____ _____    ______ ____
ROOT
ATOM      1  O   UNL     1       2.011   4.878  21.086  0.00  0.00    +0.000 OA
ATOM      2  C   UNL     1       1.878   6.003  20.626  0.00  0.00    +0.000 A 
ATOM      3  N   UNL     1       1.210   6.949  21.354  0.00  0.00    +0.000 N 
ATOM      4  C   UNL     1       1.031   8.244  20.971  0.00  0.00    +0.000 A 
ATOM      5  N   UNL     1       0.277   8.962  21.842  0.00  0.00    +0.000 N 
ATOM      6  N   UNL     1       1.535   8.695  19.877  0.00  0.00    +0.000 NA
ATOM      7  C   UNL     1       2.295   7.819  19.081  0.00  0.00    +0.000 A 
ATOM      8  N   UNL     1       2.865   8.433  18.020  0.00  0.00    +0.000 NA
ATOM      9  C   UNL     1       3.561   7.664  17.167  0.00  0.00    +0.000 A 
ATOM     10  C   UNL     1       3.670   6.289  17.288  0.00  0.00    +0.000 A 
ATOM     11  C   UNL     1       3.082   5.636  18.386  0.00  0.00    +0.000 A 
ATOM     12  C   UNL     1       2.422   6.448  19.328  0.00  0.00    +0.000 A 
ATOM     13  H   UNL     1       0.774   6.616  22.199  0.00  0.00    +0.000 HD
ATOM     14  H   UNL     1       0.369   8.731  22.824  0.00  0.00    +0.000 HD
ENDROOT
BRANCH   5  15
ATOM     15  C   UNL     1      -0.355  10.233  21.560  0.00  0.00    +0.000 C 
ATOM     16  C   UNL     1      -0.986  10.767  22.845  0.00  0.00    +0.000 C 
ATOM     17  C   UNL     1      -1.121  12.260  22.612  0.00  0.00    +0.000 C 
ATOM     18  C   UNL     1       0.011  12.632  21.658  0.00  0.00    +0.000 C 
ATOM     19  C   UNL     1       0.641  11.322  21.183  0.00  0.00    +0.000 C 
ENDBRANCH   5  15
BRANCH  11  20
ATOM     20  C   UNL     1       3.127   4.153  18.432  0.00  0.00    +0.000 A 
ATOM     21  C   UNL     1       2.245   3.225  17.899  0.00  0.00    +0.000 A 
ATOM     22  C   UNL     1       2.634   1.873  18.129  0.00  0.00    +0.000 A 
ATOM     23  C   UNL     1       3.842   1.793  18.780  0.00  0.00    +0.000 A 
ATOM     24  S   UNL     1       4.451   3.336  19.184  0.00  0.00    +0.000 S 
ENDBRANCH  11  20
TORSDOF 2
ENDMDL
MODEL 9
REMARK VINA RESULT:      -6.6      2.542      3.859
REMARK  Name = 
REMARK  2 active torsions:
REMARK  status: ('A' for Active; 'I' for Inactive)
REMARK    1  A    between atoms: N_5  and  C_6
REMARK    2  A    between atoms: C_16  and  C_17
REMARK                            x       y       z     vdW  Elec       q    Type
REMARK                         _______ _______ _______ _____ _____    ______ ____
ROOT
ATOM      1  O   UNL     1       1.973   4.974  20.988  0.00  0.00    +0.000 OA
ATOM      2  C   UNL     1       1.996   6.048  20.405  0.00  0.00    +0.000 A 
ATOM      3  N   UNL     1       1.387   7.132  20.974  0.00  0.00    +0.000 N 
ATOM      4  C   UNL     1       1.377   8.387  20.446  0.00  0.00    +0.000 A 
ATOM      5  N   UNL     1       0.647   9.270  21.174  0.00  0.00    +0.000 N 
ATOM      6  N   UNL     1       2.003   8.660  19.356  0.00  0.00    +0.000 NA
ATOM      7  C   UNL     1       2.716   7.629  18.719  0.00  0.00    +0.000 A 
ATOM      8  N   UNL     1       3.422   8.060  17.650  0.00  0.00    +0.000 NA
ATOM      9  C   UNL     1       4.088   7.134  16.941  0.00  0.00    +0.000 A 
ATOM     10  C   UNL     1       4.038   5.778  17.212  0.00  0.00    +0.000 A 
ATOM     11  C   UNL     1       3.306   5.314  18.320  0.00  0.00    +0.000 A 
ATOM     12  C   UNL     1       2.675   6.288  19.116  0.00  0.00    +0.000 A 
ATOM     13  H   UNL     1       0.859   6.941  21.811  0.00  0.00    +0.000 HD
ATOM     14  H   UNL     1       0.645   9.142  22.179  0.00  0.00    +0.000 HD
ENDROOT
BRANCH   5  15
ATOM     15  C   UNL     1       0.180  10.560  20.712  0.00  0.00    +0.000 C 
ATOM     16  C   UNL     1      -0.889  10.342  19.640  0.00  0.00    +0.000 C 
ATOM     17  C   UNL     1      -1.677  11.639  19.620  0.00  0.00    +0.000 C 
ATOM     18  C   UNL     1      -1.580  12.203  21.035  0.00  0.00    +0.000 C 
ATOM     19  C   UNL     1      -0.560  11.346  21.786  0.00  0.00    +0.000 C 
ENDBRANCH   5  15
BRANCH  11  20
ATOM     20  C   UNL     1       3.186   3.848  18.523  0.00  0.00    +0.000 A 
ATOM     21  C   UNL     1       2.191   2.977  18.105  0.00  0.00    +0.000 A 
ATOM     22  C   UNL     1       2.432   1.620  18.471  0.00  0.00    +0.000 A 
ATOM     23  C   UNL     1       3.641   1.471  19.108  0.00  0.00    +0.000 A 
ATOM     24  S   UNL     1       4.430   2.967  19.336  0.00  0.00    +0.000 S 
ENDBRANCH  11  20
TORSDOF 2
ENDMDL
