MODEL 1
REMARK VINA RESULT:      -7.9      0.000      0.000
REMARK  Name = 
REMARK  11 active torsions:
REMARK  status: ('A' for Active; 'I' for Inactive)
REMARK    1  A    between atoms: C_1  and  O_2
REMARK    2  A    between atoms: O_2  and  C_3
REMARK    3  A    between atoms: C_5  and  C_6
REMARK    4  A    between atoms: C_7  and  C_8
REMARK    5  A    between atoms: C_8  and  C_10
REMARK    6  A    between atoms: C_11  and  O_12
REMARK    7  A    between atoms: O_12  and  C_13
REMARK    8  A    between atoms: C_17  and  O_18
REMARK    9  A    between atoms: C_21  and  C_22
REMARK   10  A    between atoms: C_21  and  C_23
REMARK   11  A    between atoms: C_27  and  O_28
REMARK                            x       y       z     vdW  Elec       q    Type
REMARK                         _______ _______ _______ _____ _____    ______ ____
ROOT
ATOM      1  C   UNL     1       6.219   6.325  17.195  0.00  0.00    +0.000 A 
ATOM      2  C   UNL     1       6.390   5.350  16.195  0.00  0.00    +0.000 A 
ATOM      3  C   UNL     1       5.385   4.363  16.014  0.00  0.00    +0.000 A 
ATOM      4  C   UNL     1       4.167   4.488  16.694  0.00  0.00    +0.000 A 
ATOM      5  C   UNL     1       3.902   5.677  17.380  0.00  0.00    +0.000 A 
ATOM      6  C   UNL     1       4.956   6.488  17.763  0.00  0.00    +0.000 A 
ATOM      7  C   UNL     1       2.585   5.750  17.988  0.00  0.00    +0.000 C 
ATOM      8  C   UNL     1       2.603   4.580  18.648  0.00  0.00    +0.000 C 
ATOM      9  C   UNL     1       2.053   3.403  17.843  0.00  0.00    +0.000 C 
ATOM     10  C   UNL     1       2.184   1.802  17.771  0.00  0.00    +0.000 C 
ATOM     11  C   UNL     1       1.352   3.190  19.304  0.00  0.00    +0.000 C 
ATOM     12  O   UNL     1       3.352   3.376  16.966  0.00  0.00    +0.000 OA
ENDROOT
BRANCH   1  13
ATOM     13  C   UNL     1       7.369   6.928  17.921  0.00  0.00    +0.000 C 
ATOM     14  O   UNL     1       7.940   6.323  18.819  0.00  0.00    +0.000 OA
BRANCH  13  16
ATOM     15  C   UNL     1       8.562   9.016  18.336  0.00  0.00    +0.000 C 
ATOM     16  C   UNL     1       7.718   8.325  17.560  0.00  0.00    +0.000 C 
BRANCH  15  19
ATOM     17  C   UNL     1      10.437  12.334  18.211  0.00  0.00    +0.000 A 
ATOM     18  C   UNL     1      10.167  10.968  18.385  0.00  0.00    +0.000 A 
ATOM     19  C   UNL     1       8.903  10.425  18.104  0.00  0.00    +0.000 A 
ATOM     20  C   UNL     1       7.923  11.261  17.564  0.00  0.00    +0.000 A 
ATOM     21  C   UNL     1       8.179  12.620  17.376  0.00  0.00    +0.000 A 
ATOM     22  C   UNL     1       9.425  13.159  17.713  0.00  0.00    +0.000 A 
BRANCH  17  24
ATOM     23  C   UNL     1      12.256  12.071  19.746  0.00  0.00    +0.000 C 
ATOM     24  O   UNL     1      11.711  12.673  18.582  0.00  0.00    +0.000 OA
ENDBRANCH  17  24
BRANCH  22  25
ATOM     25  O   UNL     1       9.612  14.502  17.544  0.00  0.00    +0.000 OA
ATOM     26  H   UNL     1      10.332  14.797  18.125  0.00  0.00    +0.000 HD
ENDBRANCH  22  25
ENDBRANCH  15  19
ENDBRANCH  13  16
ENDBRANCH   1  13
BRANCH   2  27
ATOM     27  O   UNL     1       7.508   5.227  15.404  0.00  0.00    +0.000 OA
ATOM     28  C   UNL     1       7.239   4.870  14.041  0.00  0.00    +0.000 C 
ENDBRANCH   2  27
BRANCH   6  29
ATOM     29  O   UNL     1       4.764   7.249  18.890  0.00  0.00    +0.000 OA
ATOM     30  H   UNL     1       5.661   7.526  19.170  0.00  0.00    +0.000 HD
ENDBRANCH   6  29
TORSDOF 7
ENDMDL
MODEL 2
REMARK VINA RESULT:      -7.9      5.658      9.203
REMARK  Name = 
REMARK  11 active torsions:
REMARK  status: ('A' for Active; 'I' for Inactive)
REMARK    1  A    between atoms: C_1  and  O_2
REMARK    2  A    between atoms: O_2  and  C_3
REMARK    3  A    between atoms: C_5  and  C_6
REMARK    4  A    between atoms: C_7  and  C_8
REMARK    5  A    between atoms: C_8  and  C_10
REMARK    6  A    between atoms: C_11  and  O_12
REMARK    7  A    between atoms: O_12  and  C_13
REMARK    8  A    between atoms: C_17  and  O_18
REMARK    9  A    between atoms: C_21  and  C_22
REMARK   10  A    between atoms: C_21  and  C_23
REMARK   11  A    between atoms: C_27  and  O_28
REMARK                            x       y       z     vdW  Elec       q    Type
REMARK                         _______ _______ _______ _____ _____    ______ ____
ROOT
ATOM      1  C   UNL     1       2.146   8.452  19.095  0.00  0.00    +0.000 A 
ATOM      2  C   UNL     1       1.581   8.127  20.342  0.00  0.00    +0.000 A 
ATOM      3  C   UNL     1       1.513   6.764  20.734  0.00  0.00    +0.000 A 
ATOM      4  C   UNL     1       2.174   5.794  19.971  0.00  0.00    +0.000 A 
ATOM      5  C   UNL     1       3.039   6.215  18.956  0.00  0.00    +0.000 A 
ATOM      6  C   UNL     1       2.893   7.485  18.425  0.00  0.00    +0.000 A 
ATOM      7  C   UNL     1       3.743   5.146  18.270  0.00  0.00    +0.000 C 
ATOM      8  C   UNL     1       2.688   4.368  17.976  0.00  0.00    +0.000 C 
ATOM      9  C   UNL     1       2.364   3.327  19.049  0.00  0.00    +0.000 C 
ATOM     10  C   UNL     1       1.113   2.472  19.586  0.00  0.00    +0.000 C 
ATOM     11  C   UNL     1       2.250   2.459  17.669  0.00  0.00    +0.000 C 
ATOM     12  O   UNL     1       1.778   4.446  19.978  0.00  0.00    +0.000 OA
ENDROOT
BRANCH   1  13
ATOM     13  C   UNL     1       1.695   9.627  18.302  0.00  0.00    +0.000 C 
ATOM     14  O   UNL     1       2.458  10.549  18.045  0.00  0.00    +0.000 OA
BRANCH  13  16
ATOM     15  C   UNL     1      -0.413  10.815  17.983  0.00  0.00    +0.000 C 
ATOM     16  C   UNL     1       0.260   9.659  17.927  0.00  0.00    +0.000 C 
BRANCH  15  19
ATOM     17  C   UNL     1      -3.807  10.710  16.248  0.00  0.00    +0.000 A 
ATOM     18  C   UNL     1      -2.438  10.528  16.499  0.00  0.00    +0.000 A 
ATOM     19  C   UNL     1      -1.851  10.929  17.709  0.00  0.00    +0.000 A 
ATOM     20  C   UNL     1      -2.674  11.450  18.709  0.00  0.00    +0.000 A 
ATOM     21  C   UNL     1      -4.038  11.629  18.480  0.00  0.00    +0.000 A 
ATOM     22  C   UNL     1      -4.601  11.277  17.248  0.00  0.00    +0.000 A 
BRANCH  17  24
ATOM     23  C   UNL     1      -3.154  10.016  14.051  0.00  0.00    +0.000 C 
ATOM     24  O   UNL     1      -4.176  10.295  14.997  0.00  0.00    +0.000 OA
ENDBRANCH  17  24
BRANCH  22  25
ATOM     25  O   UNL     1      -5.935  11.507  17.061  0.00  0.00    +0.000 OA
ATOM     26  H   UNL     1      -6.263  10.920  16.360  0.00  0.00    +0.000 HD
ENDBRANCH  22  25
ENDBRANCH  15  19
ENDBRANCH  13  16
ENDBRANCH   1  13
BRANCH   2  27
ATOM     27  O   UNL     1       1.011   9.033  21.204  0.00  0.00    +0.000 OA
ATOM     28  C   UNL     1      -0.282   8.657  21.699  0.00  0.00    +0.000 C 
ENDBRANCH   2  27
BRANCH   6  29
ATOM     29  O   UNL     1       3.279   7.648  17.118  0.00  0.00    +0.000 OA
ATOM     30  H   UNL     1       2.966   6.844  16.654  0.00  0.00    +0.000 HD
ENDBRANCH   6  29
TORSDOF 7
ENDMDL
MODEL 3
REMARK VINA RESULT:      -7.9      6.368      9.754
REMARK  Name = 
REMARK  11 active torsions:
REMARK  status: ('A' for Active; 'I' for Inactive)
REMARK    1  A    between atoms: C_1  and  O_2
REMARK    2  A    between atoms: O_2  and  C_3
REMARK    3  A    between atoms: C_5  and  C_6
REMARK    4  A    between atoms: C_7  and  C_8
REMARK    5  A    between atoms: C_8  and  C_10
REMARK    6  A    between atoms: C_11  and  O_12
REMARK    7  A    between atoms: O_12  and  C_13
REMARK    8  A    between atoms: C_17  and  O_18
REMARK    9  A    between atoms: C_21  and  C_22
REMARK   10  A    between atoms: C_21  and  C_23
REMARK   11  A    between atoms: C_27  and  O_28
REMARK                            x       y       z     vdW  Elec       q    Type
REMARK                         _______ _______ _______ _____ _____    ______ ____
ROOT
ATOM      1  C   UNL     1       1.668   9.138  19.256  0.00  0.00    +0.000 A 
ATOM      2  C   UNL     1       1.275   8.840  20.574  0.00  0.00    +0.000 A 
ATOM      3  C   UNL     1       1.283   7.487  21.007  0.00  0.00    +0.000 A 
ATOM      4  C   UNL     1       1.856   6.506  20.190  0.00  0.00    +0.000 A 
ATOM      5  C   UNL     1       2.575   6.910  19.061  0.00  0.00    +0.000 A 
ATOM      6  C   UNL     1       2.339   8.163  18.521  0.00  0.00    +0.000 A 
ATOM      7  C   UNL     1       3.202   5.832  18.317  0.00  0.00    +0.000 C 
ATOM      8  C   UNL     1       2.132   5.031  18.184  0.00  0.00    +0.000 C 
ATOM      9  C   UNL     1       1.968   4.017  19.316  0.00  0.00    +0.000 C 
ATOM     10  C   UNL     1       0.813   3.160  20.034  0.00  0.00    +0.000 C 
ATOM     11  C   UNL     1       1.693   3.108  17.986  0.00  0.00    +0.000 C 
ATOM     12  O   UNL     1       1.488   5.153  20.284  0.00  0.00    +0.000 OA
ENDROOT
BRANCH   1  13
ATOM     13  C   UNL     1       1.097  10.283  18.498  0.00  0.00    +0.000 C 
ATOM     14  O   UNL     1       1.794  11.232  18.163  0.00  0.00    +0.000 OA
BRANCH  13  16
ATOM     15  C   UNL     1      -1.068  11.392  18.298  0.00  0.00    +0.000 C 
ATOM     16  C   UNL     1      -0.367  10.252  18.258  0.00  0.00    +0.000 C 
BRANCH  15  19
ATOM     17  C   UNL     1      -4.776  11.952  18.991  0.00  0.00    +0.000 A 
ATOM     18  C   UNL     1      -3.380  11.971  19.138  0.00  0.00    +0.000 A 
ATOM     19  C   UNL     1      -2.528  11.449  18.153  0.00  0.00    +0.000 A 
ATOM     20  C   UNL     1      -3.092  10.974  16.967  0.00  0.00    +0.000 A 
ATOM     21  C   UNL     1      -4.477  10.957  16.801  0.00  0.00    +0.000 A 
ATOM     22  C   UNL     1      -5.317  11.428  17.815  0.00  0.00    +0.000 A 
BRANCH  17  24
ATOM     23  C   UNL     1      -4.689  12.680  21.271  0.00  0.00    +0.000 C 
ATOM     24  O   UNL     1      -5.430  12.465  20.079  0.00  0.00    +0.000 OA
ENDBRANCH  17  24
BRANCH  22  25
ATOM     25  O   UNL     1      -6.668  11.354  17.618  0.00  0.00    +0.000 OA
ATOM     26  H   UNL     1      -6.843  10.851  16.806  0.00  0.00    +0.000 HD
ENDBRANCH  22  25
ENDBRANCH  15  19
ENDBRANCH  13  16
ENDBRANCH   1  13
BRANCH   2  27
ATOM     27  O   UNL     1       0.806   9.762  21.479  0.00  0.00    +0.000 OA
ATOM     28  C   UNL     1      -0.399   9.376  22.156  0.00  0.00    +0.000 C 
ENDBRANCH   2  27
BRANCH   6  29
ATOM     29  O   UNL     1       2.549   8.294  17.170  0.00  0.00    +0.000 OA
ATOM     30  H   UNL     1       2.290   7.432  16.783  0.00  0.00    +0.000 HD
ENDBRANCH   6  29
TORSDOF 7
ENDMDL
MODEL 4
REMARK VINA RESULT:      -7.8      7.142     10.543
REMARK  Name = 
REMARK  11 active torsions:
REMARK  status: ('A' for Active; 'I' for Inactive)
REMARK    1  A    between atoms: C_1  and  O_2
REMARK    2  A    between atoms: O_2  and  C_3
REMARK    3  A    between atoms: C_5  and  C_6
REMARK    4  A    between atoms: C_7  and  C_8
REMARK    5  A    between atoms: C_8  and  C_10
REMARK    6  A    between atoms: C_11  and  O_12
REMARK    7  A    between atoms: O_12  and  C_13
REMARK    8  A    between atoms: C_17  and  O_18
REMARK    9  A    between atoms: C_21  and  C_22
REMARK   10  A    between atoms: C_21  and  C_23
REMARK   11  A    between atoms: C_27  and  O_28
REMARK                            x       y       z     vdW  Elec       q    Type
REMARK                         _______ _______ _______ _____ _____    ______ ____
ROOT
ATOM      1  C   UNL     1       1.091  10.073  19.582  0.00  0.00    +0.000 A 
ATOM      2  C   UNL     1       0.970   9.659  20.921  0.00  0.00    +0.000 A 
ATOM      3  C   UNL     1       1.241   8.305  21.252  0.00  0.00    +0.000 A 
ATOM      4  C   UNL     1       1.802   7.460  20.287  0.00  0.00    +0.000 A 
ATOM      5  C   UNL     1       2.258   8.020  19.090  0.00  0.00    +0.000 A 
ATOM      6  C   UNL     1       1.760   9.246  18.683  0.00  0.00    +0.000 A 
ATOM      7  C   UNL     1       2.897   7.083  18.182  0.00  0.00    +0.000 C 
ATOM      8  C   UNL     1       1.944   6.137  18.165  0.00  0.00    +0.000 C 
ATOM      9  C   UNL     1       2.116   5.059  19.234  0.00  0.00    +0.000 C 
ATOM     10  C   UNL     1       1.230   4.005  20.064  0.00  0.00    +0.000 C 
ATOM     11  C   UNL     1       1.753   4.182  17.905  0.00  0.00    +0.000 C 
ATOM     12  O   UNL     1       1.650   6.064  20.344  0.00  0.00    +0.000 OA
ENDROOT
BRANCH   1  13
ATOM     13  C   UNL     1       0.246  11.153  19.007  0.00  0.00    +0.000 C 
ATOM     14  O   UNL     1       0.741  12.190  18.584  0.00  0.00    +0.000 OA
BRANCH  13  16
ATOM     15  C   UNL     1      -2.047  11.970  18.824  0.00  0.00    +0.000 C 
ATOM     16  C   UNL     1      -1.222  10.943  19.061  0.00  0.00    +0.000 C 
BRANCH  15  19
ATOM     17  C   UNL     1      -5.623  12.222  20.124  0.00  0.00    +0.000 A 
ATOM     18  C   UNL     1      -4.233  12.385  20.023  0.00  0.00    +0.000 A 
ATOM     19  C   UNL     1      -3.508  11.877  18.934  0.00  0.00    +0.000 A 
ATOM     20  C   UNL     1      -4.210  11.265  17.893  0.00  0.00    +0.000 A 
ATOM     21  C   UNL     1      -5.594  11.103  17.973  0.00  0.00    +0.000 A 
ATOM     22  C   UNL     1      -6.296  11.564  19.091  0.00  0.00    +0.000 A 
BRANCH  17  24
ATOM     23  C   UNL     1      -5.240  13.039  22.341  0.00  0.00    +0.000 C 
ATOM     24  O   UNL     1      -6.136  12.747  21.280  0.00  0.00    +0.000 OA
ENDBRANCH  17  24
BRANCH  22  25
ATOM     25  O   UNL     1      -7.645  11.347  19.138  0.00  0.00    +0.000 OA
ATOM     26  H   UNL     1      -7.819  10.401  19.003  0.00  0.00    +0.000 HD
ENDBRANCH  22  25
ENDBRANCH  15  19
ENDBRANCH  13  16
ENDBRANCH   1  13
BRANCH   2  27
ATOM     27  O   UNL     1       0.534  10.457  21.952  0.00  0.00    +0.000 OA
ATOM     28  C   UNL     1      -0.305   9.794  22.909  0.00  0.00    +0.000 C 
ENDBRANCH   2  27
BRANCH   6  29
ATOM     29  O   UNL     1       1.720   9.469  17.329  0.00  0.00    +0.000 OA
ATOM     30  H   UNL     1       1.095  10.214  17.208  0.00  0.00    +0.000 HD
ENDBRANCH   6  29
TORSDOF 7
ENDMDL
MODEL 5
REMARK VINA RESULT:      -7.8      0.692      1.731
REMARK  Name = 
REMARK  11 active torsions:
REMARK  status: ('A' for Active; 'I' for Inactive)
REMARK    1  A    between atoms: C_1  and  O_2
REMARK    2  A    between atoms: O_2  and  C_3
REMARK    3  A    between atoms: C_5  and  C_6
REMARK    4  A    between atoms: C_7  and  C_8
REMARK    5  A    between atoms: C_8  and  C_10
REMARK    6  A    between atoms: C_11  and  O_12
REMARK    7  A    between atoms: O_12  and  C_13
REMARK    8  A    between atoms: C_17  and  O_18
REMARK    9  A    between atoms: C_21  and  C_22
REMARK   10  A    between atoms: C_21  and  C_23
REMARK   11  A    between atoms: C_27  and  O_28
REMARK                            x       y       z     vdW  Elec       q    Type
REMARK                         _______ _______ _______ _____ _____    ______ ____
ROOT
ATOM      1  C   UNL     1       6.246   6.300  17.206  0.00  0.00    +0.000 A 
ATOM      2  C   UNL     1       6.372   5.373  16.155  0.00  0.00    +0.000 A 
ATOM      3  C   UNL     1       5.354   4.401  15.967  0.00  0.00    +0.000 A 
ATOM      4  C   UNL     1       4.164   4.500  16.698  0.00  0.00    +0.000 A 
ATOM      5  C   UNL     1       3.934   5.656  17.449  0.00  0.00    +0.000 A 
ATOM      6  C   UNL     1       5.007   6.443  17.829  0.00  0.00    +0.000 A 
ATOM      7  C   UNL     1       2.641   5.707  18.110  0.00  0.00    +0.000 C 
ATOM      8  C   UNL     1       2.676   4.507  18.713  0.00  0.00    +0.000 C 
ATOM      9  C   UNL     1       2.088   3.372  17.875  0.00  0.00    +0.000 C 
ATOM     10  C   UNL     1       2.204   1.776  17.722  0.00  0.00    +0.000 C 
ATOM     11  C   UNL     1       1.441   3.093  19.349  0.00  0.00    +0.000 C 
ATOM     12  O   UNL     1       3.352   3.380  16.948  0.00  0.00    +0.000 OA
ENDROOT
BRANCH   1  13
ATOM     13  C   UNL     1       7.427   6.862  17.915  0.00  0.00    +0.000 C 
ATOM     14  O   UNL     1       7.979   6.245  18.817  0.00  0.00    +0.000 OA
BRANCH  13  16
ATOM     15  C   UNL     1       8.505   8.995  18.408  0.00  0.00    +0.000 C 
ATOM     16  C   UNL     1       7.834   8.237  17.533  0.00  0.00    +0.000 C 
BRANCH  15  19
ATOM     17  C   UNL     1       8.353  12.694  17.494  0.00  0.00    +0.000 A 
ATOM     18  C   UNL     1       7.951  11.383  17.795  0.00  0.00    +0.000 A 
ATOM     19  C   UNL     1       8.879  10.392  18.150  0.00  0.00    +0.000 A 
ATOM     20  C   UNL     1      10.222  10.750  18.279  0.00  0.00    +0.000 A 
ATOM     21  C   UNL     1      10.637  12.051  17.993  0.00  0.00    +0.000 A 
ATOM     22  C   UNL     1       9.710  13.016  17.585  0.00  0.00    +0.000 A 
BRANCH  17  24
ATOM     23  C   UNL     1       6.890  14.513  18.030  0.00  0.00    +0.000 C 
ATOM     24  O   UNL     1       7.307  13.498  17.128  0.00  0.00    +0.000 OA
ENDBRANCH  17  24
BRANCH  22  25
ATOM     25  O   UNL     1      10.173  14.265  17.280  0.00  0.00    +0.000 OA
ATOM     26  H   UNL     1      11.058  14.377  17.664  0.00  0.00    +0.000 HD
ENDBRANCH  22  25
ENDBRANCH  15  19
ENDBRANCH  13  16
ENDBRANCH   1  13
BRANCH   2  27
ATOM     27  O   UNL     1       7.458   5.282  15.317  0.00  0.00    +0.000 OA
ATOM     28  C   UNL     1       7.171   4.731  14.024  0.00  0.00    +0.000 C 
ENDBRANCH   2  27
BRANCH   6  29
ATOM     29  O   UNL     1       4.864   7.150  18.997  0.00  0.00    +0.000 OA
ATOM     30  H   UNL     1       5.725   7.069  19.456  0.00  0.00    +0.000 HD
ENDBRANCH   6  29
TORSDOF 7
ENDMDL
MODEL 6
REMARK VINA RESULT:      -7.7      5.960      9.105
REMARK  Name = 
REMARK  11 active torsions:
REMARK  status: ('A' for Active; 'I' for Inactive)
REMARK    1  A    between atoms: C_1  and  O_2
REMARK    2  A    between atoms: O_2  and  C_3
REMARK    3  A    between atoms: C_5  and  C_6
REMARK    4  A    between atoms: C_7  and  C_8
REMARK    5  A    between atoms: C_8  and  C_10
REMARK    6  A    between atoms: C_11  and  O_12
REMARK    7  A    between atoms: O_12  and  C_13
REMARK    8  A    between atoms: C_17  and  O_18
REMARK    9  A    between atoms: C_21  and  C_22
REMARK   10  A    between atoms: C_21  and  C_23
REMARK   11  A    between atoms: C_27  and  O_28
REMARK                            x       y       z     vdW  Elec       q    Type
REMARK                         _______ _______ _______ _____ _____    ______ ____
ROOT
ATOM      1  C   UNL     1       0.984  10.559  19.435  0.00  0.00    +0.000 A 
ATOM      2  C   UNL     1       1.497  11.865  19.330  0.00  0.00    +0.000 A 
ATOM      3  C   UNL     1       1.059  12.854  20.250  0.00  0.00    +0.000 A 
ATOM      4  C   UNL     1       0.280  12.475  21.350  0.00  0.00    +0.000 A 
ATOM      5  C   UNL     1       0.118  11.112  21.618  0.00  0.00    +0.000 A 
ATOM      6  C   UNL     1       0.313  10.194  20.601  0.00  0.00    +0.000 A 
ATOM      7  C   UNL     1      -0.636  10.811  22.822  0.00  0.00    +0.000 C 
ATOM      8  C   UNL     1      -1.709  11.584  22.586  0.00  0.00    +0.000 C 
ATOM      9  C   UNL     1      -1.588  13.004  23.139  0.00  0.00    +0.000 C 
ATOM     10  C   UNL     1      -2.169  14.478  22.866  0.00  0.00    +0.000 C 
ATOM     11  C   UNL     1      -3.105  12.584  23.575  0.00  0.00    +0.000 C 
ATOM     12  O   UNL     1      -0.578  13.378  22.000  0.00  0.00    +0.000 OA
ENDROOT
BRANCH   1  13
ATOM     13  C   UNL     1       0.804   9.680  18.248  0.00  0.00    +0.000 C 
ATOM     14  O   UNL     1      -0.252   9.656  17.631  0.00  0.00    +0.000 OA
BRANCH  13  16
ATOM     15  C   UNL     1       2.179   7.713  18.694  0.00  0.00    +0.000 C 
ATOM     16  C   UNL     1       1.935   8.777  17.919  0.00  0.00    +0.000 C 
BRANCH  15  19
ATOM     17  C   UNL     1       5.238   5.987  17.209  0.00  0.00    +0.000 A 
ATOM     18  C   UNL     1       4.195   6.907  17.401  0.00  0.00    +0.000 A 
ATOM     19  C   UNL     1       3.319   6.811  18.494  0.00  0.00    +0.000 A 
ATOM     20  C   UNL     1       3.550   5.817  19.448  0.00  0.00    +0.000 A 
ATOM     21  C   UNL     1       4.588   4.901  19.277  0.00  0.00    +0.000 A 
ATOM     22  C   UNL     1       5.418   4.974  18.154  0.00  0.00    +0.000 A 
BRANCH  17  24
ATOM     23  C   UNL     1       5.804   5.321  14.980  0.00  0.00    +0.000 C 
ATOM     24  O   UNL     1       5.950   6.226  16.064  0.00  0.00    +0.000 OA
ENDBRANCH  17  24
BRANCH  22  25
ATOM     25  O   UNL     1       6.397   4.029  18.014  0.00  0.00    +0.000 OA
ATOM     26  H   UNL     1       6.879   4.192  17.187  0.00  0.00    +0.000 HD
ENDBRANCH  22  25
ENDBRANCH  15  19
ENDBRANCH  13  16
ENDBRANCH   1  13
BRANCH   2  27
ATOM     27  O   UNL     1       2.356  12.293  18.346  0.00  0.00    +0.000 OA
ATOM     28  C   UNL     1       2.691  13.687  18.409  0.00  0.00    +0.000 C 
ENDBRANCH   2  27
BRANCH   6  29
ATOM     29  O   UNL     1      -0.406   9.027  20.684  0.00  0.00    +0.000 OA
ATOM     30  H   UNL     1      -0.702   8.840  19.770  0.00  0.00    +0.000 HD
ENDBRANCH   6  29
TORSDOF 7
ENDMDL
MODEL 7
REMARK VINA RESULT:      -7.7      6.475     10.387
REMARK  Name = 
REMARK  11 active torsions:
REMARK  status: ('A' for Active; 'I' for Inactive)
REMARK    1  A    between atoms: C_1  and  O_2
REMARK    2  A    between atoms: O_2  and  C_3
REMARK    3  A    between atoms: C_5  and  C_6
REMARK    4  A    between atoms: C_7  and  C_8
REMARK    5  A    between atoms: C_8  and  C_10
REMARK    6  A    between atoms: C_11  and  O_12
REMARK    7  A    between atoms: O_12  and  C_13
REMARK    8  A    between atoms: C_17  and  O_18
REMARK    9  A    between atoms: C_21  and  C_22
REMARK   10  A    between atoms: C_21  and  C_23
REMARK   11  A    between atoms: C_27  and  O_28
REMARK                            x       y       z     vdW  Elec       q    Type
REMARK                         _______ _______ _______ _____ _____    ______ ____
ROOT
ATOM      1  C   UNL     1       0.423  10.701  21.338  0.00  0.00    +0.000 A 
ATOM      2  C   UNL     1       0.409  10.938  19.951  0.00  0.00    +0.000 A 
ATOM      3  C   UNL     1      -0.696  11.622  19.379  0.00  0.00    +0.000 A 
ATOM      4  C   UNL     1      -1.649  12.213  20.217  0.00  0.00    +0.000 A 
ATOM      5  C   UNL     1      -1.386  12.278  21.588  0.00  0.00    +0.000 A 
ATOM      6  C   UNL     1      -0.472  11.401  22.146  0.00  0.00    +0.000 A 
ATOM      7  C   UNL     1      -2.391  12.978  22.370  0.00  0.00    +0.000 C 
ATOM      8  C   UNL     1      -3.480  12.331  21.922  0.00  0.00    +0.000 C 
ATOM      9  C   UNL     1      -4.129  12.979  20.699  0.00  0.00    +0.000 C 
ATOM     10  C   UNL     1      -5.052  12.575  19.446  0.00  0.00    +0.000 C 
ATOM     11  C   UNL     1      -5.418  12.639  21.644  0.00  0.00    +0.000 C 
ATOM     12  O   UNL     1      -2.964  12.459  19.787  0.00  0.00    +0.000 OA
ENDROOT
BRANCH   1  13
ATOM     13  C   UNL     1       1.077   9.506  21.933  0.00  0.00    +0.000 C 
ATOM     14  O   UNL     1       1.790   9.599  22.924  0.00  0.00    +0.000 OA
BRANCH  13  16
ATOM     15  C   UNL     1       1.967   7.538  20.795  0.00  0.00    +0.000 C 
ATOM     16  C   UNL     1       0.894   8.224  21.208  0.00  0.00    +0.000 C 
BRANCH  15  19
ATOM     17  C   UNL     1       1.380   3.920  19.743  0.00  0.00    +0.000 A 
ATOM     18  C   UNL     1       1.385   5.096  20.510  0.00  0.00    +0.000 A 
ATOM     19  C   UNL     1       1.884   6.305  20.002  0.00  0.00    +0.000 A 
ATOM     20  C   UNL     1       2.310   6.345  18.673  0.00  0.00    +0.000 A 
ATOM     21  C   UNL     1       2.303   5.188  17.894  0.00  0.00    +0.000 A 
ATOM     22  C   UNL     1       1.856   3.976  18.431  0.00  0.00    +0.000 A 
BRANCH  17  24
ATOM     23  C   UNL     1       1.566   2.443  21.618  0.00  0.00    +0.000 C 
ATOM     24  O   UNL     1       0.895   2.840  20.431  0.00  0.00    +0.000 OA
ENDBRANCH  17  24
BRANCH  22  25
ATOM     25  O   UNL     1       1.904   2.864  17.637  0.00  0.00    +0.000 OA
ATOM     26  H   UNL     1       1.033   2.434  17.640  0.00  0.00    +0.000 HD
ENDBRANCH  22  25
ENDBRANCH  15  19
ENDBRANCH  13  16
ENDBRANCH   1  13
BRANCH   2  27
ATOM     27  O   UNL     1       1.365  10.490  19.071  0.00  0.00    +0.000 OA
ATOM     28  C   UNL     1       0.844   9.874  17.884  0.00  0.00    +0.000 C 
ENDBRANCH   2  27
BRANCH   6  29
ATOM     29  O   UNL     1      -0.674  11.062  23.461  0.00  0.00    +0.000 OA
ATOM     30  H   UNL     1       0.222  10.938  23.836  0.00  0.00    +0.000 HD
ENDBRANCH   6  29
TORSDOF 7
ENDMDL
MODEL 8
REMARK VINA RESULT:      -7.6      5.833      9.254
REMARK  Name = 
REMARK  11 active torsions:
REMARK  status: ('A' for Active; 'I' for Inactive)
REMARK    1  A    between atoms: C_1  and  O_2
REMARK    2  A    between atoms: O_2  and  C_3
REMARK    3  A    between atoms: C_5  and  C_6
REMARK    4  A    between atoms: C_7  and  C_8
REMARK    5  A    between atoms: C_8  and  C_10
REMARK    6  A    between atoms: C_11  and  O_12
REMARK    7  A    between atoms: O_12  and  C_13
REMARK    8  A    between atoms: C_17  and  O_18
REMARK    9  A    between atoms: C_21  and  C_22
REMARK   10  A    between atoms: C_21  and  C_23
REMARK   11  A    between atoms: C_27  and  O_28
REMARK                            x       y       z     vdW  Elec       q    Type
REMARK                         _______ _______ _______ _____ _____    ______ ____
ROOT
ATOM      1  C   UNL     1       1.130  10.538  19.330  0.00  0.00    +0.000 A 
ATOM      2  C   UNL     1       1.554  11.873  19.201  0.00  0.00    +0.000 A 
ATOM      3  C   UNL     1       1.074  12.841  20.123  0.00  0.00    +0.000 A 
ATOM      4  C   UNL     1       0.350  12.423  21.246  0.00  0.00    +0.000 A 
ATOM      5  C   UNL     1       0.284  11.056  21.529  0.00  0.00    +0.000 A 
ATOM      6  C   UNL     1       0.514  10.142  20.515  0.00  0.00    +0.000 A 
ATOM      7  C   UNL     1      -0.420  10.719  22.754  0.00  0.00    +0.000 C 
ATOM      8  C   UNL     1      -1.546  11.418  22.538  0.00  0.00    +0.000 C 
ATOM      9  C   UNL     1      -1.505  12.848  23.076  0.00  0.00    +0.000 C 
ATOM     10  C   UNL     1      -2.188  14.278  22.804  0.00  0.00    +0.000 C 
ATOM     11  C   UNL     1      -2.981  12.334  23.553  0.00  0.00    +0.000 C 
ATOM     12  O   UNL     1      -0.550  13.276  21.908  0.00  0.00    +0.000 OA
ENDROOT
BRANCH   1  13
ATOM     13  C   UNL     1       0.980   9.637  18.156  0.00  0.00    +0.000 C 
ATOM     14  O   UNL     1      -0.075   9.569  17.539  0.00  0.00    +0.000 OA
BRANCH  13  16
ATOM     15  C   UNL     1       2.087   7.461  18.136  0.00  0.00    +0.000 C 
ATOM     16  C   UNL     1       2.140   8.766  17.840  0.00  0.00    +0.000 C 
BRANCH  15  19
ATOM     17  C   UNL     1       4.262   4.329  18.083  0.00  0.00    +0.000 A 
ATOM     18  C   UNL     1       3.147   5.169  18.229  0.00  0.00    +0.000 A 
ATOM     19  C   UNL     1       3.212   6.540  17.935  0.00  0.00    +0.000 A 
ATOM     20  C   UNL     1       4.400   7.053  17.410  0.00  0.00    +0.000 A 
ATOM     21  C   UNL     1       5.515   6.231  17.250  0.00  0.00    +0.000 A 
ATOM     22  C   UNL     1       5.453   4.878  17.601  0.00  0.00    +0.000 A 
BRANCH  17  24
ATOM     23  C   UNL     1       4.248   2.676  19.815  0.00  0.00    +0.000 C 
ATOM     24  O   UNL     1       4.008   3.039  18.464  0.00  0.00    +0.000 OA
ENDBRANCH  17  24
BRANCH  22  25
ATOM     25  O   UNL     1       6.585   4.124  17.459  0.00  0.00    +0.000 OA
ATOM     26  H   UNL     1       6.636   3.488  18.192  0.00  0.00    +0.000 HD
ENDBRANCH  22  25
ENDBRANCH  15  19
ENDBRANCH  13  16
ENDBRANCH   1  13
BRANCH   2  27
ATOM     27  O   UNL     1       2.359  12.346  18.192  0.00  0.00    +0.000 OA
ATOM     28  C   UNL     1       2.950  13.628  18.450  0.00  0.00    +0.000 C 
ENDBRANCH   2  27
BRANCH   6  29
ATOM     29  O   UNL     1      -0.125   8.931  20.628  0.00  0.00    +0.000 OA
ATOM     30  H   UNL     1      -0.145   8.565  19.720  0.00  0.00    +0.000 HD
ENDBRANCH   6  29
TORSDOF 7
ENDMDL
MODEL 9
REMARK VINA RESULT:      -7.5      4.807      6.693
REMARK  Name = 
REMARK  11 active torsions:
REMARK  status: ('A' for Active; 'I' for Inactive)
REMARK    1  A    between atoms: C_1  and  O_2
REMARK    2  A    between atoms: O_2  and  C_3
REMARK    3  A    between atoms: C_5  and  C_6
REMARK    4  A    between atoms: C_7  and  C_8
REMARK    5  A    between atoms: C_8  and  C_10
REMARK    6  A    between atoms: C_11  and  O_12
REMARK    7  A    between atoms: O_12  and  C_13
REMARK    8  A    between atoms: C_17  and  O_18
REMARK    9  A    between atoms: C_21  and  C_22
REMARK   10  A    between atoms: C_21  and  C_23
REMARK   11  A    between atoms: C_27  and  O_28
REMARK                            x       y       z     vdW  Elec       q    Type
REMARK                         _______ _______ _______ _____ _____    ______ ____
ROOT
ATOM      1  C   UNL     1       1.056   9.654  19.482  0.00  0.00    +0.000 A 
ATOM      2  C   UNL     1       0.827   9.273  20.817  0.00  0.00    +0.000 A 
ATOM      3  C   UNL     1       1.096   7.934  21.209  0.00  0.00    +0.000 A 
ATOM      4  C   UNL     1       1.757   7.077  20.321  0.00  0.00    +0.000 A 
ATOM      5  C   UNL     1       2.304   7.615  19.153  0.00  0.00    +0.000 A 
ATOM      6  C   UNL     1       1.819   8.818  18.669  0.00  0.00    +0.000 A 
ATOM      7  C   UNL     1       3.040   6.670  18.332  0.00  0.00    +0.000 C 
ATOM      8  C   UNL     1       2.112   5.702  18.258  0.00  0.00    +0.000 C 
ATOM      9  C   UNL     1       2.212   4.657  19.369  0.00  0.00    +0.000 C 
ATOM     10  C   UNL     1       1.278   3.606  20.149  0.00  0.00    +0.000 C 
ATOM     11  C   UNL     1       1.985   3.736  18.039  0.00  0.00    +0.000 C 
ATOM     12  O   UNL     1       1.629   5.680  20.404  0.00  0.00    +0.000 OA
ENDROOT
BRANCH   1  13
ATOM     13  C   UNL     1       0.243  10.698  18.804  0.00  0.00    +0.000 C 
ATOM     14  O   UNL     1      -0.718  10.401  18.106  0.00  0.00    +0.000 OA
BRANCH  13  16
ATOM     15  C   UNL     1       1.882  12.460  18.397  0.00  0.00    +0.000 C 
ATOM     16  C   UNL     1       0.716  12.098  18.945  0.00  0.00    +0.000 C 
BRANCH  15  19
ATOM     17  C   UNL     1       4.351  15.365  18.475  0.00  0.00    +0.000 A 
ATOM     18  C   UNL     1       3.809  14.089  18.255  0.00  0.00    +0.000 A 
ATOM     19  C   UNL     1       2.468  13.797  18.551  0.00  0.00    +0.000 A 
ATOM     20  C   UNL     1       1.644  14.831  19.001  0.00  0.00    +0.000 A 
ATOM     21  C   UNL     1       2.165  16.107  19.216  0.00  0.00    +0.000 A 
ATOM     22  C   UNL     1       3.517  16.370  18.971  0.00  0.00    +0.000 A 
BRANCH  17  24
ATOM     23  C   UNL     1       6.627  15.229  19.206  0.00  0.00    +0.000 C 
ATOM     24  O   UNL     1       5.683  15.435  18.166  0.00  0.00    +0.000 OA
ENDBRANCH  17  24
BRANCH  22  25
ATOM     25  O   UNL     1       3.986  17.627  19.233  0.00  0.00    +0.000 OA
ATOM     26  H   UNL     1       3.566  18.256  18.623  0.00  0.00    +0.000 HD
ENDBRANCH  22  25
ENDBRANCH  15  19
ENDBRANCH  13  16
ENDBRANCH   1  13
BRANCH   2  27
ATOM     27  O   UNL     1       0.285  10.088  21.782  0.00  0.00    +0.000 OA
ATOM     28  C   UNL     1       0.127   9.470  23.068  0.00  0.00    +0.000 C 
ENDBRANCH   2  27
BRANCH   6  29
ATOM     29  O   UNL     1       1.894   9.004  17.310  0.00  0.00    +0.000 OA
ATOM     30  H   UNL     1       2.185   9.932  17.193  0.00  0.00    +0.000 HD
ENDBRANCH   6  29
TORSDOF 7
ENDMDL
