MODEL 1
REMARK VINA RESULT:      -6.6      0.000      0.000
REMARK  Name = 
REMARK  6 active torsions:
REMARK  status: ('A' for Active; 'I' for Inactive)
REMARK    1  A    between atoms: C_1  and  C_2
REMARK    2  A    between atoms: C_3  and  C_4
REMARK    3  A    between atoms: C_4  and  N_5
REMARK    4  A    between atoms: N_5  and  C_6
REMARK    5  A    between atoms: N_5  and  C_7
REMARK    6  A    between atoms: C_7  and  C_8
REMARK                            x       y       z     vdW  Elec       q    Type
REMARK                         _______ _______ _______ _____ _____    ______ ____
ROOT
ATOM      1  C   UNL     1       3.617   4.204  18.041  0.00  0.00    +0.000 A 
ATOM      2  C   UNL     1       3.389   2.974  17.380  0.00  0.00    +0.000 A 
ATOM      3  C   UNL     1       2.327   2.132  17.774  0.00  0.00    +0.000 A 
ATOM      4  C   UNL     1       1.481   2.501  18.834  0.00  0.00    +0.000 A 
ATOM      5  C   UNL     1       1.733   3.711  19.474  0.00  0.00    +0.000 A 
ATOM      6  C   UNL     1       1.087   4.335  20.511  0.00  0.00    +0.000 A 
ATOM      7  C   UNL     1       1.783   5.521  20.707  0.00  0.00    +0.000 A 
ATOM      8  O   UNL     1       2.781   5.610  19.845  0.00  0.00    +0.000 OA
ATOM      9  C   UNL     1       2.763   4.529  19.100  0.00  0.00    +0.000 A 
ENDROOT
BRANCH   1  10
ATOM     10  C   UNL     1       4.713   5.150  17.597  0.00  0.00    +0.000 C 
BRANCH  10  11
ATOM     11  N   UNL     1       6.069   4.689  17.983  0.00  0.00    +0.000 NA
ATOM     12  C   UNL     1       6.569   5.424  19.162  0.00  0.00    +0.000 C 
BRANCH  11  13
ATOM     13  C   UNL     1       7.019   4.730  16.850  0.00  0.00    +0.000 C 
BRANCH  13  16
ATOM     14  C   UNL     1       6.046   3.759  13.245  0.00  0.00    +0.000 C 
ATOM     15  C   UNL     1       6.608   4.500  14.414  0.00  0.00    +0.000 C 
ATOM     16  C   UNL     1       6.491   4.000  15.648  0.00  0.00    +0.000 C 
ENDBRANCH  13  16
ENDBRANCH  11  13
ENDBRANCH  10  11
ENDBRANCH   1  10
TORSDOF 4
ENDMDL
MODEL 2
REMARK VINA RESULT:      -6.5      1.585      2.591
REMARK  Name = 
REMARK  6 active torsions:
REMARK  status: ('A' for Active; 'I' for Inactive)
REMARK    1  A    between atoms: C_1  and  C_2
REMARK    2  A    between atoms: C_3  and  C_4
REMARK    3  A    between atoms: C_4  and  N_5
REMARK    4  A    between atoms: N_5  and  C_6
REMARK    5  A    between atoms: N_5  and  C_7
REMARK    6  A    between atoms: C_7  and  C_8
REMARK                            x       y       z     vdW  Elec       q    Type
REMARK                         _______ _______ _______ _____ _____    ______ ____
ROOT
ATOM      1  C   UNL     1       3.497   4.430  17.878  0.00  0.00    +0.000 A 
ATOM      2  C   UNL     1       3.410   3.204  17.177  0.00  0.00    +0.000 A 
ATOM      3  C   UNL     1       2.507   2.201  17.592  0.00  0.00    +0.000 A 
ATOM      4  C   UNL     1       1.682   2.405  18.710  0.00  0.00    +0.000 A 
ATOM      5  C   UNL     1       1.794   3.616  19.388  0.00  0.00    +0.000 A 
ATOM      6  C   UNL     1       1.127   4.101  20.485  0.00  0.00    +0.000 A 
ATOM      7  C   UNL     1       1.655   5.369  20.693  0.00  0.00    +0.000 A 
ATOM      8  O   UNL     1       2.576   5.634  19.784  0.00  0.00    +0.000 OA
ATOM      9  C   UNL     1       2.670   4.589  18.994  0.00  0.00    +0.000 A 
ENDROOT
BRANCH   1  10
ATOM     10  C   UNL     1       4.416   5.542  17.416  0.00  0.00    +0.000 C 
BRANCH  10  11
ATOM     11  N   UNL     1       5.843   5.281  17.727  0.00  0.00    +0.000 NA
ATOM     12  C   UNL     1       6.100   5.367  19.178  0.00  0.00    +0.000 C 
BRANCH  11  13
ATOM     13  C   UNL     1       6.754   6.143  16.941  0.00  0.00    +0.000 C 
BRANCH  13  16
ATOM     14  C   UNL     1       8.600   9.184  18.436  0.00  0.00    +0.000 C 
ATOM     15  C   UNL     1       7.747   8.333  17.551  0.00  0.00    +0.000 C 
ATOM     16  C   UNL     1       7.581   7.035  17.822  0.00  0.00    +0.000 C 
ENDBRANCH  13  16
ENDBRANCH  11  13
ENDBRANCH  10  11
ENDBRANCH   1  10
TORSDOF 4
ENDMDL
MODEL 3
REMARK VINA RESULT:      -6.3      1.672      3.133
REMARK  Name = 
REMARK  6 active torsions:
REMARK  status: ('A' for Active; 'I' for Inactive)
REMARK    1  A    between atoms: C_1  and  C_2
REMARK    2  A    between atoms: C_3  and  C_4
REMARK    3  A    between atoms: C_4  and  N_5
REMARK    4  A    between atoms: N_5  and  C_6
REMARK    5  A    between atoms: N_5  and  C_7
REMARK    6  A    between atoms: C_7  and  C_8
REMARK                            x       y       z     vdW  Elec       q    Type
REMARK                         _______ _______ _______ _____ _____    ______ ____
ROOT
ATOM      1  C   UNL     1       3.203   4.804  18.081  0.00  0.00    +0.000 A 
ATOM      2  C   UNL     1       3.135   6.217  18.094  0.00  0.00    +0.000 A 
ATOM      3  C   UNL     1       2.513   6.898  19.163  0.00  0.00    +0.000 A 
ATOM      4  C   UNL     1       1.946   6.181  20.230  0.00  0.00    +0.000 A 
ATOM      5  C   UNL     1       2.017   4.791  20.187  0.00  0.00    +0.000 A 
ATOM      6  C   UNL     1       1.575   3.838  21.070  0.00  0.00    +0.000 A 
ATOM      7  C   UNL     1       1.940   2.624  20.501  0.00  0.00    +0.000 A 
ATOM      8  O   UNL     1       2.562   2.829  19.353  0.00  0.00    +0.000 OA
ATOM      9  C   UNL     1       2.614   4.126  19.153  0.00  0.00    +0.000 A 
ENDROOT
BRANCH   1  10
ATOM     10  C   UNL     1       3.917   4.056  16.975  0.00  0.00    +0.000 C 
BRANCH  10  11
ATOM     11  N   UNL     1       5.294   4.554  16.733  0.00  0.00    +0.000 NA
ATOM     12  C   UNL     1       5.924   3.857  15.595  0.00  0.00    +0.000 C 
BRANCH  11  13
ATOM     13  C   UNL     1       6.129   4.509  17.954  0.00  0.00    +0.000 C 
BRANCH  13  16
ATOM     14  C   UNL     1       7.780   7.977  17.591  0.00  0.00    +0.000 C 
ATOM     15  C   UNL     1       6.784   6.864  17.535  0.00  0.00    +0.000 C 
ATOM     16  C   UNL     1       7.094   5.658  18.018  0.00  0.00    +0.000 C 
ENDBRANCH  13  16
ENDBRANCH  11  13
ENDBRANCH  10  11
ENDBRANCH   1  10
TORSDOF 4
ENDMDL
MODEL 4
REMARK VINA RESULT:      -6.3      1.834      3.387
REMARK  Name = 
REMARK  6 active torsions:
REMARK  status: ('A' for Active; 'I' for Inactive)
REMARK    1  A    between atoms: C_1  and  C_2
REMARK    2  A    between atoms: C_3  and  C_4
REMARK    3  A    between atoms: C_4  and  N_5
REMARK    4  A    between atoms: N_5  and  C_6
REMARK    5  A    between atoms: N_5  and  C_7
REMARK    6  A    between atoms: C_7  and  C_8
REMARK                            x       y       z     vdW  Elec       q    Type
REMARK                         _______ _______ _______ _____ _____    ______ ____
ROOT
ATOM      1  C   UNL     1       3.045   5.437  18.751  0.00  0.00    +0.000 A 
ATOM      2  C   UNL     1       2.487   6.111  19.863  0.00  0.00    +0.000 A 
ATOM      3  C   UNL     1       1.524   5.478  20.678  0.00  0.00    +0.000 A 
ATOM      4  C   UNL     1       1.101   4.169  20.395  0.00  0.00    +0.000 A 
ATOM      5  C   UNL     1       1.658   3.532  19.290  0.00  0.00    +0.000 A 
ATOM      6  C   UNL     1       1.458   2.274  18.778  0.00  0.00    +0.000 A 
ATOM      7  C   UNL     1       2.300   2.198  17.675  0.00  0.00    +0.000 A 
ATOM      8  O   UNL     1       2.964   3.331  17.531  0.00  0.00    +0.000 OA
ATOM      9  C   UNL     1       2.588   4.141  18.493  0.00  0.00    +0.000 A 
ENDROOT
BRANCH   1  10
ATOM     10  C   UNL     1       4.122   6.074  17.898  0.00  0.00    +0.000 C 
BRANCH  10  11
ATOM     11  N   UNL     1       5.399   5.320  17.918  0.00  0.00    +0.000 NA
ATOM     12  C   UNL     1       5.865   5.092  19.301  0.00  0.00    +0.000 C 
BRANCH  11  13
ATOM     13  C   UNL     1       6.436   5.950  17.072  0.00  0.00    +0.000 C 
BRANCH  13  16
ATOM     14  C   UNL     1       8.493   9.016  18.193  0.00  0.00    +0.000 C 
ATOM     15  C   UNL     1       7.605   8.113  17.399  0.00  0.00    +0.000 C 
ATOM     16  C   UNL     1       7.303   6.894  17.855  0.00  0.00    +0.000 C 
ENDBRANCH  13  16
ENDBRANCH  11  13
ENDBRANCH  10  11
ENDBRANCH   1  10
TORSDOF 4
ENDMDL
MODEL 5
REMARK VINA RESULT:      -6.3      1.876      3.398
REMARK  Name = 
REMARK  6 active torsions:
REMARK  status: ('A' for Active; 'I' for Inactive)
REMARK    1  A    between atoms: C_1  and  C_2
REMARK    2  A    between atoms: C_3  and  C_4
REMARK    3  A    between atoms: C_4  and  N_5
REMARK    4  A    between atoms: N_5  and  C_6
REMARK    5  A    between atoms: N_5  and  C_7
REMARK    6  A    between atoms: C_7  and  C_8
REMARK                            x       y       z     vdW  Elec       q    Type
REMARK                         _______ _______ _______ _____ _____    ______ ____
ROOT
ATOM      1  C   UNL     1       3.857   4.619  18.946  0.00  0.00    +0.000 A 
ATOM      2  C   UNL     1       3.640   5.920  19.456  0.00  0.00    +0.000 A 
ATOM      3  C   UNL     1       2.438   6.241  20.122  0.00  0.00    +0.000 A 
ATOM      4  C   UNL     1       1.434   5.271  20.286  0.00  0.00    +0.000 A 
ATOM      5  C   UNL     1       1.669   4.001  19.766  0.00  0.00    +0.000 A 
ATOM      6  C   UNL     1       0.900   2.864  19.780  0.00  0.00    +0.000 A 
ATOM      7  C   UNL     1       1.661   1.908  19.120  0.00  0.00    +0.000 A 
ATOM      8  O   UNL     1       2.813   2.429  18.735  0.00  0.00    +0.000 OA
ATOM      9  C   UNL     1       2.830   3.686  19.116  0.00  0.00    +0.000 A 
ENDROOT
BRANCH   1  10
ATOM     10  C   UNL     1       5.163   4.237  18.280  0.00  0.00    +0.000 C 
BRANCH  10  11
ATOM     11  N   UNL     1       5.765   5.349  17.504  0.00  0.00    +0.000 NA
ATOM     12  C   UNL     1       5.310   5.331  16.100  0.00  0.00    +0.000 C 
BRANCH  11  13
ATOM     13  C   UNL     1       7.240   5.377  17.617  0.00  0.00    +0.000 C 
BRANCH  13  16
ATOM     14  C   UNL     1       8.240   9.071  18.109  0.00  0.00    +0.000 C 
ATOM     15  C   UNL     1       7.714   7.809  17.504  0.00  0.00    +0.000 C 
ATOM     16  C   UNL     1       7.734   6.669  18.201  0.00  0.00    +0.000 C 
ENDBRANCH  13  16
ENDBRANCH  11  13
ENDBRANCH  10  11
ENDBRANCH   1  10
TORSDOF 4
ENDMDL
MODEL 6
REMARK VINA RESULT:      -6.2      0.852      1.000
REMARK  Name = 
REMARK  6 active torsions:
REMARK  status: ('A' for Active; 'I' for Inactive)
REMARK    1  A    between atoms: C_1  and  C_2
REMARK    2  A    between atoms: C_3  and  C_4
REMARK    3  A    between atoms: C_4  and  N_5
REMARK    4  A    between atoms: N_5  and  C_6
REMARK    5  A    between atoms: N_5  and  C_7
REMARK    6  A    between atoms: C_7  and  C_8
REMARK                            x       y       z     vdW  Elec       q    Type
REMARK                         _______ _______ _______ _____ _____    ______ ____
ROOT
ATOM      1  C   UNL     1       3.772   4.059  17.725  0.00  0.00    +0.000 A 
ATOM      2  C   UNL     1       3.633   2.655  17.617  0.00  0.00    +0.000 A 
ATOM      3  C   UNL     1       2.800   1.943  18.507  0.00  0.00    +0.000 A 
ATOM      4  C   UNL     1       2.098   2.618  19.519  0.00  0.00    +0.000 A 
ATOM      5  C   UNL     1       2.260   3.998  19.611  0.00  0.00    +0.000 A 
ATOM      6  C   UNL     1       1.707   4.916  20.469  0.00  0.00    +0.000 A 
ATOM      7  C   UNL     1       2.230   6.140  20.069  0.00  0.00    +0.000 A 
ATOM      8  O   UNL     1       3.041   5.974  19.039  0.00  0.00    +0.000 OA
ATOM      9  C   UNL     1       3.069   4.693  18.754  0.00  0.00    +0.000 A 
ENDROOT
BRANCH   1  10
ATOM     10  C   UNL     1       4.613   4.849  16.745  0.00  0.00    +0.000 C 
BRANCH  10  11
ATOM     11  N   UNL     1       6.070   4.638  16.929  0.00  0.00    +0.000 NA
ATOM     12  C   UNL     1       6.669   5.712  17.747  0.00  0.00    +0.000 C 
BRANCH  11  13
ATOM     13  C   UNL     1       6.776   4.451  15.642  0.00  0.00    +0.000 C 
BRANCH  13  16
ATOM     14  C   UNL     1       5.308   3.406  12.230  0.00  0.00    +0.000 C 
ATOM     15  C   UNL     1       6.272   3.803  13.301  0.00  0.00    +0.000 C 
ATOM     16  C   UNL     1       5.841   4.025  14.546  0.00  0.00    +0.000 C 
ENDBRANCH  13  16
ENDBRANCH  11  13
ENDBRANCH  10  11
ENDBRANCH   1  10
TORSDOF 4
ENDMDL
MODEL 7
REMARK VINA RESULT:      -6.2      1.319      2.370
REMARK  Name = 
REMARK  6 active torsions:
REMARK  status: ('A' for Active; 'I' for Inactive)
REMARK    1  A    between atoms: C_1  and  C_2
REMARK    2  A    between atoms: C_3  and  C_4
REMARK    3  A    between atoms: C_4  and  N_5
REMARK    4  A    between atoms: N_5  and  C_6
REMARK    5  A    between atoms: N_5  and  C_7
REMARK    6  A    between atoms: C_7  and  C_8
REMARK                            x       y       z     vdW  Elec       q    Type
REMARK                         _______ _______ _______ _____ _____    ______ ____
ROOT
ATOM      1  C   UNL     1       3.517   5.239  18.152  0.00  0.00    +0.000 A 
ATOM      2  C   UNL     1       2.995   6.245  18.999  0.00  0.00    +0.000 A 
ATOM      3  C   UNL     1       2.138   5.910  20.070  0.00  0.00    +0.000 A 
ATOM      4  C   UNL     1       1.787   4.571  20.309  0.00  0.00    +0.000 A 
ATOM      5  C   UNL     1       2.306   3.602  19.455  0.00  0.00    +0.000 A 
ATOM      6  C   UNL     1       2.156   2.238  19.442  0.00  0.00    +0.000 A 
ATOM      7  C   UNL     1       2.920   1.803  18.366  0.00  0.00    +0.000 A 
ATOM      8  O   UNL     1       3.493   2.834  17.770  0.00  0.00    +0.000 OA
ATOM      9  C   UNL     1       3.132   3.920  18.413  0.00  0.00    +0.000 A 
ENDROOT
BRANCH   1  10
ATOM     10  C   UNL     1       4.484   5.568  17.034  0.00  0.00    +0.000 C 
BRANCH  10  11
ATOM     11  N   UNL     1       5.897   5.618  17.486  0.00  0.00    +0.000 NA
ATOM     12  C   UNL     1       6.486   6.952  17.256  0.00  0.00    +0.000 C 
BRANCH  11  13
ATOM     13  C   UNL     1       6.712   4.533  16.896  0.00  0.00    +0.000 C 
BRANCH  13  16
ATOM     14  C   UNL     1       5.938   3.732  13.202  0.00  0.00    +0.000 C 
ATOM     15  C   UNL     1       6.594   4.271  14.432  0.00  0.00    +0.000 C 
ATOM     16  C   UNL     1       6.097   3.987  15.640  0.00  0.00    +0.000 C 
ENDBRANCH  13  16
ENDBRANCH  11  13
ENDBRANCH  10  11
ENDBRANCH   1  10
TORSDOF 4
ENDMDL
MODEL 8
REMARK VINA RESULT:      -6.2      1.173      1.272
REMARK  Name = 
REMARK  6 active torsions:
REMARK  status: ('A' for Active; 'I' for Inactive)
REMARK    1  A    between atoms: C_1  and  C_2
REMARK    2  A    between atoms: C_3  and  C_4
REMARK    3  A    between atoms: C_4  and  N_5
REMARK    4  A    between atoms: N_5  and  C_6
REMARK    5  A    between atoms: N_5  and  C_7
REMARK    6  A    between atoms: C_7  and  C_8
REMARK                            x       y       z     vdW  Elec       q    Type
REMARK                         _______ _______ _______ _____ _____    ______ ____
ROOT
ATOM      1  C   UNL     1       3.158   4.278  18.375  0.00  0.00    +0.000 A 
ATOM      2  C   UNL     1       2.986   3.327  17.342  0.00  0.00    +0.000 A 
ATOM      3  C   UNL     1       2.336   2.100  17.595  0.00  0.00    +0.000 A 
ATOM      4  C   UNL     1       1.851   1.803  18.879  0.00  0.00    +0.000 A 
ATOM      5  C   UNL     1       2.041   2.751  19.880  0.00  0.00    +0.000 A 
ATOM      6  C   UNL     1       1.676   2.753  21.203  0.00  0.00    +0.000 A 
ATOM      7  C   UNL     1       2.123   3.972  21.697  0.00  0.00    +0.000 A 
ATOM      8  O   UNL     1       2.717   4.662  20.739  0.00  0.00    +0.000 OA
ATOM      9  C   UNL     1       2.675   3.940  19.643  0.00  0.00    +0.000 A 
ENDROOT
BRANCH   1  10
ATOM     10  C   UNL     1       3.800   5.624  18.113  0.00  0.00    +0.000 C 
BRANCH  10  11
ATOM     11  N   UNL     1       5.204   5.515  17.642  0.00  0.00    +0.000 NA
ATOM     12  C   UNL     1       6.155   5.613  18.766  0.00  0.00    +0.000 C 
BRANCH  11  13
ATOM     13  C   UNL     1       5.509   6.479  16.561  0.00  0.00    +0.000 C 
BRANCH  13  16
ATOM     14  C   UNL     1       5.962   3.848  13.774  0.00  0.00    +0.000 C 
ATOM     15  C   UNL     1       5.812   4.483  15.120  0.00  0.00    +0.000 C 
ATOM     16  C   UNL     1       5.635   5.803  15.226  0.00  0.00    +0.000 C 
ENDBRANCH  13  16
ENDBRANCH  11  13
ENDBRANCH  10  11
ENDBRANCH   1  10
TORSDOF 4
ENDMDL
MODEL 9
REMARK VINA RESULT:      -6.2      2.091      4.929
REMARK  Name = 
REMARK  6 active torsions:
REMARK  status: ('A' for Active; 'I' for Inactive)
REMARK    1  A    between atoms: C_1  and  C_2
REMARK    2  A    between atoms: C_3  and  C_4
REMARK    3  A    between atoms: C_4  and  N_5
REMARK    4  A    between atoms: N_5  and  C_6
REMARK    5  A    between atoms: N_5  and  C_7
REMARK    6  A    between atoms: C_7  and  C_8
REMARK                            x       y       z     vdW  Elec       q    Type
REMARK                         _______ _______ _______ _____ _____    ______ ____
ROOT
ATOM      1  C   UNL     1       4.694   3.826  18.393  0.00  0.00    +0.000 A 
ATOM      2  C   UNL     1       4.282   3.636  17.053  0.00  0.00    +0.000 A 
ATOM      3  C   UNL     1       4.989   4.239  15.990  0.00  0.00    +0.000 A 
ATOM      4  C   UNL     1       6.113   5.042  16.248  0.00  0.00    +0.000 A 
ATOM      5  C   UNL     1       6.491   5.221  17.576  0.00  0.00    +0.000 A 
ATOM      6  C   UNL     1       7.531   5.925  18.131  0.00  0.00    +0.000 A 
ATOM      7  C   UNL     1       7.408   5.725  19.501  0.00  0.00    +0.000 A 
ATOM      8  O   UNL     1       6.367   4.952  19.757  0.00  0.00    +0.000 OA
ATOM      9  C   UNL     1       5.807   4.643  18.610  0.00  0.00    +0.000 A 
ENDROOT
BRANCH   1  10
ATOM     10  C   UNL     1       3.986   3.141  19.543  0.00  0.00    +0.000 C 
BRANCH  10  11
ATOM     11  N   UNL     1       3.087   4.051  20.296  0.00  0.00    +0.000 NA
ATOM     12  C   UNL     1       2.459   3.360  21.439  0.00  0.00    +0.000 C 
BRANCH  11  13
ATOM     13  C   UNL     1       2.093   4.708  19.419  0.00  0.00    +0.000 C 
BRANCH  13  16
ATOM     14  C   UNL     1       2.787   8.198  17.926  0.00  0.00    +0.000 C 
ATOM     15  C   UNL     1       2.483   6.739  18.050  0.00  0.00    +0.000 C 
ATOM     16  C   UNL     1       2.370   6.175  19.256  0.00  0.00    +0.000 C 
ENDBRANCH  13  16
ENDBRANCH  11  13
ENDBRANCH  10  11
ENDBRANCH   1  10
TORSDOF 4
ENDMDL
