MODEL 1
REMARK VINA RESULT:      -7.1      0.000      0.000
REMARK  Name = 
REMARK  7 active torsions:
REMARK  status: ('A' for Active; 'I' for Inactive)
REMARK    1  A    between atoms: C_1  and  N_2
REMARK    2  A    between atoms: N_2  and  C_3
REMARK    3  A    between atoms: N_2  and  C_4
REMARK    4  A    between atoms: C_7  and  C_8
REMARK    5  A    between atoms: N_9  and  N_10
REMARK    6  A    between atoms: C_11  and  C_13
REMARK    7  A    between atoms: C_13  and  N_14
REMARK                            x       y       z     vdW  Elec       q    Type
REMARK                         _______ _______ _______ _____ _____    ______ ____
ROOT
ATOM      1  C   UNL     1       8.040   9.140  17.801  0.00  0.00    +0.000 C 
ATOM      2  N   UNL     1       8.264   7.950  18.261  0.00  0.00    +0.000 NA
ENDROOT
BRANCH   1   6
ATOM      3  C   UNL     1      10.088  12.572  19.482  0.00  0.00    +0.000 A 
ATOM      4  C   UNL     1       9.381  12.642  18.269  0.00  0.00    +0.000 A 
ATOM      5  C   UNL     1       8.725  11.533  17.721  0.00  0.00    +0.000 A 
ATOM      6  C   UNL     1       8.743  10.309  18.385  0.00  0.00    +0.000 A 
ATOM      7  C   UNL     1       9.413  10.200  19.599  0.00  0.00    +0.000 A 
ATOM      8  C   UNL     1      10.074  11.322  20.131  0.00  0.00    +0.000 A 
BRANCH   3  10
ATOM      9  C   UNL     1      12.078  14.049  19.553  0.00  0.00    +0.000 C 
ATOM     10  N   UNL     1      10.742  13.678  20.017  0.00  0.00    +0.000 N 
ATOM     11  C   UNL     1      10.307  14.245  21.289  0.00  0.00    +0.000 C 
ENDBRANCH   3  10
ENDBRANCH   1   6
BRANCH   2  12
ATOM     12  N   UNL     1       7.597   6.898  17.716  0.00  0.00    +0.000 N 
ATOM     13  C   UNL     1       7.556   5.727  18.467  0.00  0.00    +0.000 C 
ATOM     14  O   UNL     1       8.088   5.592  19.570  0.00  0.00    +0.000 OA
ATOM     15  H   UNL     1       7.125   7.031  16.827  0.00  0.00    +0.000 HD
BRANCH  13  16
ATOM     16  C   UNL     1       6.821   4.559  17.843  0.00  0.00    +0.000 C 
BRANCH  16  17
ATOM     17  N   UNL     1       5.362   4.630  18.119  0.00  0.00    +0.000 N 
ATOM     18  C   UNL     1       4.474   4.089  17.245  0.00  0.00    +0.000 A 
ATOM     19  C   UNL     1       3.104   4.198  17.460  0.00  0.00    +0.000 A 
ATOM     20  C   UNL     1       2.642   4.848  18.596  0.00  0.00    +0.000 A 
ATOM     21  C   UNL     1       3.559   5.358  19.505  0.00  0.00    +0.000 A 
ATOM     22  C   UNL     1       4.920   5.235  19.248  0.00  0.00    +0.000 A 
ENDBRANCH  16  17
ENDBRANCH  13  16
ENDBRANCH   2  12
TORSDOF 5
ENDMDL
MODEL 2
REMARK VINA RESULT:      -7.0      1.787      2.195
REMARK  Name = 
REMARK  7 active torsions:
REMARK  status: ('A' for Active; 'I' for Inactive)
REMARK    1  A    between atoms: C_1  and  N_2
REMARK    2  A    between atoms: N_2  and  C_3
REMARK    3  A    between atoms: N_2  and  C_4
REMARK    4  A    between atoms: C_7  and  C_8
REMARK    5  A    between atoms: N_9  and  N_10
REMARK    6  A    between atoms: C_11  and  C_13
REMARK    7  A    between atoms: C_13  and  N_14
REMARK                            x       y       z     vdW  Elec       q    Type
REMARK                         _______ _______ _______ _____ _____    ______ ____
ROOT
ATOM      1  C   UNL     1       9.391   9.968  19.086  0.00  0.00    +0.000 C 
ATOM      2  N   UNL     1       8.619   9.200  18.384  0.00  0.00    +0.000 NA
ENDROOT
BRANCH   1   6
ATOM      3  C   UNL     1      10.098  14.063  17.851  0.00  0.00    +0.000 A 
ATOM      4  C   UNL     1       9.168  13.734  18.852  0.00  0.00    +0.000 A 
ATOM      5  C   UNL     1       8.933  12.411  19.247  0.00  0.00    +0.000 A 
ATOM      6  C   UNL     1       9.641  11.366  18.657  0.00  0.00    +0.000 A 
ATOM      7  C   UNL     1      10.585  11.649  17.677  0.00  0.00    +0.000 A 
ATOM      8  C   UNL     1      10.803  12.983  17.286  0.00  0.00    +0.000 A 
BRANCH   3  10
ATOM      9  C   UNL     1      11.667  15.832  17.103  0.00  0.00    +0.000 C 
ATOM     10  N   UNL     1      10.322  15.380  17.459  0.00  0.00    +0.000 N 
ATOM     11  C   UNL     1       9.340  16.415  17.763  0.00  0.00    +0.000 C 
ENDBRANCH   3  10
ENDBRANCH   1   6
BRANCH   2  12
ATOM     12  N   UNL     1       8.418   7.920  18.793  0.00  0.00    +0.000 N 
ATOM     13  C   UNL     1       7.741   7.082  17.912  0.00  0.00    +0.000 C 
ATOM     14  O   UNL     1       7.317   7.431  16.809  0.00  0.00    +0.000 OA
ATOM     15  H   UNL     1       8.807   7.627  19.684  0.00  0.00    +0.000 HD
BRANCH  13  16
ATOM     16  C   UNL     1       7.511   5.661  18.385  0.00  0.00    +0.000 C 
BRANCH  16  17
ATOM     17  N   UNL     1       6.130   5.205  18.075  0.00  0.00    +0.000 N 
ATOM     18  C   UNL     1       5.894   4.435  16.982  0.00  0.00    +0.000 A 
ATOM     19  C   UNL     1       4.600   4.050  16.647  0.00  0.00    +0.000 A 
ATOM     20  C   UNL     1       3.541   4.440  17.456  0.00  0.00    +0.000 A 
ATOM     21  C   UNL     1       3.799   5.190  18.594  0.00  0.00    +0.000 A 
ATOM     22  C   UNL     1       5.106   5.561  18.889  0.00  0.00    +0.000 A 
ENDBRANCH  16  17
ENDBRANCH  13  16
ENDBRANCH   2  12
TORSDOF 5
ENDMDL
MODEL 3
REMARK VINA RESULT:      -7.0      0.308      1.681
REMARK  Name = 
REMARK  7 active torsions:
REMARK  status: ('A' for Active; 'I' for Inactive)
REMARK    1  A    between atoms: C_1  and  N_2
REMARK    2  A    between atoms: N_2  and  C_3
REMARK    3  A    between atoms: N_2  and  C_4
REMARK    4  A    between atoms: C_7  and  C_8
REMARK    5  A    between atoms: N_9  and  N_10
REMARK    6  A    between atoms: C_11  and  C_13
REMARK    7  A    between atoms: C_13  and  N_14
REMARK                            x       y       z     vdW  Elec       q    Type
REMARK                         _______ _______ _______ _____ _____    ______ ____
ROOT
ATOM      1  C   UNL     1       8.276   9.173  17.831  0.00  0.00    +0.000 C 
ATOM      2  N   UNL     1       8.262   8.027  18.435  0.00  0.00    +0.000 NA
ENDROOT
BRANCH   1   6
ATOM      3  C   UNL     1      10.070  12.607  19.778  0.00  0.00    +0.000 A 
ATOM      4  C   UNL     1      10.055  11.333  20.372  0.00  0.00    +0.000 A 
ATOM      5  C   UNL     1       9.470  10.225  19.748  0.00  0.00    +0.000 A 
ATOM      6  C   UNL     1       8.889  10.354  18.488  0.00  0.00    +0.000 A 
ATOM      7  C   UNL     1       8.899  11.592  17.856  0.00  0.00    +0.000 A 
ATOM      8  C   UNL     1       9.484  12.697  18.500  0.00  0.00    +0.000 A 
BRANCH   3  10
ATOM      9  C   UNL     1       9.980  14.355  21.534  0.00  0.00    +0.000 C 
ATOM     10  N   UNL     1      10.649  13.706  20.407  0.00  0.00    +0.000 N 
ATOM     11  C   UNL     1      11.700  14.465  19.740  0.00  0.00    +0.000 C 
ENDBRANCH   3  10
ENDBRANCH   1   6
BRANCH   2  12
ATOM     12  N   UNL     1       7.683   6.965  17.815  0.00  0.00    +0.000 N 
ATOM     13  C   UNL     1       7.613   5.780  18.542  0.00  0.00    +0.000 C 
ATOM     14  O   UNL     1       8.044   5.642  19.687  0.00  0.00    +0.000 OA
ATOM     15  H   UNL     1       7.291   7.098  16.888  0.00  0.00    +0.000 HD
BRANCH  13  16
ATOM     16  C   UNL     1       6.978   4.600  17.835  0.00  0.00    +0.000 C 
BRANCH  16  17
ATOM     17  N   UNL     1       5.496   4.626  17.965  0.00  0.00    +0.000 N 
ATOM     18  C   UNL     1       4.910   5.344  18.958  0.00  0.00    +0.000 A 
ATOM     19  C   UNL     1       3.529   5.329  19.128  0.00  0.00    +0.000 A 
ATOM     20  C   UNL     1       2.742   4.591  18.256  0.00  0.00    +0.000 A 
ATOM     21  C   UNL     1       3.348   3.898  17.218  0.00  0.00    +0.000 A 
ATOM     22  C   UNL     1       4.733   3.931  17.088  0.00  0.00    +0.000 A 
ENDBRANCH  16  17
ENDBRANCH  13  16
ENDBRANCH   2  12
TORSDOF 5
ENDMDL
MODEL 4
REMARK VINA RESULT:      -7.0      1.515      1.900
REMARK  Name = 
REMARK  7 active torsions:
REMARK  status: ('A' for Active; 'I' for Inactive)
REMARK    1  A    between atoms: C_1  and  N_2
REMARK    2  A    between atoms: N_2  and  C_3
REMARK    3  A    between atoms: N_2  and  C_4
REMARK    4  A    between atoms: C_7  and  C_8
REMARK    5  A    between atoms: N_9  and  N_10
REMARK    6  A    between atoms: C_11  and  C_13
REMARK    7  A    between atoms: C_13  and  N_14
REMARK                            x       y       z     vdW  Elec       q    Type
REMARK                         _______ _______ _______ _____ _____    ______ ____
ROOT
ATOM      1  C   UNL     1       8.949   9.318  18.853  0.00  0.00    +0.000 C 
ATOM      2  N   UNL     1       8.280   8.588  18.017  0.00  0.00    +0.000 NA
ENDROOT
BRANCH   1   6
ATOM      3  C   UNL     1       9.853  13.457  17.931  0.00  0.00    +0.000 A 
ATOM      4  C   UNL     1      10.753  12.631  18.626  0.00  0.00    +0.000 A 
ATOM      5  C   UNL     1      10.460  11.296  18.930  0.00  0.00    +0.000 A 
ATOM      6  C   UNL     1       9.249  10.734  18.532  0.00  0.00    +0.000 A 
ATOM      7  C   UNL     1       8.337  11.510  17.824  0.00  0.00    +0.000 A 
ATOM      8  C   UNL     1       8.645  12.851  17.532  0.00  0.00    +0.000 A 
BRANCH   3  10
ATOM      9  C   UNL     1      11.531  15.208  17.417  0.00  0.00    +0.000 C 
ATOM     10  N   UNL     1      10.149  14.784  17.636  0.00  0.00    +0.000 N 
ATOM     11  C   UNL     1       9.177  15.835  17.918  0.00  0.00    +0.000 C 
ENDBRANCH   3  10
ENDBRANCH   1   6
BRANCH   2  12
ATOM     12  N   UNL     1       8.030   7.290  18.331  0.00  0.00    +0.000 N 
ATOM     13  C   UNL     1       7.191   6.589  17.470  0.00  0.00    +0.000 C 
ATOM     14  O   UNL     1       6.667   7.073  16.466  0.00  0.00    +0.000 OA
ATOM     15  H   UNL     1       8.499   6.886  19.137  0.00  0.00    +0.000 HD
BRANCH  13  16
ATOM     16  C   UNL     1       6.910   5.147  17.839  0.00  0.00    +0.000 C 
BRANCH  16  17
ATOM     17  N   UNL     1       5.456   4.918  18.054  0.00  0.00    +0.000 N 
ATOM     18  C   UNL     1       4.752   4.146  17.187  0.00  0.00    +0.000 A 
ATOM     19  C   UNL     1       3.380   3.970  17.342  0.00  0.00    +0.000 A 
ATOM     20  C   UNL     1       2.732   4.573  18.410  0.00  0.00    +0.000 A 
ATOM     21  C   UNL     1       3.470   5.323  19.315  0.00  0.00    +0.000 A 
ATOM     22  C   UNL     1       4.837   5.481  19.119  0.00  0.00    +0.000 A 
ENDBRANCH  16  17
ENDBRANCH  13  16
ENDBRANCH   2  12
TORSDOF 5
ENDMDL
MODEL 5
REMARK VINA RESULT:      -7.0      1.565      1.915
REMARK  Name = 
REMARK  7 active torsions:
REMARK  status: ('A' for Active; 'I' for Inactive)
REMARK    1  A    between atoms: C_1  and  N_2
REMARK    2  A    between atoms: N_2  and  C_3
REMARK    3  A    between atoms: N_2  and  C_4
REMARK    4  A    between atoms: C_7  and  C_8
REMARK    5  A    between atoms: N_9  and  N_10
REMARK    6  A    between atoms: C_11  and  C_13
REMARK    7  A    between atoms: C_13  and  N_14
REMARK                            x       y       z     vdW  Elec       q    Type
REMARK                         _______ _______ _______ _____ _____    ______ ____
ROOT
ATOM      1  C   UNL     1       9.084   9.390  18.847  0.00  0.00    +0.000 C 
ATOM      2  N   UNL     1       8.244   8.722  18.120  0.00  0.00    +0.000 NA
ENDROOT
BRANCH   1   6
ATOM      3  C   UNL     1       9.722  13.607  18.072  0.00  0.00    +0.000 A 
ATOM      4  C   UNL     1       8.615  12.911  17.557  0.00  0.00    +0.000 A 
ATOM      5  C   UNL     1       8.411  11.547  17.801  0.00  0.00    +0.000 A 
ATOM      6  C   UNL     1       9.310  10.833  18.589  0.00  0.00    +0.000 A 
ATOM      7  C   UNL     1      10.409  11.487  19.135  0.00  0.00    +0.000 A 
ATOM      8  C   UNL     1      10.602  12.856  18.874  0.00  0.00    +0.000 A 
BRANCH   3  10
ATOM      9  C   UNL     1       8.795  15.895  17.838  0.00  0.00    +0.000 C 
ATOM     10  N   UNL     1       9.920  14.962  17.822  0.00  0.00    +0.000 N 
ATOM     11  C   UNL     1      11.142  15.417  17.166  0.00  0.00    +0.000 C 
ENDBRANCH   3  10
ENDBRANCH   1   6
BRANCH   2  12
ATOM     12  N   UNL     1       8.065   7.398  18.370  0.00  0.00    +0.000 N 
ATOM     13  C   UNL     1       7.260   6.697  17.478  0.00  0.00    +0.000 C 
ATOM     14  O   UNL     1       6.705   7.202  16.500  0.00  0.00    +0.000 OA
ATOM     15  H   UNL     1       8.560   6.980  19.153  0.00  0.00    +0.000 HD
BRANCH  13  16
ATOM     16  C   UNL     1       7.058   5.226  17.775  0.00  0.00    +0.000 C 
BRANCH  16  17
ATOM     17  N   UNL     1       5.620   4.909  17.983  0.00  0.00    +0.000 N 
ATOM     18  C   UNL     1       4.953   4.141  17.084  0.00  0.00    +0.000 A 
ATOM     19  C   UNL     1       3.593   3.885  17.234  0.00  0.00    +0.000 A 
ATOM     20  C   UNL     1       2.919   4.402  18.331  0.00  0.00    +0.000 A 
ATOM     21  C   UNL     1       3.621   5.148  19.268  0.00  0.00    +0.000 A 
ATOM     22  C   UNL     1       4.977   5.389  19.075  0.00  0.00    +0.000 A 
ENDBRANCH  16  17
ENDBRANCH  13  16
ENDBRANCH   2  12
TORSDOF 5
ENDMDL
MODEL 6
REMARK VINA RESULT:      -6.9      0.772      1.346
REMARK  Name = 
REMARK  7 active torsions:
REMARK  status: ('A' for Active; 'I' for Inactive)
REMARK    1  A    between atoms: C_1  and  N_2
REMARK    2  A    between atoms: N_2  and  C_3
REMARK    3  A    between atoms: N_2  and  C_4
REMARK    4  A    between atoms: C_7  and  C_8
REMARK    5  A    between atoms: N_9  and  N_10
REMARK    6  A    between atoms: C_11  and  C_13
REMARK    7  A    between atoms: C_13  and  N_14
REMARK                            x       y       z     vdW  Elec       q    Type
REMARK                         _______ _______ _______ _____ _____    ______ ____
ROOT
ATOM      1  C   UNL     1       8.101   8.912  17.745  0.00  0.00    +0.000 C 
ATOM      2  N   UNL     1       8.154   7.769  18.354  0.00  0.00    +0.000 NA
ENDROOT
BRANCH   1   6
ATOM      3  C   UNL     1       9.890  12.410  19.579  0.00  0.00    +0.000 A 
ATOM      4  C   UNL     1       9.942  11.141  20.181  0.00  0.00    +0.000 A 
ATOM      5  C   UNL     1       9.359  10.011  19.593  0.00  0.00    +0.000 A 
ATOM      6  C   UNL     1       8.711  10.114  18.364  0.00  0.00    +0.000 A 
ATOM      7  C   UNL     1       8.654  11.348  17.724  0.00  0.00    +0.000 A 
ATOM      8  C   UNL     1       9.238  12.474  18.332  0.00  0.00    +0.000 A 
BRANCH   3  10
ATOM      9  C   UNL     1      11.760  14.032  19.710  0.00  0.00    +0.000 C 
ATOM     10  N   UNL     1      10.467  13.530  20.171  0.00  0.00    +0.000 N 
ATOM     11  C   UNL     1      10.016  13.982  21.483  0.00  0.00    +0.000 C 
ENDBRANCH   3  10
ENDBRANCH   1   6
BRANCH   2  12
ATOM     12  N   UNL     1       7.576   6.687  17.770  0.00  0.00    +0.000 N 
ATOM     13  C   UNL     1       7.144   5.674  18.622  0.00  0.00    +0.000 C 
ATOM     14  O   UNL     1       7.261   5.702  19.848  0.00  0.00    +0.000 OA
ATOM     15  H   UNL     1       7.444   6.690  16.763  0.00  0.00    +0.000 HD
BRANCH  13  16
ATOM     16  C   UNL     1       6.513   4.467  17.958  0.00  0.00    +0.000 C 
BRANCH  16  17
ATOM     17  N   UNL     1       5.034   4.475  18.115  0.00  0.00    +0.000 N 
ATOM     18  C   UNL     1       4.308   5.539  17.686  0.00  0.00    +0.000 A 
ATOM     19  C   UNL     1       2.931   5.586  17.879  0.00  0.00    +0.000 A 
ATOM     20  C   UNL     1       2.292   4.520  18.496  0.00  0.00    +0.000 A 
ATOM     21  C   UNL     1       3.038   3.419  18.890  0.00  0.00    +0.000 A 
ATOM     22  C   UNL     1       4.414   3.415  18.687  0.00  0.00    +0.000 A 
ENDBRANCH  16  17
ENDBRANCH  13  16
ENDBRANCH   2  12
TORSDOF 5
ENDMDL
MODEL 7
REMARK VINA RESULT:      -6.9      1.973      2.734
REMARK  Name = 
REMARK  7 active torsions:
REMARK  status: ('A' for Active; 'I' for Inactive)
REMARK    1  A    between atoms: C_1  and  N_2
REMARK    2  A    between atoms: N_2  and  C_3
REMARK    3  A    between atoms: N_2  and  C_4
REMARK    4  A    between atoms: C_7  and  C_8
REMARK    5  A    between atoms: N_9  and  N_10
REMARK    6  A    between atoms: C_11  and  C_13
REMARK    7  A    between atoms: C_13  and  N_14
REMARK                            x       y       z     vdW  Elec       q    Type
REMARK                         _______ _______ _______ _____ _____    ______ ____
ROOT
ATOM      1  C   UNL     1       9.485  10.244  19.213  0.00  0.00    +0.000 C 
ATOM      2  N   UNL     1       8.679   9.487  18.540  0.00  0.00    +0.000 NA
ENDROOT
BRANCH   1   6
ATOM      3  C   UNL     1      10.009  14.404  18.108  0.00  0.00    +0.000 A 
ATOM      4  C   UNL     1       9.315  14.019  19.269  0.00  0.00    +0.000 A 
ATOM      5  C   UNL     1       9.139  12.676  19.623  0.00  0.00    +0.000 A 
ATOM      6  C   UNL     1       9.671  11.664  18.827  0.00  0.00    +0.000 A 
ATOM      7  C   UNL     1      10.382  12.000  17.680  0.00  0.00    +0.000 A 
ATOM      8  C   UNL     1      10.543  13.354  17.334  0.00  0.00    +0.000 A 
BRANCH   3  10
ATOM      9  C   UNL     1       9.091  16.702  17.957  0.00  0.00    +0.000 C 
ATOM     10  N   UNL     1      10.175  15.741  17.759  0.00  0.00    +0.000 N 
ATOM     11  C   UNL     1      11.246  16.136  16.851  0.00  0.00    +0.000 C 
ENDBRANCH   3  10
ENDBRANCH   1   6
BRANCH   2  12
ATOM     12  N   UNL     1       8.537   8.186  18.908  0.00  0.00    +0.000 N 
ATOM     13  C   UNL     1       7.850   7.358  18.025  0.00  0.00    +0.000 C 
ATOM     14  O   UNL     1       7.367   7.733  16.956  0.00  0.00    +0.000 OA
ATOM     15  H   UNL     1       8.975   7.874  19.769  0.00  0.00    +0.000 HD
BRANCH  13  16
ATOM     16  C   UNL     1       7.688   5.914  18.452  0.00  0.00    +0.000 C 
BRANCH  16  17
ATOM     17  N   UNL     1       6.635   5.229  17.656  0.00  0.00    +0.000 N 
ATOM     18  C   UNL     1       6.973   4.496  16.564  0.00  0.00    +0.000 A 
ATOM     19  C   UNL     1       5.993   3.899  15.776  0.00  0.00    +0.000 A 
ATOM     20  C   UNL     1       4.658   4.036  16.128  0.00  0.00    +0.000 A 
ATOM     21  C   UNL     1       4.328   4.750  17.271  0.00  0.00    +0.000 A 
ATOM     22  C   UNL     1       5.336   5.339  18.026  0.00  0.00    +0.000 A 
ENDBRANCH  16  17
ENDBRANCH  13  16
ENDBRANCH   2  12
TORSDOF 5
ENDMDL
MODEL 8
REMARK VINA RESULT:      -6.9      0.940      1.262
REMARK  Name = 
REMARK  7 active torsions:
REMARK  status: ('A' for Active; 'I' for Inactive)
REMARK    1  A    between atoms: C_1  and  N_2
REMARK    2  A    between atoms: N_2  and  C_3
REMARK    3  A    between atoms: N_2  and  C_4
REMARK    4  A    between atoms: C_7  and  C_8
REMARK    5  A    between atoms: N_9  and  N_10
REMARK    6  A    between atoms: C_11  and  C_13
REMARK    7  A    between atoms: C_13  and  N_14
REMARK                            x       y       z     vdW  Elec       q    Type
REMARK                         _______ _______ _______ _____ _____    ______ ____
ROOT
ATOM      1  C   UNL     1       7.815   8.737  17.659  0.00  0.00    +0.000 C 
ATOM      2  N   UNL     1       8.044   7.582  18.199  0.00  0.00    +0.000 NA
ENDROOT
BRANCH   1   6
ATOM      3  C   UNL     1       9.826  12.291  19.117  0.00  0.00    +0.000 A 
ATOM      4  C   UNL     1       8.941  12.326  18.025  0.00  0.00    +0.000 A 
ATOM      5  C   UNL     1       8.296  11.178  17.549  0.00  0.00    +0.000 A 
ATOM      6  C   UNL     1       8.507   9.947  18.166  0.00  0.00    +0.000 A 
ATOM      7  C   UNL     1       9.359   9.870  19.262  0.00  0.00    +0.000 A 
ATOM      8  C   UNL     1      10.005  11.032  19.723  0.00  0.00    +0.000 A 
BRANCH   3  10
ATOM      9  C   UNL     1       9.757  14.712  19.645  0.00  0.00    +0.000 C 
ATOM     10  N   UNL     1      10.467  13.435  19.582  0.00  0.00    +0.000 N 
ATOM     11  C   UNL     1      11.924  13.489  19.640  0.00  0.00    +0.000 C 
ENDBRANCH   3  10
ENDBRANCH   1   6
BRANCH   2  12
ATOM     12  N   UNL     1       7.387   6.491  17.724  0.00  0.00    +0.000 N 
ATOM     13  C   UNL     1       6.996   5.539  18.660  0.00  0.00    +0.000 C 
ATOM     14  O   UNL     1       7.216   5.625  19.869  0.00  0.00    +0.000 OA
ATOM     15  H   UNL     1       7.172   6.448  16.732  0.00  0.00    +0.000 HD
BRANCH  13  16
ATOM     16  C   UNL     1       6.277   4.323  18.115  0.00  0.00    +0.000 C 
BRANCH  16  17
ATOM     17  N   UNL     1       4.821   4.376  18.416  0.00  0.00    +0.000 N 
ATOM     18  C   UNL     1       4.293   3.578  19.379  0.00  0.00    +0.000 A 
ATOM     19  C   UNL     1       2.925   3.575  19.631  0.00  0.00    +0.000 A 
ATOM     20  C   UNL     1       2.095   4.416  18.903  0.00  0.00    +0.000 A 
ATOM     21  C   UNL     1       2.652   5.260  17.953  0.00  0.00    +0.000 A 
ATOM     22  C   UNL     1       4.023   5.226  17.725  0.00  0.00    +0.000 A 
ENDBRANCH  16  17
ENDBRANCH  13  16
ENDBRANCH   2  12
TORSDOF 5
ENDMDL
MODEL 9
REMARK VINA RESULT:      -6.9      1.752      2.414
REMARK  Name = 
REMARK  7 active torsions:
REMARK  status: ('A' for Active; 'I' for Inactive)
REMARK    1  A    between atoms: C_1  and  N_2
REMARK    2  A    between atoms: N_2  and  C_3
REMARK    3  A    between atoms: N_2  and  C_4
REMARK    4  A    between atoms: C_7  and  C_8
REMARK    5  A    between atoms: N_9  and  N_10
REMARK    6  A    between atoms: C_11  and  C_13
REMARK    7  A    between atoms: C_13  and  N_14
REMARK                            x       y       z     vdW  Elec       q    Type
REMARK                         _______ _______ _______ _____ _____    ______ ____
ROOT
ATOM      1  C   UNL     1       9.258  10.099  19.302  0.00  0.00    +0.000 C 
ATOM      2  N   UNL     1       8.809   9.229  18.453  0.00  0.00    +0.000 NA
ENDROOT
BRANCH   1   6
ATOM      3  C   UNL     1      10.110  14.159  18.042  0.00  0.00    +0.000 A 
ATOM      4  C   UNL     1       9.404  13.875  19.223  0.00  0.00    +0.000 A 
ATOM      5  C   UNL     1       9.122  12.564  19.628  0.00  0.00    +0.000 A 
ATOM      6  C   UNL     1       9.556  11.484  18.863  0.00  0.00    +0.000 A 
ATOM      7  C   UNL     1      10.276  11.720  17.696  0.00  0.00    +0.000 A 
ATOM      8  C   UNL     1      10.544  13.042  17.300  0.00  0.00    +0.000 A 
BRANCH   3  10
ATOM      9  C   UNL     1      11.762  15.926  17.497  0.00  0.00    +0.000 C 
ATOM     10  N   UNL     1      10.382  15.465  17.643  0.00  0.00    +0.000 N 
ATOM     11  C   UNL     1       9.352  16.493  17.741  0.00  0.00    +0.000 C 
ENDBRANCH   3  10
ENDBRANCH   1   6
BRANCH   2  12
ATOM     12  N   UNL     1       8.557   7.964  18.879  0.00  0.00    +0.000 N 
ATOM     13  C   UNL     1       7.820   7.151  18.023  0.00  0.00    +0.000 C 
ATOM     14  O   UNL     1       7.386   7.511  16.928  0.00  0.00    +0.000 OA
ATOM     15  H   UNL     1       8.955   7.661  19.764  0.00  0.00    +0.000 HD
BRANCH  13  16
ATOM     16  C   UNL     1       7.535   5.748  18.516  0.00  0.00    +0.000 C 
BRANCH  16  17
ATOM     17  N   UNL     1       6.156   5.319  18.158  0.00  0.00    +0.000 N 
ATOM     18  C   UNL     1       5.117   5.597  18.987  0.00  0.00    +0.000 A 
ATOM     19  C   UNL     1       3.832   5.152  18.693  0.00  0.00    +0.000 A 
ATOM     20  C   UNL     1       3.609   4.435  17.526  0.00  0.00    +0.000 A 
ATOM     21  C   UNL     1       4.670   4.195  16.664  0.00  0.00    +0.000 A 
ATOM     22  C   UNL     1       5.941   4.650  16.999  0.00  0.00    +0.000 A 
ENDBRANCH  16  17
ENDBRANCH  13  16
ENDBRANCH   2  12
TORSDOF 5
ENDMDL
