MODEL 1
REMARK VINA RESULT:      -8.4      0.000      0.000
REMARK  Name = 
REMARK  7 active torsions:
REMARK  status: ('A' for Active; 'I' for Inactive)
REMARK    1  A    between atoms: C_1  and  C_2
REMARK    2  A    between atoms: C_2  and  C_3
REMARK    3  A    between atoms: C_3  and  C_4
REMARK    4  A    between atoms: C_3  and  N_5
REMARK    5  A    between atoms: C_6  and  C_8
REMARK    6  A    between atoms: C_11  and  N_12
REMARK    7  A    between atoms: C_13  and  C_14
REMARK                            x       y       z     vdW  Elec       q    Type
REMARK                         _______ _______ _______ _____ _____    ______ ____
ROOT
ATOM      1  N   UNL     1       3.365   5.280  18.637  0.00  0.00    +0.000 N 
ATOM      2  C   UNL     1       4.710   4.969  18.343  0.00  0.00    +0.000 A 
ATOM      3  C   UNL     1       4.783   3.589  18.212  0.00  0.00    +0.000 A 
ATOM      4  C   UNL     1       3.515   3.035  18.464  0.00  0.00    +0.000 A 
ATOM      5  C   UNL     1       2.664   4.076  18.762  0.00  0.00    +0.000 A 
ATOM      6  C   UNL     1       1.213   3.922  19.047  0.00  0.00    +0.000 C 
ATOM      7  C   UNL     1       0.681   2.493  18.934  0.00  0.00    +0.000 C 
ATOM      8  C   UNL     1       1.648   1.325  18.701  0.00  0.00    +0.000 C 
ATOM      9  C   UNL     1       3.123   1.608  18.412  0.00  0.00    +0.000 C 
ENDROOT
BRANCH   1  13
ATOM     10  C   UNL     1       1.613   9.139  18.941  0.00  0.00    +0.000 A 
ATOM     11  C   UNL     1       1.701   8.316  20.068  0.00  0.00    +0.000 A 
ATOM     12  C   UNL     1       2.319   7.064  19.981  0.00  0.00    +0.000 A 
ATOM     13  C   UNL     1       2.797   6.594  18.750  0.00  0.00    +0.000 A 
ATOM     14  C   UNL     1       2.667   7.408  17.617  0.00  0.00    +0.000 A 
ATOM     15  C   UNL     1       2.095   8.679  17.712  0.00  0.00    +0.000 A 
BRANCH  10  17
ATOM     16  N   UNL     1      -0.353  10.488  19.376  0.00  0.00    +0.000 N 
ATOM     17  C   UNL     1       0.995  10.480  19.086  0.00  0.00    +0.000 C 
ATOM     18  O   UNL     1       1.662  11.492  18.907  0.00  0.00    +0.000 OA
ATOM     19  H   UNL     1      -0.854   9.615  19.463  0.00  0.00    +0.000 HD
BRANCH  16  20
ATOM     20  C   UNL     1      -1.113  11.725  19.474  0.00  0.00    +0.000 C 
ATOM     21  C   UNL     1      -1.346  12.075  20.943  0.00  0.00    +0.000 C 
BRANCH  20  23
ATOM     22  C   UNL     1      -2.519  10.358  17.844  0.00  0.00    +0.000 C 
ATOM     23  C   UNL     1      -2.450  11.598  18.729  0.00  0.00    +0.000 C 
ENDBRANCH  20  23
ENDBRANCH  16  20
ENDBRANCH  10  17
ENDBRANCH   1  13
BRANCH   2  24
ATOM     24  C   UNL     1       5.846   5.915  18.248  0.00  0.00    +0.000 A 
ATOM     25  C   UNL     1       5.862   6.971  17.325  0.00  0.00    +0.000 A 
ATOM     26  C   UNL     1       6.991   7.781  17.177  0.00  0.00    +0.000 A 
ATOM     27  C   UNL     1       8.094   7.601  18.006  0.00  0.00    +0.000 A 
ATOM     28  C   UNL     1       8.065   6.613  18.986  0.00  0.00    +0.000 A 
ATOM     29  C   UNL     1       6.953   5.771  19.101  0.00  0.00    +0.000 A 
ENDBRANCH   2  24
TORSDOF 5
ENDMDL
MODEL 2
REMARK VINA RESULT:      -8.1      1.310      1.836
REMARK  Name = 
REMARK  7 active torsions:
REMARK  status: ('A' for Active; 'I' for Inactive)
REMARK    1  A    between atoms: C_1  and  C_2
REMARK    2  A    between atoms: C_2  and  C_3
REMARK    3  A    between atoms: C_3  and  C_4
REMARK    4  A    between atoms: C_3  and  N_5
REMARK    5  A    between atoms: C_6  and  C_8
REMARK    6  A    between atoms: C_11  and  N_12
REMARK    7  A    between atoms: C_13  and  C_14
REMARK                            x       y       z     vdW  Elec       q    Type
REMARK                         _______ _______ _______ _____ _____    ______ ____
ROOT
ATOM      1  N   UNL     1       3.296   5.264  18.666  0.00  0.00    +0.000 N 
ATOM      2  C   UNL     1       4.625   4.967  18.294  0.00  0.00    +0.000 A 
ATOM      3  C   UNL     1       4.687   3.596  18.087  0.00  0.00    +0.000 A 
ATOM      4  C   UNL     1       3.429   3.031  18.368  0.00  0.00    +0.000 A 
ATOM      5  C   UNL     1       2.597   4.055  18.759  0.00  0.00    +0.000 A 
ATOM      6  C   UNL     1       1.160   3.889  19.102  0.00  0.00    +0.000 C 
ATOM      7  C   UNL     1       0.618   2.467  18.938  0.00  0.00    +0.000 C 
ATOM      8  C   UNL     1       1.570   1.313  18.601  0.00  0.00    +0.000 C 
ATOM      9  C   UNL     1       3.031   1.609  18.259  0.00  0.00    +0.000 C 
ENDROOT
BRANCH   1  13
ATOM     10  C   UNL     1       1.572   9.103  19.251  0.00  0.00    +0.000 A 
ATOM     11  C   UNL     1       1.713   8.224  20.330  0.00  0.00    +0.000 A 
ATOM     12  C   UNL     1       2.322   6.978  20.149  0.00  0.00    +0.000 A 
ATOM     13  C   UNL     1       2.737   6.570  18.873  0.00  0.00    +0.000 A 
ATOM     14  C   UNL     1       2.554   7.441  17.791  0.00  0.00    +0.000 A 
ATOM     15  C   UNL     1       1.991   8.706  17.979  0.00  0.00    +0.000 A 
BRANCH  10  17
ATOM     16  N   UNL     1       1.295  11.417  18.585  0.00  0.00    +0.000 N 
ATOM     17  C   UNL     1       0.966  10.436  19.495  0.00  0.00    +0.000 C 
ATOM     18  O   UNL     1       0.260  10.623  20.479  0.00  0.00    +0.000 OA
ATOM     19  H   UNL     1       1.922  11.205  17.822  0.00  0.00    +0.000 HD
BRANCH  16  20
ATOM     20  C   UNL     1       0.839  12.790  18.734  0.00  0.00    +0.000 C 
ATOM     21  C   UNL     1      -0.533  12.954  18.080  0.00  0.00    +0.000 C 
BRANCH  20  23
ATOM     22  C   UNL     1       3.128  13.894  18.943  0.00  0.00    +0.000 C 
ATOM     23  C   UNL     1       1.852  13.766  18.117  0.00  0.00    +0.000 C 
ENDBRANCH  20  23
ENDBRANCH  16  20
ENDBRANCH  10  17
ENDBRANCH   1  13
BRANCH   2  24
ATOM     24  C   UNL     1       5.758   5.916  18.197  0.00  0.00    +0.000 A 
ATOM     25  C   UNL     1       5.755   6.992  17.297  0.00  0.00    +0.000 A 
ATOM     26  C   UNL     1       6.881   7.807  17.144  0.00  0.00    +0.000 A 
ATOM     27  C   UNL     1       8.000   7.609  17.946  0.00  0.00    +0.000 A 
ATOM     28  C   UNL     1       7.992   6.599  18.904  0.00  0.00    +0.000 A 
ATOM     29  C   UNL     1       6.882   5.753  19.023  0.00  0.00    +0.000 A 
ENDBRANCH   2  24
TORSDOF 5
ENDMDL
MODEL 3
REMARK VINA RESULT:      -8.0      0.488      1.118
REMARK  Name = 
REMARK  7 active torsions:
REMARK  status: ('A' for Active; 'I' for Inactive)
REMARK    1  A    between atoms: C_1  and  C_2
REMARK    2  A    between atoms: C_2  and  C_3
REMARK    3  A    between atoms: C_3  and  C_4
REMARK    4  A    between atoms: C_3  and  N_5
REMARK    5  A    between atoms: C_6  and  C_8
REMARK    6  A    between atoms: C_11  and  N_12
REMARK    7  A    between atoms: C_13  and  C_14
REMARK                            x       y       z     vdW  Elec       q    Type
REMARK                         _______ _______ _______ _____ _____    ______ ____
ROOT
ATOM      1  N   UNL     1       3.395   5.276  18.596  0.00  0.00    +0.000 N 
ATOM      2  C   UNL     1       4.726   4.945  18.262  0.00  0.00    +0.000 A 
ATOM      3  C   UNL     1       4.773   3.566  18.119  0.00  0.00    +0.000 A 
ATOM      4  C   UNL     1       3.503   3.030  18.403  0.00  0.00    +0.000 A 
ATOM      5  C   UNL     1       2.678   4.082  18.733  0.00  0.00    +0.000 A 
ATOM      6  C   UNL     1       1.234   3.950  19.058  0.00  0.00    +0.000 C 
ATOM      7  C   UNL     1       0.676   2.530  18.949  0.00  0.00    +0.000 C 
ATOM      8  C   UNL     1       1.617   1.349  18.682  0.00  0.00    +0.000 C 
ATOM      9  C   UNL     1       3.088   1.610  18.353  0.00  0.00    +0.000 C 
ENDROOT
BRANCH   1  13
ATOM     10  C   UNL     1       1.716   9.161  18.971  0.00  0.00    +0.000 A 
ATOM     11  C   UNL     1       1.764   8.306  20.077  0.00  0.00    +0.000 A 
ATOM     12  C   UNL     1       2.358   7.045  19.968  0.00  0.00    +0.000 A 
ATOM     13  C   UNL     1       2.851   6.598  18.734  0.00  0.00    +0.000 A 
ATOM     14  C   UNL     1       2.760   7.445  17.621  0.00  0.00    +0.000 A 
ATOM     15  C   UNL     1       2.212   8.724  17.740  0.00  0.00    +0.000 A 
BRANCH  10  17
ATOM     16  N   UNL     1      -0.017  10.568  19.915  0.00  0.00    +0.000 N 
ATOM     17  C   UNL     1       1.122  10.511  19.141  0.00  0.00    +0.000 C 
ATOM     18  O   UNL     1       1.615  11.479  18.576  0.00  0.00    +0.000 OA
ATOM     19  H   UNL     1      -0.398   9.722  20.314  0.00  0.00    +0.000 HD
BRANCH  16  20
ATOM     20  C   UNL     1      -0.753  11.807  20.112  0.00  0.00    +0.000 C 
ATOM     21  C   UNL     1      -1.096  11.978  21.591  0.00  0.00    +0.000 C 
BRANCH  20  23
ATOM     22  C   UNL     1      -3.196  12.519  19.943  0.00  0.00    +0.000 C 
ATOM     23  C   UNL     1      -2.029  11.819  19.256  0.00  0.00    +0.000 C 
ENDBRANCH  20  23
ENDBRANCH  16  20
ENDBRANCH  10  17
ENDBRANCH   1  13
BRANCH   2  24
ATOM     24  C   UNL     1       5.874   5.874  18.141  0.00  0.00    +0.000 A 
ATOM     25  C   UNL     1       7.013   5.762  18.952  0.00  0.00    +0.000 A 
ATOM     26  C   UNL     1       8.033   6.715  18.898  0.00  0.00    +0.000 A 
ATOM     27  C   UNL     1       7.970   7.754  17.973  0.00  0.00    +0.000 A 
ATOM     28  C   UNL     1       6.889   7.835  17.101  0.00  0.00    +0.000 A 
ATOM     29  C   UNL     1       5.844   6.907  17.190  0.00  0.00    +0.000 A 
ENDBRANCH   2  24
TORSDOF 5
ENDMDL
MODEL 4
REMARK VINA RESULT:      -8.0      0.305      1.323
REMARK  Name = 
REMARK  7 active torsions:
REMARK  status: ('A' for Active; 'I' for Inactive)
REMARK    1  A    between atoms: C_1  and  C_2
REMARK    2  A    between atoms: C_2  and  C_3
REMARK    3  A    between atoms: C_3  and  C_4
REMARK    4  A    between atoms: C_3  and  N_5
REMARK    5  A    between atoms: C_6  and  C_8
REMARK    6  A    between atoms: C_11  and  N_12
REMARK    7  A    between atoms: C_13  and  C_14
REMARK                            x       y       z     vdW  Elec       q    Type
REMARK                         _______ _______ _______ _____ _____    ______ ____
ROOT
ATOM      1  N   UNL     1       3.427   5.246  18.559  0.00  0.00    +0.000 N 
ATOM      2  C   UNL     1       4.774   4.931  18.279  0.00  0.00    +0.000 A 
ATOM      3  C   UNL     1       4.856   3.549  18.199  0.00  0.00    +0.000 A 
ATOM      4  C   UNL     1       3.590   2.996  18.469  0.00  0.00    +0.000 A 
ATOM      5  C   UNL     1       2.732   4.042  18.727  0.00  0.00    +0.000 A 
ATOM      6  C   UNL     1       1.282   3.891  19.015  0.00  0.00    +0.000 C 
ATOM      7  C   UNL     1       0.759   2.454  18.953  0.00  0.00    +0.000 C 
ATOM      8  C   UNL     1       1.733   1.285  18.766  0.00  0.00    +0.000 C 
ATOM      9  C   UNL     1       3.207   1.566  18.469  0.00  0.00    +0.000 C 
ENDROOT
BRANCH   1  13
ATOM     10  C   UNL     1       1.788   9.159  18.777  0.00  0.00    +0.000 A 
ATOM     11  C   UNL     1       2.318   8.685  17.573  0.00  0.00    +0.000 A 
ATOM     12  C   UNL     1       2.816   7.381  17.486  0.00  0.00    +0.000 A 
ATOM     13  C   UNL     1       2.850   6.559  18.621  0.00  0.00    +0.000 A 
ATOM     14  C   UNL     1       2.355   7.057  19.834  0.00  0.00    +0.000 A 
ATOM     15  C   UNL     1       1.812   8.342  19.910  0.00  0.00    +0.000 A 
BRANCH  10  17
ATOM     16  N   UNL     1      -0.138  10.612  19.014  0.00  0.00    +0.000 N 
ATOM     17  C   UNL     1       1.224  10.532  18.814  0.00  0.00    +0.000 C 
ATOM     18  O   UNL     1       1.947  11.503  18.629  0.00  0.00    +0.000 OA
ATOM     19  H   UNL     1      -0.683   9.767  19.112  0.00  0.00    +0.000 HD
BRANCH  16  20
ATOM     20  C   UNL     1      -0.845  11.884  18.999  0.00  0.00    +0.000 C 
ATOM     21  C   UNL     1      -1.241  12.272  20.423  0.00  0.00    +0.000 C 
BRANCH  20  23
ATOM     22  C   UNL     1      -2.172  10.487  17.330  0.00  0.00    +0.000 C 
ATOM     23  C   UNL     1      -2.083  11.803  18.095  0.00  0.00    +0.000 C 
ENDBRANCH  20  23
ENDBRANCH  16  20
ENDBRANCH  10  17
ENDBRANCH   1  13
BRANCH   2  24
ATOM     24  C   UNL     1       5.904   5.880  18.151  0.00  0.00    +0.000 A 
ATOM     25  C   UNL     1       7.049   5.789  18.956  0.00  0.00    +0.000 A 
ATOM     26  C   UNL     1       8.052   6.761  18.896  0.00  0.00    +0.000 A 
ATOM     27  C   UNL     1       7.966   7.797  17.971  0.00  0.00    +0.000 A 
ATOM     28  C   UNL     1       6.879   7.858  17.104  0.00  0.00    +0.000 A 
ATOM     29  C   UNL     1       5.851   6.912  17.199  0.00  0.00    +0.000 A 
ENDBRANCH   2  24
TORSDOF 5
ENDMDL
MODEL 5
REMARK VINA RESULT:      -8.0      1.335      1.856
REMARK  Name = 
REMARK  7 active torsions:
REMARK  status: ('A' for Active; 'I' for Inactive)
REMARK    1  A    between atoms: C_1  and  C_2
REMARK    2  A    between atoms: C_2  and  C_3
REMARK    3  A    between atoms: C_3  and  C_4
REMARK    4  A    between atoms: C_3  and  N_5
REMARK    5  A    between atoms: C_6  and  C_8
REMARK    6  A    between atoms: C_11  and  N_12
REMARK    7  A    between atoms: C_13  and  C_14
REMARK                            x       y       z     vdW  Elec       q    Type
REMARK                         _______ _______ _______ _____ _____    ______ ____
ROOT
ATOM      1  N   UNL     1       3.341   5.273  18.637  0.00  0.00    +0.000 N 
ATOM      2  C   UNL     1       4.680   4.962  18.317  0.00  0.00    +0.000 A 
ATOM      3  C   UNL     1       4.746   3.585  18.162  0.00  0.00    +0.000 A 
ATOM      4  C   UNL     1       3.480   3.031  18.423  0.00  0.00    +0.000 A 
ATOM      5  C   UNL     1       2.637   4.069  18.752  0.00  0.00    +0.000 A 
ATOM      6  C   UNL     1       1.190   3.916  19.055  0.00  0.00    +0.000 C 
ATOM      7  C   UNL     1       0.651   2.490  18.925  0.00  0.00    +0.000 C 
ATOM      8  C   UNL     1       1.610   1.324  18.659  0.00  0.00    +0.000 C 
ATOM      9  C   UNL     1       3.082   1.606  18.353  0.00  0.00    +0.000 C 
ENDROOT
BRANCH   1  13
ATOM     10  C   UNL     1       1.608   9.132  19.028  0.00  0.00    +0.000 A 
ATOM     11  C   UNL     1       1.681   8.279  20.134  0.00  0.00    +0.000 A 
ATOM     12  C   UNL     1       2.293   7.027  20.019  0.00  0.00    +0.000 A 
ATOM     13  C   UNL     1       2.778   6.587  18.780  0.00  0.00    +0.000 A 
ATOM     14  C   UNL     1       2.663   7.432  17.668  0.00  0.00    +0.000 A 
ATOM     15  C   UNL     1       2.097   8.703  17.792  0.00  0.00    +0.000 A 
BRANCH  10  17
ATOM     16  N   UNL     1       1.823  11.545  18.949  0.00  0.00    +0.000 N 
ATOM     17  C   UNL     1       0.995  10.473  19.205  0.00  0.00    +0.000 C 
ATOM     18  O   UNL     1      -0.160  10.579  19.597  0.00  0.00    +0.000 OA
ATOM     19  H   UNL     1       2.782  11.386  18.674  0.00  0.00    +0.000 HD
BRANCH  16  20
ATOM     20  C   UNL     1       1.389  12.919  19.150  0.00  0.00    +0.000 C 
ATOM     21  C   UNL     1       2.085  13.835  18.144  0.00  0.00    +0.000 C 
BRANCH  20  23
ATOM     22  C   UNL     1       0.416  13.541  21.424  0.00  0.00    +0.000 C 
ATOM     23  C   UNL     1       1.681  13.373  20.588  0.00  0.00    +0.000 C 
ENDBRANCH  20  23
ENDBRANCH  16  20
ENDBRANCH  10  17
ENDBRANCH   1  13
BRANCH   2  24
ATOM     24  C   UNL     1       5.818   5.906  18.222  0.00  0.00    +0.000 A 
ATOM     25  C   UNL     1       5.828   6.972  17.311  0.00  0.00    +0.000 A 
ATOM     26  C   UNL     1       6.958   7.782  17.160  0.00  0.00    +0.000 A 
ATOM     27  C   UNL     1       8.068   7.589  17.977  0.00  0.00    +0.000 A 
ATOM     28  C   UNL     1       8.046   6.590  18.945  0.00  0.00    +0.000 A 
ATOM     29  C   UNL     1       6.933   5.749  19.062  0.00  0.00    +0.000 A 
ENDBRANCH   2  24
TORSDOF 5
ENDMDL
MODEL 6
REMARK VINA RESULT:      -8.0      1.139      1.410
REMARK  Name = 
REMARK  7 active torsions:
REMARK  status: ('A' for Active; 'I' for Inactive)
REMARK    1  A    between atoms: C_1  and  C_2
REMARK    2  A    between atoms: C_2  and  C_3
REMARK    3  A    between atoms: C_3  and  C_4
REMARK    4  A    between atoms: C_3  and  N_5
REMARK    5  A    between atoms: C_6  and  C_8
REMARK    6  A    between atoms: C_11  and  N_12
REMARK    7  A    between atoms: C_13  and  C_14
REMARK                            x       y       z     vdW  Elec       q    Type
REMARK                         _______ _______ _______ _____ _____    ______ ____
ROOT
ATOM      1  N   UNL     1       3.313   5.273  18.675  0.00  0.00    +0.000 N 
ATOM      2  C   UNL     1       4.652   4.970  18.344  0.00  0.00    +0.000 A 
ATOM      3  C   UNL     1       4.726   3.593  18.191  0.00  0.00    +0.000 A 
ATOM      4  C   UNL     1       3.465   3.030  18.466  0.00  0.00    +0.000 A 
ATOM      5  C   UNL     1       2.618   4.064  18.799  0.00  0.00    +0.000 A 
ATOM      6  C   UNL     1       1.176   3.902  19.117  0.00  0.00    +0.000 C 
ATOM      7  C   UNL     1       0.645   2.472  18.996  0.00  0.00    +0.000 C 
ATOM      8  C   UNL     1       1.610   1.312  18.724  0.00  0.00    +0.000 C 
ATOM      9  C   UNL     1       3.077   1.603  18.403  0.00  0.00    +0.000 C 
ENDROOT
BRANCH   1  13
ATOM     10  C   UNL     1       1.557   9.120  19.075  0.00  0.00    +0.000 A 
ATOM     11  C   UNL     1       1.689   8.289  20.191  0.00  0.00    +0.000 A 
ATOM     12  C   UNL     1       2.308   7.040  20.071  0.00  0.00    +0.000 A 
ATOM     13  C   UNL     1       2.743   6.583  18.819  0.00  0.00    +0.000 A 
ATOM     14  C   UNL     1       2.569   7.406  17.699  0.00  0.00    +0.000 A 
ATOM     15  C   UNL     1       1.995   8.673  17.826  0.00  0.00    +0.000 A 
BRANCH  10  17
ATOM     16  N   UNL     1       0.968  10.962  20.537  0.00  0.00    +0.000 N 
ATOM     17  C   UNL     1       0.938  10.458  19.254  0.00  0.00    +0.000 C 
ATOM     18  O   UNL     1       0.405  11.025  18.308  0.00  0.00    +0.000 OA
ATOM     19  H   UNL     1       1.382  10.419  21.281  0.00  0.00    +0.000 HD
BRANCH  16  20
ATOM     20  C   UNL     1       0.336  12.226  20.883  0.00  0.00    +0.000 C 
ATOM     21  C   UNL     1       1.400  13.313  21.033  0.00  0.00    +0.000 C 
BRANCH  20  23
ATOM     22  C   UNL     1      -1.981  12.228  21.946  0.00  0.00    +0.000 C 
ATOM     23  C   UNL     1      -0.480  12.086  22.176  0.00  0.00    +0.000 C 
ENDBRANCH  20  23
ENDBRANCH  16  20
ENDBRANCH  10  17
ENDBRANCH   1  13
BRANCH   2  24
ATOM     24  C   UNL     1       5.782   5.921  18.235  0.00  0.00    +0.000 A 
ATOM     25  C   UNL     1       5.775   6.987  17.324  0.00  0.00    +0.000 A 
ATOM     26  C   UNL     1       6.897   7.803  17.160  0.00  0.00    +0.000 A 
ATOM     27  C   UNL     1       8.018   7.618  17.964  0.00  0.00    +0.000 A 
ATOM     28  C   UNL     1       8.014   6.619  18.933  0.00  0.00    +0.000 A 
ATOM     29  C   UNL     1       6.907   5.771  19.062  0.00  0.00    +0.000 A 
ENDBRANCH   2  24
TORSDOF 5
ENDMDL
MODEL 7
REMARK VINA RESULT:      -7.9      1.015      1.587
REMARK  Name = 
REMARK  7 active torsions:
REMARK  status: ('A' for Active; 'I' for Inactive)
REMARK    1  A    between atoms: C_1  and  C_2
REMARK    2  A    between atoms: C_2  and  C_3
REMARK    3  A    between atoms: C_3  and  C_4
REMARK    4  A    between atoms: C_3  and  N_5
REMARK    5  A    between atoms: C_6  and  C_8
REMARK    6  A    between atoms: C_11  and  N_12
REMARK    7  A    between atoms: C_13  and  C_14
REMARK                            x       y       z     vdW  Elec       q    Type
REMARK                         _______ _______ _______ _____ _____    ______ ____
ROOT
ATOM      1  N   UNL     1       3.293   5.256  18.657  0.00  0.00    +0.000 N 
ATOM      2  C   UNL     1       4.631   4.954  18.321  0.00  0.00    +0.000 A 
ATOM      3  C   UNL     1       4.703   3.578  18.159  0.00  0.00    +0.000 A 
ATOM      4  C   UNL     1       3.442   3.015  18.432  0.00  0.00    +0.000 A 
ATOM      5  C   UNL     1       2.597   4.047  18.775  0.00  0.00    +0.000 A 
ATOM      6  C   UNL     1       1.155   3.885  19.094  0.00  0.00    +0.000 C 
ATOM      7  C   UNL     1       0.623   2.456  18.964  0.00  0.00    +0.000 C 
ATOM      8  C   UNL     1       1.586   1.296  18.682  0.00  0.00    +0.000 C 
ATOM      9  C   UNL     1       3.053   1.589  18.361  0.00  0.00    +0.000 C 
ENDROOT
BRANCH   1  13
ATOM     10  C   UNL     1       1.682   9.157  19.145  0.00  0.00    +0.000 A 
ATOM     11  C   UNL     1       2.139   8.737  17.892  0.00  0.00    +0.000 A 
ATOM     12  C   UNL     1       2.627   7.438  17.718  0.00  0.00    +0.000 A 
ATOM     13  C   UNL     1       2.725   6.566  18.812  0.00  0.00    +0.000 A 
ATOM     14  C   UNL     1       2.303   7.009  20.072  0.00  0.00    +0.000 A 
ATOM     15  C   UNL     1       1.769   8.289  20.237  0.00  0.00    +0.000 A 
BRANCH  10  17
ATOM     16  N   UNL     1       0.373  10.760  20.408  0.00  0.00    +0.000 N 
ATOM     17  C   UNL     1       1.125  10.527  19.276  0.00  0.00    +0.000 C 
ATOM     18  O   UNL     1       1.306  11.355  18.392  0.00  0.00    +0.000 OA
ATOM     19  H   UNL     1       0.224  10.015  21.075  0.00  0.00    +0.000 HD
BRANCH  16  20
ATOM     20  C   UNL     1      -0.298  12.029  20.639  0.00  0.00    +0.000 C 
ATOM     21  C   UNL     1       0.694  13.045  21.205  0.00  0.00    +0.000 C 
BRANCH  20  23
ATOM     22  C   UNL     1      -1.095  11.177  22.906  0.00  0.00    +0.000 C 
ATOM     23  C   UNL     1      -1.488  11.845  21.593  0.00  0.00    +0.000 C 
ENDBRANCH  20  23
ENDBRANCH  16  20
ENDBRANCH  10  17
ENDBRANCH   1  13
BRANCH   2  24
ATOM     24  C   UNL     1       5.762   5.905  18.217  0.00  0.00    +0.000 A 
ATOM     25  C   UNL     1       5.760   6.969  17.304  0.00  0.00    +0.000 A 
ATOM     26  C   UNL     1       6.884   7.785  17.145  0.00  0.00    +0.000 A 
ATOM     27  C   UNL     1       8.000   7.601  17.955  0.00  0.00    +0.000 A 
ATOM     28  C   UNL     1       7.990   6.605  18.926  0.00  0.00    +0.000 A 
ATOM     29  C   UNL     1       6.882   5.757  19.051  0.00  0.00    +0.000 A 
ENDBRANCH   2  24
TORSDOF 5
ENDMDL
MODEL 8
REMARK VINA RESULT:      -7.9      1.886      4.363
REMARK  Name = 
REMARK  7 active torsions:
REMARK  status: ('A' for Active; 'I' for Inactive)
REMARK    1  A    between atoms: C_1  and  C_2
REMARK    2  A    between atoms: C_2  and  C_3
REMARK    3  A    between atoms: C_3  and  C_4
REMARK    4  A    between atoms: C_3  and  N_5
REMARK    5  A    between atoms: C_6  and  C_8
REMARK    6  A    between atoms: C_11  and  N_12
REMARK    7  A    between atoms: C_13  and  C_14
REMARK                            x       y       z     vdW  Elec       q    Type
REMARK                         _______ _______ _______ _____ _____    ______ ____
ROOT
ATOM      1  N   UNL     1       3.738   5.352  17.752  0.00  0.00    +0.000 N 
ATOM      2  C   UNL     1       3.661   4.042  18.274  0.00  0.00    +0.000 A 
ATOM      3  C   UNL     1       4.564   3.270  17.558  0.00  0.00    +0.000 A 
ATOM      4  C   UNL     1       5.170   4.068  16.570  0.00  0.00    +0.000 A 
ATOM      5  C   UNL     1       4.628   5.330  16.671  0.00  0.00    +0.000 A 
ATOM      6  C   UNL     1       5.031   6.490  15.834  0.00  0.00    +0.000 C 
ATOM      7  C   UNL     1       6.167   6.210  14.848  0.00  0.00    +0.000 C 
ATOM      8  C   UNL     1       6.697   4.783  14.667  0.00  0.00    +0.000 C 
ATOM      9  C   UNL     1       6.210   3.668  15.595  0.00  0.00    +0.000 C 
ENDROOT
BRANCH   1  13
ATOM     10  C   UNL     1       1.672   8.765  19.211  0.00  0.00    +0.000 A 
ATOM     11  C   UNL     1       1.972   7.704  20.071  0.00  0.00    +0.000 A 
ATOM     12  C   UNL     1       2.693   6.600  19.605  0.00  0.00    +0.000 A 
ATOM     13  C   UNL     1       3.063   6.515  18.255  0.00  0.00    +0.000 A 
ATOM     14  C   UNL     1       2.722   7.563  17.391  0.00  0.00    +0.000 A 
ATOM     15  C   UNL     1       2.045   8.689  17.867  0.00  0.00    +0.000 A 
BRANCH  10  17
ATOM     16  N   UNL     1       0.582  10.897  18.835  0.00  0.00    +0.000 N 
ATOM     17  C   UNL     1       0.949   9.941  19.758  0.00  0.00    +0.000 C 
ATOM     18  O   UNL     1       0.751  10.040  20.963  0.00  0.00    +0.000 OA
ATOM     19  H   UNL     1       0.819  10.774  17.861  0.00  0.00    +0.000 HD
BRANCH  16  20
ATOM     20  C   UNL     1      -0.065  12.139  19.229  0.00  0.00    +0.000 C 
ATOM     21  C   UNL     1      -1.502  12.162  18.709  0.00  0.00    +0.000 C 
BRANCH  20  23
ATOM     22  C   UNL     1       2.135  12.989  18.262  0.00  0.00    +0.000 C 
ATOM     23  C   UNL     1       0.721  13.349  18.703  0.00  0.00    +0.000 C 
ENDBRANCH  20  23
ENDBRANCH  16  20
ENDBRANCH  10  17
ENDBRANCH   1  13
BRANCH   2  24
ATOM     24  C   UNL     1       2.753   3.559  19.340  0.00  0.00    +0.000 A 
ATOM     25  C   UNL     1       1.365   3.477  19.157  0.00  0.00    +0.000 A 
ATOM     26  C   UNL     1       0.518   3.125  20.212  0.00  0.00    +0.000 A 
ATOM     27  C   UNL     1       1.052   2.769  21.447  0.00  0.00    +0.000 A 
ATOM     28  C   UNL     1       2.432   2.762  21.624  0.00  0.00    +0.000 A 
ATOM     29  C   UNL     1       3.276   3.162  20.582  0.00  0.00    +0.000 A 
ENDBRANCH   2  24
TORSDOF 5
ENDMDL
MODEL 9
REMARK VINA RESULT:      -7.9      3.599      7.805
REMARK  Name = 
REMARK  7 active torsions:
REMARK  status: ('A' for Active; 'I' for Inactive)
REMARK    1  A    between atoms: C_1  and  C_2
REMARK    2  A    between atoms: C_2  and  C_3
REMARK    3  A    between atoms: C_3  and  C_4
REMARK    4  A    between atoms: C_3  and  N_5
REMARK    5  A    between atoms: C_6  and  C_8
REMARK    6  A    between atoms: C_11  and  N_12
REMARK    7  A    between atoms: C_13  and  C_14
REMARK                            x       y       z     vdW  Elec       q    Type
REMARK                         _______ _______ _______ _____ _____    ______ ____
ROOT
ATOM      1  N   UNL     1       2.748   6.677  18.887  0.00  0.00    +0.000 N 
ATOM      2  C   UNL     1       2.158   5.992  19.971  0.00  0.00    +0.000 A 
ATOM      3  C   UNL     1       1.285   6.882  20.580  0.00  0.00    +0.000 A 
ATOM      4  C   UNL     1       1.356   8.123  19.920  0.00  0.00    +0.000 A 
ATOM      5  C   UNL     1       2.284   7.997  18.910  0.00  0.00    +0.000 A 
ATOM      6  C   UNL     1       2.626   9.072  17.942  0.00  0.00    +0.000 C 
ATOM      7  C   UNL     1       1.819  10.362  18.099  0.00  0.00    +0.000 C 
ATOM      8  C   UNL     1       0.861  10.534  19.284  0.00  0.00    +0.000 C 
ATOM      9  C   UNL     1       0.583   9.351  20.213  0.00  0.00    +0.000 C 
ENDROOT
BRANCH   1  13
ATOM     10  C   UNL     1       5.322   5.054  15.921  0.00  0.00    +0.000 A 
ATOM     11  C   UNL     1       5.602   6.301  16.489  0.00  0.00    +0.000 A 
ATOM     12  C   UNL     1       4.783   6.816  17.498  0.00  0.00    +0.000 A 
ATOM     13  C   UNL     1       3.635   6.120  17.904  0.00  0.00    +0.000 A 
ATOM     14  C   UNL     1       3.339   4.891  17.300  0.00  0.00    +0.000 A 
ATOM     15  C   UNL     1       4.184   4.352  16.327  0.00  0.00    +0.000 A 
BRANCH  10  17
ATOM     16  N   UNL     1       5.646   4.046  13.741  0.00  0.00    +0.000 N 
ATOM     17  C   UNL     1       6.244   4.520  14.888  0.00  0.00    +0.000 C 
ATOM     18  O   UNL     1       7.451   4.477  15.099  0.00  0.00    +0.000 OA
ATOM     19  H   UNL     1       4.640   4.068  13.652  0.00  0.00    +0.000 HD
BRANCH  16  20
ATOM     20  C   UNL     1       6.412   3.425  12.671  0.00  0.00    +0.000 C 
ATOM     21  C   UNL     1       7.140   4.499  11.864  0.00  0.00    +0.000 C 
BRANCH  20  23
ATOM     22  C   UNL     1       4.199   3.315  11.409  0.00  0.00    +0.000 C 
ATOM     23  C   UNL     1       5.495   2.593  11.763  0.00  0.00    +0.000 C 
ENDBRANCH  20  23
ENDBRANCH  16  20
ENDBRANCH  10  17
ENDBRANCH   1  13
BRANCH   2  24
ATOM     24  C   UNL     1       2.449   4.611  20.419  0.00  0.00    +0.000 A 
ATOM     25  C   UNL     1       1.493   3.823  21.077  0.00  0.00    +0.000 A 
ATOM     26  C   UNL     1       1.824   2.566  21.591  0.00  0.00    +0.000 A 
ATOM     27  C   UNL     1       3.096   2.040  21.383  0.00  0.00    +0.000 A 
ATOM     28  C   UNL     1       4.033   2.770  20.659  0.00  0.00    +0.000 A 
ATOM     29  C   UNL     1       3.716   4.049  20.188  0.00  0.00    +0.000 A 
ENDBRANCH   2  24
TORSDOF 5
ENDMDL
