MODEL 1
REMARK VINA RESULT:      -7.8      0.000      0.000
REMARK  Name = 
REMARK  6 active torsions:
REMARK  status: ('A' for Active; 'I' for Inactive)
REMARK    1  A    between atoms: N_1  and  C_2
REMARK    2  A    between atoms: C_6  and  C_7
REMARK    3  A    between atoms: C_7  and  O_8
REMARK    4  A    between atoms: O_8  and  C_9
REMARK    5  A    between atoms: N_16  and  C_17
REMARK    6  A    between atoms: C_22  and  O_23
REMARK                            x       y       z     vdW  Elec       q    Type
REMARK                         _______ _______ _______ _____ _____    ______ ____
ROOT
ATOM      1  C   UNL     1       1.914   7.965  19.925  0.00  0.00    +0.000 A 
ATOM      2  C   UNL     1       1.451   8.813  18.924  0.00  0.00    +0.000 A 
ATOM      3  C   UNL     1       0.546   9.826  19.236  0.00  0.00    +0.000 A 
ATOM      4 CL   UNL     1      -0.080  10.870  18.034  0.00  0.00    +0.000 Cl
ATOM      5  C   UNL     1       0.093  10.037  20.553  0.00  0.00    +0.000 A 
ATOM      6  N   UNL     1      -0.768  11.023  21.025  0.00  0.00    +0.000 NA
ATOM      7  C   UNL     1      -0.956  10.904  22.314  0.00  0.00    +0.000 A 
ATOM      8  N   UNL     1      -1.705  11.735  23.079  0.00  0.00    +0.000 N 
ATOM      9  S   UNL     1      -0.144   9.577  23.046  0.00  0.00    +0.000 S 
ATOM     10  C   UNL     1       0.572   9.165  21.535  0.00  0.00    +0.000 A 
ATOM     11  C   UNL     1       1.488   8.134  21.246  0.00  0.00    +0.000 A 
ATOM     12  H   UNL     1      -1.648  11.571  24.078  0.00  0.00    +0.000 HD
ENDROOT
BRANCH   8  13
ATOM     13  C   UNL     1      -1.814  13.147  22.682  0.00  0.00    +0.000 C 
ATOM     14  C   UNL     1      -2.070  14.008  23.932  0.00  0.00    +0.000 C 
ATOM     15  C   UNL     1      -3.451  13.785  24.550  0.00  0.00    +0.000 C 
ATOM     16  C   UNL     1      -4.602  13.787  23.547  0.00  0.00    +0.000 C 
ATOM     17  C   UNL     1      -4.314  13.044  22.239  0.00  0.00    +0.000 C 
ATOM     18  C   UNL     1      -2.942  13.376  21.648  0.00  0.00    +0.000 C 
BRANCH  18  19
ATOM     19  O   UNL     1      -2.923  14.735  21.181  0.00  0.00    +0.000 OA
ATOM     20  H   UNL     1      -3.832  15.015  20.979  0.00  0.00    +0.000 HD
ENDBRANCH  18  19
ENDBRANCH   8  13
BRANCH   1  21
ATOM     21  O   UNL     1       2.797   7.007  19.500  0.00  0.00    +0.000 OA
BRANCH  21  22
ATOM     22  C   UNL     1       2.234   5.854  18.869  0.00  0.00    +0.000 C 
BRANCH  22  27
ATOM     23  C   UNL     1       3.919   2.729  20.305  0.00  0.00    +0.000 A 
ATOM     24  N   UNL     1       3.162   2.464  21.388  0.00  0.00    +0.000 NA
ATOM     25  C   UNL     1       2.127   3.291  21.637  0.00  0.00    +0.000 A 
ATOM     26  C   UNL     1       1.803   4.381  20.846  0.00  0.00    +0.000 A 
ATOM     27  C   UNL     1       2.580   4.654  19.711  0.00  0.00    +0.000 A 
ATOM     28  C   UNL     1       3.659   3.803  19.436  0.00  0.00    +0.000 A 
ATOM     29 CL   UNL     1       4.691   4.058  18.066  0.00  0.00    +0.000 Cl
BRANCH  23  30
ATOM     30  N   UNL     1       4.956   1.821  20.074  0.00  0.00    +0.000 N 
ATOM     31  H   UNL     1       4.643   1.174  19.355  0.00  0.00    +0.000 HD
ATOM     32  H   UNL     1       5.247   1.361  20.929  0.00  0.00    +0.000 HD
ENDBRANCH  23  30
ENDBRANCH  22  27
ENDBRANCH  21  22
ENDBRANCH   1  21
TORSDOF 6
ENDMDL
MODEL 2
REMARK VINA RESULT:      -7.8      1.021      1.048
REMARK  Name = 
REMARK  6 active torsions:
REMARK  status: ('A' for Active; 'I' for Inactive)
REMARK    1  A    between atoms: N_1  and  C_2
REMARK    2  A    between atoms: C_6  and  C_7
REMARK    3  A    between atoms: C_7  and  O_8
REMARK    4  A    between atoms: O_8  and  C_9
REMARK    5  A    between atoms: N_16  and  C_17
REMARK    6  A    between atoms: C_22  and  O_23
REMARK                            x       y       z     vdW  Elec       q    Type
REMARK                         _______ _______ _______ _____ _____    ______ ____
ROOT
ATOM      1  C   UNL     1       1.861   7.974  20.081  0.00  0.00    +0.000 A 
ATOM      2  C   UNL     1       1.431   8.806  19.053  0.00  0.00    +0.000 A 
ATOM      3  C   UNL     1       0.530   9.834  19.322  0.00  0.00    +0.000 A 
ATOM      4 CL   UNL     1      -0.057  10.860  18.085  0.00  0.00    +0.000 Cl
ATOM      5  C   UNL     1       0.048  10.077  20.624  0.00  0.00    +0.000 A 
ATOM      6  N   UNL     1      -0.813  11.082  21.055  0.00  0.00    +0.000 NA
ATOM      7  C   UNL     1      -1.033  10.991  22.342  0.00  0.00    +0.000 A 
ATOM      8  N   UNL     1      -1.791  11.845  23.071  0.00  0.00    +0.000 N 
ATOM      9  S   UNL     1      -0.253   9.671  23.119  0.00  0.00    +0.000 S 
ATOM     10  C   UNL     1       0.493   9.221  21.635  0.00  0.00    +0.000 A 
ATOM     11  C   UNL     1       1.405   8.174  21.389  0.00  0.00    +0.000 A 
ATOM     12  H   UNL     1      -1.759  11.701  24.074  0.00  0.00    +0.000 HD
ENDROOT
BRANCH   8  13
ATOM     13  C   UNL     1      -1.875  13.250  22.643  0.00  0.00    +0.000 C 
ATOM     14  C   UNL     1      -1.947  14.156  23.885  0.00  0.00    +0.000 C 
ATOM     15  C   UNL     1      -3.258  14.022  24.659  0.00  0.00    +0.000 C 
ATOM     16  C   UNL     1      -4.514  14.058  23.791  0.00  0.00    +0.000 C 
ATOM     17  C   UNL     1      -4.411  13.266  22.484  0.00  0.00    +0.000 C 
ATOM     18  C   UNL     1      -3.099  13.509  21.734  0.00  0.00    +0.000 C 
BRANCH  18  19
ATOM     19  O   UNL     1      -3.068  14.853  21.224  0.00  0.00    +0.000 OA
ATOM     20  H   UNL     1      -3.960  15.235  21.277  0.00  0.00    +0.000 HD
ENDBRANCH  18  19
ENDBRANCH   8  13
BRANCH   1  21
ATOM     21  O   UNL     1       2.743   6.999  19.697  0.00  0.00    +0.000 OA
BRANCH  21  22
ATOM     22  C   UNL     1       2.510   6.392  18.424  0.00  0.00    +0.000 C 
BRANCH  22  27
ATOM     23  C   UNL     1       3.798   2.865  19.179  0.00  0.00    +0.000 A 
ATOM     24  N   UNL     1       2.714   2.103  18.935  0.00  0.00    +0.000 NA
ATOM     25  C   UNL     1       1.591   2.733  18.534  0.00  0.00    +0.000 A 
ATOM     26  C   UNL     1       1.498   4.104  18.357  0.00  0.00    +0.000 A 
ATOM     27  C   UNL     1       2.626   4.900  18.597  0.00  0.00    +0.000 A 
ATOM     28  C   UNL     1       3.803   4.260  19.013  0.00  0.00    +0.000 A 
ATOM     29 CL   UNL     1       5.251   5.152  19.348  0.00  0.00    +0.000 Cl
BRANCH  23  30
ATOM     30  N   UNL     1       4.942   2.158  19.556  0.00  0.00    +0.000 N 
ATOM     31  H   UNL     1       4.947   1.282  19.042  0.00  0.00    +0.000 HD
ATOM     32  H   UNL     1       4.990   2.033  20.561  0.00  0.00    +0.000 HD
ENDBRANCH  23  30
ENDBRANCH  22  27
ENDBRANCH  21  22
ENDBRANCH   1  21
TORSDOF 6
ENDMDL
MODEL 3
REMARK VINA RESULT:      -7.6      2.553      3.319
REMARK  Name = 
REMARK  6 active torsions:
REMARK  status: ('A' for Active; 'I' for Inactive)
REMARK    1  A    between atoms: N_1  and  C_2
REMARK    2  A    between atoms: C_6  and  C_7
REMARK    3  A    between atoms: C_7  and  O_8
REMARK    4  A    between atoms: O_8  and  C_9
REMARK    5  A    between atoms: N_16  and  C_17
REMARK    6  A    between atoms: C_22  and  O_23
REMARK                            x       y       z     vdW  Elec       q    Type
REMARK                         _______ _______ _______ _____ _____    ______ ____
ROOT
ATOM      1  C   UNL     1       1.337   8.819  19.551  0.00  0.00    +0.000 A 
ATOM      2  C   UNL     1       1.090   8.817  20.920  0.00  0.00    +0.000 A 
ATOM      3  C   UNL     1       0.194   9.735  21.464  0.00  0.00    +0.000 A 
ATOM      4 CL   UNL     1      -0.116   9.797  23.146  0.00  0.00    +0.000 Cl
ATOM      5  C   UNL     1      -0.497  10.664  20.661  0.00  0.00    +0.000 A 
ATOM      6  N   UNL     1      -1.445  11.606  21.048  0.00  0.00    +0.000 NA
ATOM      7  C   UNL     1      -1.871  12.293  20.019  0.00  0.00    +0.000 A 
ATOM      8  N   UNL     1      -2.826  13.253  20.056  0.00  0.00    +0.000 N 
ATOM      9  S   UNL     1      -1.134  11.885  18.520  0.00  0.00    +0.000 S 
ATOM     10  C   UNL     1      -0.223  10.645  19.291  0.00  0.00    +0.000 A 
ATOM     11  C   UNL     1       0.679   9.727  18.715  0.00  0.00    +0.000 A 
ATOM     12  H   UNL     1      -3.123  13.602  19.152  0.00  0.00    +0.000 HD
ENDROOT
BRANCH   8  13
ATOM     13  C   UNL     1      -3.891  13.146  21.065  0.00  0.00    +0.000 C 
ATOM     14  C   UNL     1      -5.142  12.522  20.420  0.00  0.00    +0.000 C 
ATOM     15  C   UNL     1      -5.817  13.436  19.398  0.00  0.00    +0.000 C 
ATOM     16  C   UNL     1      -6.014  14.876  19.867  0.00  0.00    +0.000 C 
ATOM     17  C   UNL     1      -4.824  15.469  20.629  0.00  0.00    +0.000 C 
ATOM     18  C   UNL     1      -4.250  14.518  21.682  0.00  0.00    +0.000 C 
BRANCH  18  19
ATOM     19  O   UNL     1      -5.188  14.353  22.758  0.00  0.00    +0.000 OA
ATOM     20  H   UNL     1      -6.018  13.991  22.405  0.00  0.00    +0.000 HD
ENDBRANCH  18  19
ENDBRANCH   8  13
BRANCH   1  21
ATOM     21  O   UNL     1       2.238   7.874  19.131  0.00  0.00    +0.000 OA
BRANCH  21  22
ATOM     22  C   UNL     1       2.302   6.669  19.897  0.00  0.00    +0.000 C 
BRANCH  22  27
ATOM     23  C   UNL     1       2.567   3.320  18.058  0.00  0.00    +0.000 A 
ATOM     24  N   UNL     1       3.532   3.564  17.150  0.00  0.00    +0.000 NA
ATOM     25  C   UNL     1       4.079   4.796  17.144  0.00  0.00    +0.000 A 
ATOM     26  C   UNL     1       3.709   5.808  18.015  0.00  0.00    +0.000 A 
ATOM     27  C   UNL     1       2.715   5.556  18.969  0.00  0.00    +0.000 A 
ATOM     28  C   UNL     1       2.136   4.279  18.991  0.00  0.00    +0.000 A 
ATOM     29 CL   UNL     1       0.890   3.865  20.123  0.00  0.00    +0.000 Cl
BRANCH  23  30
ATOM     30  N   UNL     1       2.061   2.018  18.044  0.00  0.00    +0.000 N 
ATOM     31  H   UNL     1       1.369   1.964  17.301  0.00  0.00    +0.000 HD
ATOM     32  H   UNL     1       1.695   1.750  18.951  0.00  0.00    +0.000 HD
ENDBRANCH  23  30
ENDBRANCH  22  27
ENDBRANCH  21  22
ENDBRANCH   1  21
TORSDOF 6
ENDMDL
MODEL 4
REMARK VINA RESULT:      -7.6      2.967      3.782
REMARK  Name = 
REMARK  6 active torsions:
REMARK  status: ('A' for Active; 'I' for Inactive)
REMARK    1  A    between atoms: N_1  and  C_2
REMARK    2  A    between atoms: C_6  and  C_7
REMARK    3  A    between atoms: C_7  and  O_8
REMARK    4  A    between atoms: O_8  and  C_9
REMARK    5  A    between atoms: N_16  and  C_17
REMARK    6  A    between atoms: C_22  and  O_23
REMARK                            x       y       z     vdW  Elec       q    Type
REMARK                         _______ _______ _______ _____ _____    ______ ____
ROOT
ATOM      1  C   UNL     1       2.670   8.281  18.043  0.00  0.00    +0.000 A 
ATOM      2  C   UNL     1       2.239   7.620  19.189  0.00  0.00    +0.000 A 
ATOM      3  C   UNL     1       1.412   8.277  20.098  0.00  0.00    +0.000 A 
ATOM      4 CL   UNL     1       0.885   7.520  21.539  0.00  0.00    +0.000 Cl
ATOM      5  C   UNL     1       0.975   9.599  19.884  0.00  0.00    +0.000 A 
ATOM      6  N   UNL     1       0.122  10.367  20.671  0.00  0.00    +0.000 NA
ATOM      7  C   UNL     1      -0.057  11.553  20.148  0.00  0.00    +0.000 A 
ATOM      8  N   UNL     1      -0.866  12.518  20.650  0.00  0.00    +0.000 N 
ATOM      9  S   UNL     1       0.815  11.845  18.696  0.00  0.00    +0.000 S 
ATOM     10  C   UNL     1       1.430  10.238  18.728  0.00  0.00    +0.000 A 
ATOM     11  C   UNL     1       2.266   9.596  17.791  0.00  0.00    +0.000 A 
ATOM     12  H   UNL     1      -0.984  13.333  20.058  0.00  0.00    +0.000 HD
ENDROOT
BRANCH   8  13
ATOM     13  C   UNL     1      -2.064  12.111  21.399  0.00  0.00    +0.000 C 
ATOM     14  C   UNL     1      -3.258  12.978  20.959  0.00  0.00    +0.000 C 
ATOM     15  C   UNL     1      -3.140  14.438  21.394  0.00  0.00    +0.000 C 
ATOM     16  C   UNL     1      -2.735  14.635  22.853  0.00  0.00    +0.000 C 
ATOM     17  C   UNL     1      -1.636  13.688  23.345  0.00  0.00    +0.000 C 
ATOM     18  C   UNL     1      -1.864  12.233  22.928  0.00  0.00    +0.000 C 
BRANCH  18  19
ATOM     19  O   UNL     1      -3.000  11.695  23.626  0.00  0.00    +0.000 OA
ATOM     20  H   UNL     1      -3.464  12.416  24.085  0.00  0.00    +0.000 HD
ENDBRANCH  18  19
ENDBRANCH   8  13
BRANCH   1  21
ATOM     21  O   UNL     1       3.480   7.537  17.224  0.00  0.00    +0.000 OA
BRANCH  21  22
ATOM     22  C   UNL     1       3.628   6.155  17.558  0.00  0.00    +0.000 C 
BRANCH  22  27
ATOM     23  C   UNL     1       7.149   4.710  17.131  0.00  0.00    +0.000 A 
ATOM     24  N   UNL     1       7.330   4.779  15.797  0.00  0.00    +0.000 NA
ATOM     25  C   UNL     1       6.321   5.286  15.061  0.00  0.00    +0.000 A 
ATOM     26  C   UNL     1       5.127   5.739  15.597  0.00  0.00    +0.000 A 
ATOM     27  C   UNL     1       4.939   5.681  16.985  0.00  0.00    +0.000 A 
ATOM     28  C   UNL     1       5.979   5.159  17.766  0.00  0.00    +0.000 A 
ATOM     29 CL   UNL     1       5.844   5.032  19.490  0.00  0.00    +0.000 Cl
BRANCH  23  30
ATOM     30  N   UNL     1       8.239   4.211  17.849  0.00  0.00    +0.000 N 
ATOM     31  H   UNL     1       8.132   3.202  17.909  0.00  0.00    +0.000 HD
ATOM     32  H   UNL     1       8.327   4.658  18.754  0.00  0.00    +0.000 HD
ENDBRANCH  23  30
ENDBRANCH  22  27
ENDBRANCH  21  22
ENDBRANCH   1  21
TORSDOF 6
ENDMDL
MODEL 5
REMARK VINA RESULT:      -7.5      3.040      3.842
REMARK  Name = 
REMARK  6 active torsions:
REMARK  status: ('A' for Active; 'I' for Inactive)
REMARK    1  A    between atoms: N_1  and  C_2
REMARK    2  A    between atoms: C_6  and  C_7
REMARK    3  A    between atoms: C_7  and  O_8
REMARK    4  A    between atoms: O_8  and  C_9
REMARK    5  A    between atoms: N_16  and  C_17
REMARK    6  A    between atoms: C_22  and  O_23
REMARK                            x       y       z     vdW  Elec       q    Type
REMARK                         _______ _______ _______ _____ _____    ______ ____
ROOT
ATOM      1  C   UNL     1       1.233   9.406  18.985  0.00  0.00    +0.000 A 
ATOM      2  C   UNL     1       1.015   9.823  20.295  0.00  0.00    +0.000 A 
ATOM      3  C   UNL     1      -0.114  10.579  20.604  0.00  0.00    +0.000 A 
ATOM      4 CL   UNL     1      -0.407  11.145  22.192  0.00  0.00    +0.000 Cl
ATOM      5  C   UNL     1      -1.067  10.925  19.625  0.00  0.00    +0.000 A 
ATOM      6  N   UNL     1      -2.255  11.632  19.785  0.00  0.00    +0.000 NA
ATOM      7  C   UNL     1      -2.884  11.756  18.645  0.00  0.00    +0.000 A 
ATOM      8  N   UNL     1      -4.088  12.353  18.473  0.00  0.00    +0.000 N 
ATOM      9  S   UNL     1      -2.076  11.067  17.293  0.00  0.00    +0.000 S 
ATOM     10  C   UNL     1      -0.817  10.497  18.318  0.00  0.00    +0.000 A 
ATOM     11  C   UNL     1       0.316   9.730  17.980  0.00  0.00    +0.000 A 
ATOM     12  H   UNL     1      -4.489  12.257  17.547  0.00  0.00    +0.000 HD
ENDROOT
BRANCH   8  13
ATOM     13  C   UNL     1      -5.055  12.315  19.580  0.00  0.00    +0.000 C 
ATOM     14  C   UNL     1      -6.132  11.256  19.279  0.00  0.00    +0.000 C 
ATOM     15  C   UNL     1      -7.051  11.639  18.119  0.00  0.00    +0.000 C 
ATOM     16  C   UNL     1      -7.585  13.068  18.178  0.00  0.00    +0.000 C 
ATOM     17  C   UNL     1      -6.556  14.119  18.606  0.00  0.00    +0.000 C 
ATOM     18  C   UNL     1      -5.725  13.689  19.817  0.00  0.00    +0.000 C 
BRANCH  18  19
ATOM     19  O   UNL     1      -6.553  13.647  20.991  0.00  0.00    +0.000 OA
ATOM     20  H   UNL     1      -7.240  12.969  20.873  0.00  0.00    +0.000 HD
ENDBRANCH  18  19
ENDBRANCH   8  13
BRANCH   1  21
ATOM     21  O   UNL     1       2.375   8.671  18.801  0.00  0.00    +0.000 OA
BRANCH  21  22
ATOM     22  C   UNL     1       2.307   7.616  17.840  0.00  0.00    +0.000 C 
BRANCH  22  27
ATOM     23  C   UNL     1       4.659   4.719  18.701  0.00  0.00    +0.000 A 
ATOM     24  N   UNL     1       4.018   4.119  19.723  0.00  0.00    +0.000 NA
ATOM     25  C   UNL     1       2.845   4.655  20.117  0.00  0.00    +0.000 A 
ATOM     26  C   UNL     1       2.270   5.770  19.530  0.00  0.00    +0.000 A 
ATOM     27  C   UNL     1       2.927   6.390  18.458  0.00  0.00    +0.000 A 
ATOM     28  C   UNL     1       4.147   5.845  18.034  0.00  0.00    +0.000 A 
ATOM     29 CL   UNL     1       5.047   6.541  16.725  0.00  0.00    +0.000 Cl
BRANCH  23  30
ATOM     30  N   UNL     1       5.851   4.103  18.310  0.00  0.00    +0.000 N 
ATOM     31  H   UNL     1       6.082   4.441  17.380  0.00  0.00    +0.000 HD
ATOM     32  H   UNL     1       5.784   3.092  18.363  0.00  0.00    +0.000 HD
ENDBRANCH  23  30
ENDBRANCH  22  27
ENDBRANCH  21  22
ENDBRANCH   1  21
TORSDOF 6
ENDMDL
MODEL 6
REMARK VINA RESULT:      -7.5      1.827      1.939
REMARK  Name = 
REMARK  6 active torsions:
REMARK  status: ('A' for Active; 'I' for Inactive)
REMARK    1  A    between atoms: N_1  and  C_2
REMARK    2  A    between atoms: C_6  and  C_7
REMARK    3  A    between atoms: C_7  and  O_8
REMARK    4  A    between atoms: O_8  and  C_9
REMARK    5  A    between atoms: N_16  and  C_17
REMARK    6  A    between atoms: C_22  and  O_23
REMARK                            x       y       z     vdW  Elec       q    Type
REMARK                         _______ _______ _______ _____ _____    ______ ____
ROOT
ATOM      1  C   UNL     1       1.565   8.333  20.102  0.00  0.00    +0.000 A 
ATOM      2  C   UNL     1       1.329   9.310  19.140  0.00  0.00    +0.000 A 
ATOM      3  C   UNL     1       0.554  10.425  19.459  0.00  0.00    +0.000 A 
ATOM      4 CL   UNL     1       0.206  11.635  18.301  0.00  0.00    +0.000 Cl
ATOM      5  C   UNL     1       0.011  10.608  20.746  0.00  0.00    +0.000 A 
ATOM      6  N   UNL     1      -0.740  11.677  21.224  0.00  0.00    +0.000 NA
ATOM      7  C   UNL     1      -1.067  11.496  22.478  0.00  0.00    +0.000 A 
ATOM      8  N   UNL     1      -1.759  12.375  23.244  0.00  0.00    +0.000 N 
ATOM      9  S   UNL     1      -0.531  10.012  23.160  0.00  0.00    +0.000 S 
ATOM     10  C   UNL     1       0.260   9.606  21.688  0.00  0.00    +0.000 A 
ATOM     11  C   UNL     1       1.041   8.470  21.391  0.00  0.00    +0.000 A 
ATOM     12  H   UNL     1      -1.824  12.134  24.226  0.00  0.00    +0.000 HD
ENDROOT
BRANCH   8  13
ATOM     13  C   UNL     1      -1.622  13.812  22.961  0.00  0.00    +0.000 C 
ATOM     14  C   UNL     1      -1.596  14.591  24.288  0.00  0.00    +0.000 C 
ATOM     15  C   UNL     1      -2.934  14.579  25.026  0.00  0.00    +0.000 C 
ATOM     16  C   UNL     1      -4.145  14.888  24.149  0.00  0.00    +0.000 C 
ATOM     17  C   UNL     1      -4.122  14.223  22.769  0.00  0.00    +0.000 C 
ATOM     18  C   UNL     1      -2.769  14.341  22.066  0.00  0.00    +0.000 C 
BRANCH  18  19
ATOM     19  O   UNL     1      -2.525  15.708  21.697  0.00  0.00    +0.000 OA
ATOM     20  H   UNL     1      -1.782  16.053  22.221  0.00  0.00    +0.000 HD
ENDBRANCH  18  19
ENDBRANCH   8  13
BRANCH   1  21
ATOM     21  O   UNL     1       2.336   7.284  19.674  0.00  0.00    +0.000 OA
BRANCH  21  22
ATOM     22  C   UNL     1       2.704   7.284  18.292  0.00  0.00    +0.000 C 
BRANCH  22  27
ATOM     23  C   UNL     1       4.466   4.092  17.119  0.00  0.00    +0.000 A 
ATOM     24  N   UNL     1       3.496   3.165  17.240  0.00  0.00    +0.000 NA
ATOM     25  C   UNL     1       2.296   3.580  17.695  0.00  0.00    +0.000 A 
ATOM     26  C   UNL     1       2.012   4.892  18.035  0.00  0.00    +0.000 A 
ATOM     27  C   UNL     1       3.014   5.863  17.899  0.00  0.00    +0.000 A 
ATOM     28  C   UNL     1       4.267   5.449  17.425  0.00  0.00    +0.000 A 
ATOM     29 CL   UNL     1       5.579   6.566  17.232  0.00  0.00    +0.000 Cl
BRANCH  23  30
ATOM     30  N   UNL     1       5.677   3.616  16.610  0.00  0.00    +0.000 N 
ATOM     31  H   UNL     1       6.403   3.833  17.288  0.00  0.00    +0.000 HD
ATOM     32  H   UNL     1       5.866   3.988  15.687  0.00  0.00    +0.000 HD
ENDBRANCH  23  30
ENDBRANCH  22  27
ENDBRANCH  21  22
ENDBRANCH   1  21
TORSDOF 6
ENDMDL
MODEL 7
REMARK VINA RESULT:      -7.5      2.520      3.158
REMARK  Name = 
REMARK  6 active torsions:
REMARK  status: ('A' for Active; 'I' for Inactive)
REMARK    1  A    between atoms: N_1  and  C_2
REMARK    2  A    between atoms: C_6  and  C_7
REMARK    3  A    between atoms: C_7  and  O_8
REMARK    4  A    between atoms: O_8  and  C_9
REMARK    5  A    between atoms: N_16  and  C_17
REMARK    6  A    between atoms: C_22  and  O_23
REMARK                            x       y       z     vdW  Elec       q    Type
REMARK                         _______ _______ _______ _____ _____    ______ ____
ROOT
ATOM      1  C   UNL     1       1.453   8.527  19.919  0.00  0.00    +0.000 A 
ATOM      2  C   UNL     1       1.175   8.560  21.282  0.00  0.00    +0.000 A 
ATOM      3  C   UNL     1       0.277   9.501  21.785  0.00  0.00    +0.000 A 
ATOM      4 CL   UNL     1      -0.070   9.604  23.457  0.00  0.00    +0.000 Cl
ATOM      5  C   UNL     1      -0.383  10.419  20.945  0.00  0.00    +0.000 A 
ATOM      6  N   UNL     1      -1.329  11.381  21.289  0.00  0.00    +0.000 NA
ATOM      7  C   UNL     1      -1.722  12.049  20.234  0.00  0.00    +0.000 A 
ATOM      8  N   UNL     1      -2.667  13.021  20.228  0.00  0.00    +0.000 N 
ATOM      9  S   UNL     1      -0.957  11.597  18.763  0.00  0.00    +0.000 S 
ATOM     10  C   UNL     1      -0.078  10.366  19.583  0.00  0.00    +0.000 A 
ATOM     11  C   UNL     1       0.825   9.424  19.049  0.00  0.00    +0.000 A 
ATOM     12  H   UNL     1      -2.939  13.352  19.310  0.00  0.00    +0.000 HD
ENDROOT
BRANCH   8  13
ATOM     13  C   UNL     1      -3.755  12.949  21.214  0.00  0.00    +0.000 C 
ATOM     14  C   UNL     1      -5.038  12.456  20.521  0.00  0.00    +0.000 C 
ATOM     15  C   UNL     1      -5.622  13.469  19.535  0.00  0.00    +0.000 C 
ATOM     16  C   UNL     1      -5.714  14.895  20.072  0.00  0.00    +0.000 C 
ATOM     17  C   UNL     1      -4.497  15.356  20.879  0.00  0.00    +0.000 C 
ATOM     18  C   UNL     1      -4.018  14.314  21.893  0.00  0.00    +0.000 C 
BRANCH  18  19
ATOM     19  O   UNL     1      -4.986  14.172  22.945  0.00  0.00    +0.000 OA
ATOM     20  H   UNL     1      -4.545  13.829  23.741  0.00  0.00    +0.000 HD
ENDBRANCH  18  19
ENDBRANCH   8  13
BRANCH   1  21
ATOM     21  O   UNL     1       2.351   7.563  19.542  0.00  0.00    +0.000 OA
BRANCH  21  22
ATOM     22  C   UNL     1       2.608   7.443  18.141  0.00  0.00    +0.000 C 
BRANCH  22  27
ATOM     23  C   UNL     1       4.422   4.196  17.230  0.00  0.00    +0.000 A 
ATOM     24  N   UNL     1       3.459   3.269  17.400  0.00  0.00    +0.000 NA
ATOM     25  C   UNL     1       2.248   3.702  17.804  0.00  0.00    +0.000 A 
ATOM     26  C   UNL     1       1.945   5.031  18.043  0.00  0.00    +0.000 A 
ATOM     27  C   UNL     1       2.939   6.001  17.856  0.00  0.00    +0.000 A 
ATOM     28  C   UNL     1       4.205   5.569  17.434  0.00  0.00    +0.000 A 
ATOM     29 CL   UNL     1       5.509   6.684  17.184  0.00  0.00    +0.000 Cl
BRANCH  23  30
ATOM     30  N   UNL     1       5.647   3.698  16.777  0.00  0.00    +0.000 N 
ATOM     31  H   UNL     1       6.114   4.444  16.270  0.00  0.00    +0.000 HD
ATOM     32  H   UNL     1       5.527   2.854  16.227  0.00  0.00    +0.000 HD
ENDBRANCH  23  30
ENDBRANCH  22  27
ENDBRANCH  21  22
ENDBRANCH   1  21
TORSDOF 6
ENDMDL
MODEL 8
REMARK VINA RESULT:      -7.4      2.289      3.053
REMARK  Name = 
REMARK  6 active torsions:
REMARK  status: ('A' for Active; 'I' for Inactive)
REMARK    1  A    between atoms: N_1  and  C_2
REMARK    2  A    between atoms: C_6  and  C_7
REMARK    3  A    between atoms: C_7  and  O_8
REMARK    4  A    between atoms: O_8  and  C_9
REMARK    5  A    between atoms: N_16  and  C_17
REMARK    6  A    between atoms: C_22  and  O_23
REMARK                            x       y       z     vdW  Elec       q    Type
REMARK                         _______ _______ _______ _____ _____    ______ ____
ROOT
ATOM      1  C   UNL     1       1.740   8.776  18.863  0.00  0.00    +0.000 A 
ATOM      2  C   UNL     1       1.392   8.495  20.181  0.00  0.00    +0.000 A 
ATOM      3  C   UNL     1       0.437   9.276  20.828  0.00  0.00    +0.000 A 
ATOM      4 CL   UNL     1       0.002   8.992  22.458  0.00  0.00    +0.000 Cl
ATOM      5  C   UNL     1      -0.214  10.343  20.178  0.00  0.00    +0.000 A 
ATOM      6  N   UNL     1      -1.211  11.179  20.672  0.00  0.00    +0.000 NA
ATOM      7  C   UNL     1      -1.575  12.057  19.773  0.00  0.00    +0.000 A 
ATOM      8  N   UNL     1      -2.553  12.982  19.930  0.00  0.00    +0.000 N 
ATOM      9  S   UNL     1      -0.720  11.968  18.285  0.00  0.00    +0.000 S 
ATOM     10  C   UNL     1       0.161  10.605  18.858  0.00  0.00    +0.000 A 
ATOM     11  C   UNL     1       1.124   9.830  18.180  0.00  0.00    +0.000 A 
ATOM     12  H   UNL     1      -2.790  13.505  19.094  0.00  0.00    +0.000 HD
ENDROOT
BRANCH   8  13
ATOM     13  C   UNL     1      -3.686  12.664  20.811  0.00  0.00    +0.000 C 
ATOM     14  C   UNL     1      -4.892  13.539  20.424  0.00  0.00    +0.000 C 
ATOM     15  C   UNL     1      -4.696  15.020  20.747  0.00  0.00    +0.000 C 
ATOM     16  C   UNL     1      -4.151  15.296  22.147  0.00  0.00    +0.000 C 
ATOM     17  C   UNL     1      -3.037  14.347  22.599  0.00  0.00    +0.000 C 
ATOM     18  C   UNL     1      -3.342  12.878  22.304  0.00  0.00    +0.000 C 
BRANCH  18  19
ATOM     19  O   UNL     1      -4.421  12.422  23.136  0.00  0.00    +0.000 OA
ATOM     20  H   UNL     1      -4.110  11.684  23.687  0.00  0.00    +0.000 HD
ENDBRANCH  18  19
ENDBRANCH   8  13
BRANCH   1  21
ATOM     21  O   UNL     1       2.691   7.944  18.333  0.00  0.00    +0.000 OA
BRANCH  21  22
ATOM     22  C   UNL     1       2.351   6.558  18.248  0.00  0.00    +0.000 C 
BRANCH  22  27
ATOM     23  C   UNL     1       4.895   3.826  19.102  0.00  0.00    +0.000 A 
ATOM     24  N   UNL     1       6.044   4.341  18.623  0.00  0.00    +0.000 NA
ATOM     25  C   UNL     1       5.982   5.552  18.036  0.00  0.00    +0.000 A 
ATOM     26  C   UNL     1       4.816   6.288  17.906  0.00  0.00    +0.000 A 
ATOM     27  C   UNL     1       3.619   5.762  18.414  0.00  0.00    +0.000 A 
ATOM     28  C   UNL     1       3.666   4.504  19.030  0.00  0.00    +0.000 A 
ATOM     29 CL   UNL     1       2.243   3.757  19.680  0.00  0.00    +0.000 Cl
BRANCH  23  30
ATOM     30  N   UNL     1       5.022   2.585  19.732  0.00  0.00    +0.000 N 
ATOM     31  H   UNL     1       4.496   1.907  19.187  0.00  0.00    +0.000 HD
ATOM     32  H   UNL     1       4.734   2.628  20.703  0.00  0.00    +0.000 HD
ENDBRANCH  23  30
ENDBRANCH  22  27
ENDBRANCH  21  22
ENDBRANCH   1  21
TORSDOF 6
ENDMDL
MODEL 9
REMARK VINA RESULT:      -7.4      1.706      2.024
REMARK  Name = 
REMARK  6 active torsions:
REMARK  status: ('A' for Active; 'I' for Inactive)
REMARK    1  A    between atoms: N_1  and  C_2
REMARK    2  A    between atoms: C_6  and  C_7
REMARK    3  A    between atoms: C_7  and  O_8
REMARK    4  A    between atoms: O_8  and  C_9
REMARK    5  A    between atoms: N_16  and  C_17
REMARK    6  A    between atoms: C_22  and  O_23
REMARK                            x       y       z     vdW  Elec       q    Type
REMARK                         _______ _______ _______ _____ _____    ______ ____
ROOT
ATOM      1  C   UNL     1       1.485   8.521  19.988  0.00  0.00    +0.000 A 
ATOM      2  C   UNL     1       1.275   9.543  19.068  0.00  0.00    +0.000 A 
ATOM      3  C   UNL     1       0.531  10.664  19.433  0.00  0.00    +0.000 A 
ATOM      4 CL   UNL     1       0.215  11.929  18.326  0.00  0.00    +0.000 Cl
ATOM      5  C   UNL     1      -0.007  10.809  20.727  0.00  0.00    +0.000 A 
ATOM      6  N   UNL     1      -0.728  11.877  21.250  0.00  0.00    +0.000 NA
ATOM      7  C   UNL     1      -1.060  11.654  22.496  0.00  0.00    +0.000 A 
ATOM      8  N   UNL     1      -1.727  12.520  23.298  0.00  0.00    +0.000 N 
ATOM      9  S   UNL     1      -0.564  10.130  23.116  0.00  0.00    +0.000 S 
ATOM     10  C   UNL     1       0.216   9.763  21.627  0.00  0.00    +0.000 A 
ATOM     11  C   UNL     1       0.966   8.619  21.283  0.00  0.00    +0.000 A 
ATOM     12  H   UNL     1      -1.798  12.240  24.269  0.00  0.00    +0.000 HD
ENDROOT
BRANCH   8  13
ATOM     13  C   UNL     1      -1.552  13.963  23.073  0.00  0.00    +0.000 C 
ATOM     14  C   UNL     1      -1.526  14.689  24.430  0.00  0.00    +0.000 C 
ATOM     15  C   UNL     1      -2.875  14.680  25.149  0.00  0.00    +0.000 C 
ATOM     16  C   UNL     1      -4.065  15.053  24.269  0.00  0.00    +0.000 C 
ATOM     17  C   UNL     1      -4.039  14.441  22.864  0.00  0.00    +0.000 C 
ATOM     18  C   UNL     1      -2.673  14.553  22.185  0.00  0.00    +0.000 C 
BRANCH  18  19
ATOM     19  O   UNL     1      -2.391  15.928  21.873  0.00  0.00    +0.000 OA
ATOM     20  H   UNL     1      -3.146  16.308  21.392  0.00  0.00    +0.000 HD
ENDBRANCH  18  19
ENDBRANCH   8  13
BRANCH   1  21
ATOM     21  O   UNL     1       2.228   7.471  19.517  0.00  0.00    +0.000 OA
BRANCH  21  22
ATOM     22  C   UNL     1       2.061   6.219  20.186  0.00  0.00    +0.000 C 
BRANCH  22  27
ATOM     23  C   UNL     1       2.383   2.877  18.343  0.00  0.00    +0.000 A 
ATOM     24  N   UNL     1       3.239   3.178  17.347  0.00  0.00    +0.000 NA
ATOM     25  C   UNL     1       3.695   4.444  17.284  0.00  0.00    +0.000 A 
ATOM     26  C   UNL     1       3.340   5.438  18.182  0.00  0.00    +0.000 A 
ATOM     27  C   UNL     1       2.460   5.127  19.228  0.00  0.00    +0.000 A 
ATOM     28  C   UNL     1       1.977   3.813  19.309  0.00  0.00    +0.000 A 
ATOM     29 CL   UNL     1       0.875   3.327  20.556  0.00  0.00    +0.000 Cl
BRANCH  23  30
ATOM     30  N   UNL     1       1.969   1.543  18.383  0.00  0.00    +0.000 N 
ATOM     31  H   UNL     1       2.180   1.128  17.480  0.00  0.00    +0.000 HD
ATOM     32  H   UNL     1       0.993   1.462  18.643  0.00  0.00    +0.000 HD
ENDBRANCH  23  30
ENDBRANCH  22  27
ENDBRANCH  21  22
ENDBRANCH   1  21
TORSDOF 6
ENDMDL
