MODEL 1
REMARK VINA RESULT:      -7.2      0.000      0.000
REMARK  Name = 
REMARK  9 active torsions:
REMARK  status: ('A' for Active; 'I' for Inactive)
REMARK    1  A    between atoms: C_1  and  C_2
REMARK    2  A    between atoms: C_2  and  O_3
REMARK    3  A    between atoms: O_3  and  C_4
REMARK    4  A    between atoms: C_9  and  N_10
REMARK    5  A    between atoms: C_11  and  C_13
REMARK    6  A    between atoms: C_16  and  C_17
REMARK    7  A    between atoms: C_17  and  N_18
REMARK    8  A    between atoms: N_18  and  C_19
REMARK    9  A    between atoms: C_20  and  N_21
REMARK                            x       y       z     vdW  Elec       q    Type
REMARK                         _______ _______ _______ _____ _____    ______ ____
ROOT
ATOM      1  C   UNL     1       0.227   9.684  19.202  0.00  0.00    +0.000 C 
ATOM      2  C   UNL     1       0.757   9.104  17.876  0.00  0.00    +0.000 C 
ATOM      3  C   UNL     1       2.236   8.736  18.001  0.00  0.00    +0.000 C 
ATOM      4  C   UNL     1       2.504   7.753  19.153  0.00  0.00    +0.000 C 
ATOM      5  C   UNL     1       1.818   8.163  20.456  0.00  0.00    +0.000 C 
ATOM      6  C   UNL     1       0.378   8.632  20.301  0.00  0.00    +0.000 C 
ENDROOT
BRANCH   1   8
ATOM      7  N   UNL     1       1.039  11.892  18.339  0.00  0.00    +0.000 N 
ATOM      8  C   UNL     1       0.883  11.058  19.437  0.00  0.00    +0.000 C 
ATOM      9  O   UNL     1       1.237  11.370  20.576  0.00  0.00    +0.000 OA
ATOM     10  H   UNL     1       0.449  11.762  17.531  0.00  0.00    +0.000 HD
BRANCH   7  16
ATOM     11  C   UNL     1       0.847  14.325  18.804  0.00  0.00    +0.000 A 
ATOM     12  C   UNL     1       1.475  15.577  18.800  0.00  0.00    +0.000 A 
ATOM     13  C   UNL     1       2.833  15.704  18.506  0.00  0.00    +0.000 A 
ATOM     14  C   UNL     1       3.583  14.575  18.205  0.00  0.00    +0.000 A 
ATOM     15  C   UNL     1       2.971  13.324  18.193  0.00  0.00    +0.000 A 
ATOM     16  C   UNL     1       1.602  13.184  18.478  0.00  0.00    +0.000 A 
BRANCH  11  17
ATOM     17  O   UNL     1      -0.474  14.421  19.156  0.00  0.00    +0.000 OA
BRANCH  17  19
ATOM     18  C   UNL     1      -2.289  14.219  20.784  0.00  0.00    +0.000 C 
ATOM     19  C   UNL     1      -0.809  14.421  20.534  0.00  0.00    +0.000 C 
ENDBRANCH  17  19
ENDBRANCH  11  17
ENDBRANCH   7  16
ENDBRANCH   1   8
BRANCH   4  20
ATOM     20  C   UNL     1       2.048   6.333  18.848  0.00  0.00    +0.000 C 
BRANCH  20  21
ATOM     21  N   UNL     1       2.169   5.489  20.015  0.00  0.00    +0.000 N 
ATOM     22  H   UNL     1       1.652   5.781  20.841  0.00  0.00    +0.000 HD
BRANCH  21  23
ATOM     23  C   UNL     1       2.982   4.459  20.023  0.00  0.00    +0.000 C 
ATOM     24  C   UNL     1       4.095   4.032  19.349  0.00  0.00    +0.000 C 
ATOM     25  C   UNL     1       4.178   2.802  20.196  0.00  0.00    +0.000 C 
ATOM     26  O   UNL     1       4.870   1.824  20.337  0.00  0.00    +0.000 OA
ATOM     27  C   UNL     1       2.958   3.251  20.885  0.00  0.00    +0.000 C 
ATOM     28  O   UNL     1       2.290   2.787  21.782  0.00  0.00    +0.000 OA
BRANCH  24  29
ATOM     29  N   UNL     1       4.870   4.449  18.363  0.00  0.00    +0.000 N 
ATOM     30  C   UNL     1       5.829   5.546  18.523  0.00  0.00    +0.000 C 
ATOM     31  C   UNL     1       5.642   6.565  17.397  0.00  0.00    +0.000 C 
ATOM     32  C   UNL     1       5.646   5.917  16.013  0.00  0.00    +0.000 C 
ATOM     33  C   UNL     1       4.691   4.728  15.945  0.00  0.00    +0.000 C 
ATOM     34  C   UNL     1       4.973   3.746  17.078  0.00  0.00    +0.000 C 
ENDBRANCH  24  29
ENDBRANCH  21  23
ENDBRANCH  20  21
ENDBRANCH   4  20
TORSDOF 8
ENDMDL
MODEL 2
REMARK VINA RESULT:      -7.1      0.704      1.101
REMARK  Name = 
REMARK  9 active torsions:
REMARK  status: ('A' for Active; 'I' for Inactive)
REMARK    1  A    between atoms: C_1  and  C_2
REMARK    2  A    between atoms: C_2  and  O_3
REMARK    3  A    between atoms: O_3  and  C_4
REMARK    4  A    between atoms: C_9  and  N_10
REMARK    5  A    between atoms: C_11  and  C_13
REMARK    6  A    between atoms: C_16  and  C_17
REMARK    7  A    between atoms: C_17  and  N_18
REMARK    8  A    between atoms: N_18  and  C_19
REMARK    9  A    between atoms: C_20  and  N_21
REMARK                            x       y       z     vdW  Elec       q    Type
REMARK                         _______ _______ _______ _____ _____    ______ ____
ROOT
ATOM      1  C   UNL     1       0.083   9.972  19.322  0.00  0.00    +0.000 C 
ATOM      2  C   UNL     1       0.733   9.234  18.135  0.00  0.00    +0.000 C 
ATOM      3  C   UNL     1       2.162   8.812  18.479  0.00  0.00    +0.000 C 
ATOM      4  C   UNL     1       2.232   7.942  19.746  0.00  0.00    +0.000 C 
ATOM      5  C   UNL     1       1.420   8.517  20.907  0.00  0.00    +0.000 C 
ATOM      6  C   UNL     1       0.040   9.034  20.528  0.00  0.00    +0.000 C 
ENDROOT
BRANCH   1   8
ATOM      7  N   UNL     1       0.913  12.142  18.384  0.00  0.00    +0.000 N 
ATOM      8  C   UNL     1       0.786  11.331  19.502  0.00  0.00    +0.000 C 
ATOM      9  O   UNL     1       1.202  11.651  20.618  0.00  0.00    +0.000 OA
ATOM     10  H   UNL     1       0.282  12.016  17.607  0.00  0.00    +0.000 HD
BRANCH   7  16
ATOM     11  C   UNL     1       0.814  14.583  18.841  0.00  0.00    +0.000 A 
ATOM     12  C   UNL     1       1.472  15.819  18.785  0.00  0.00    +0.000 A 
ATOM     13  C   UNL     1       2.810  15.908  18.399  0.00  0.00    +0.000 A 
ATOM     14  C   UNL     1       3.508  14.759  18.057  0.00  0.00    +0.000 A 
ATOM     15  C   UNL     1       2.866  13.524  18.096  0.00  0.00    +0.000 A 
ATOM     16  C   UNL     1       1.516  13.421  18.474  0.00  0.00    +0.000 A 
BRANCH  11  17
ATOM     17  O   UNL     1      -0.478  14.715  19.280  0.00  0.00    +0.000 OA
BRANCH  17  19
ATOM     18  C   UNL     1      -2.139  16.006  20.527  0.00  0.00    +0.000 C 
ATOM     19  C   UNL     1      -0.720  15.482  20.447  0.00  0.00    +0.000 C 
ENDBRANCH  17  19
ENDBRANCH  11  17
ENDBRANCH   7  16
ENDBRANCH   1   8
BRANCH   4  20
ATOM     20  C   UNL     1       1.733   6.521  19.525  0.00  0.00    +0.000 C 
BRANCH  20  21
ATOM     21  N   UNL     1       2.154   5.653  20.601  0.00  0.00    +0.000 N 
ATOM     22  H   UNL     1       1.939   5.965  21.545  0.00  0.00    +0.000 HD
BRANCH  21  23
ATOM     23  C   UNL     1       2.859   4.572  20.361  0.00  0.00    +0.000 C 
ATOM     24  C   UNL     1       3.862   4.174  19.519  0.00  0.00    +0.000 C 
ATOM     25  C   UNL     1       3.895   2.816  20.144  0.00  0.00    +0.000 C 
ATOM     26  O   UNL     1       4.497   1.774  20.055  0.00  0.00    +0.000 OA
ATOM     27  C   UNL     1       2.789   3.242  21.016  0.00  0.00    +0.000 C 
ATOM     28  O   UNL     1       2.158   2.690  21.889  0.00  0.00    +0.000 OA
BRANCH  24  29
ATOM     29  N   UNL     1       4.587   4.687  18.540  0.00  0.00    +0.000 N 
ATOM     30  C   UNL     1       4.099   4.777  17.160  0.00  0.00    +0.000 C 
ATOM     31  C   UNL     1       5.140   4.193  16.205  0.00  0.00    +0.000 C 
ATOM     32  C   UNL     1       6.533   4.782  16.423  0.00  0.00    +0.000 C 
ATOM     33  C   UNL     1       6.940   4.736  17.894  0.00  0.00    +0.000 C 
ATOM     34  C   UNL     1       5.865   5.373  18.769  0.00  0.00    +0.000 C 
ENDBRANCH  24  29
ENDBRANCH  21  23
ENDBRANCH  20  21
ENDBRANCH   4  20
TORSDOF 8
ENDMDL
MODEL 3
REMARK VINA RESULT:      -7.0      3.122      4.988
REMARK  Name = 
REMARK  9 active torsions:
REMARK  status: ('A' for Active; 'I' for Inactive)
REMARK    1  A    between atoms: C_1  and  C_2
REMARK    2  A    between atoms: C_2  and  O_3
REMARK    3  A    between atoms: O_3  and  C_4
REMARK    4  A    between atoms: C_9  and  N_10
REMARK    5  A    between atoms: C_11  and  C_13
REMARK    6  A    between atoms: C_16  and  C_17
REMARK    7  A    between atoms: C_17  and  N_18
REMARK    8  A    between atoms: N_18  and  C_19
REMARK    9  A    between atoms: C_20  and  N_21
REMARK                            x       y       z     vdW  Elec       q    Type
REMARK                         _______ _______ _______ _____ _____    ______ ____
ROOT
ATOM      1  C   UNL     1       1.169  10.596  19.293  0.00  0.00    +0.000 C 
ATOM      2  C   UNL     1       1.562   9.625  20.423  0.00  0.00    +0.000 C 
ATOM      3  C   UNL     1       1.175   8.190  20.062  0.00  0.00    +0.000 C 
ATOM      4  C   UNL     1       1.792   7.730  18.730  0.00  0.00    +0.000 C 
ATOM      5  C   UNL     1       1.623   8.758  17.610  0.00  0.00    +0.000 C 
ATOM      6  C   UNL     1       1.907  10.197  18.015  0.00  0.00    +0.000 C 
ENDROOT
BRANCH   1   8
ATOM      7  N   UNL     1      -0.928  11.422  18.198  0.00  0.00    +0.000 N 
ATOM      8  C   UNL     1      -0.368  10.683  19.230  0.00  0.00    +0.000 C 
ATOM      9  O   UNL     1      -1.040  10.098  20.083  0.00  0.00    +0.000 OA
ATOM     10  H   UNL     1      -0.394  11.584  17.358  0.00  0.00    +0.000 HD
BRANCH   7  16
ATOM     11  C   UNL     1      -3.002  11.302  16.833  0.00  0.00    +0.000 A 
ATOM     12  C   UNL     1      -4.380  11.543  16.763  0.00  0.00    +0.000 A 
ATOM     13  C   UNL     1      -5.097  11.968  17.882  0.00  0.00    +0.000 A 
ATOM     14  C   UNL     1      -4.441  12.165  19.089  0.00  0.00    +0.000 A 
ATOM     15  C   UNL     1      -3.069  11.942  19.173  0.00  0.00    +0.000 A 
ATOM     16  C   UNL     1      -2.334  11.523  18.052  0.00  0.00    +0.000 A 
BRANCH  11  17
ATOM     17  O   UNL     1      -2.502  10.856  15.638  0.00  0.00    +0.000 OA
BRANCH  17  19
ATOM     18  C   UNL     1      -3.647  10.015  13.646  0.00  0.00    +0.000 C 
ATOM     19  C   UNL     1      -3.108   9.726  15.032  0.00  0.00    +0.000 C 
ENDBRANCH  17  19
ENDBRANCH  11  17
ENDBRANCH   7  16
ENDBRANCH   1   8
BRANCH   4  20
ATOM     20  C   UNL     1       3.282   7.434  18.830  0.00  0.00    +0.000 C 
BRANCH  20  21
ATOM     21  N   UNL     1       3.858   7.233  17.520  0.00  0.00    +0.000 N 
ATOM     22  H   UNL     1       3.809   8.019  16.878  0.00  0.00    +0.000 HD
BRANCH  21  23
ATOM     23  C   UNL     1       4.327   6.061  17.162  0.00  0.00    +0.000 C 
ATOM     24  C   UNL     1       4.128   4.743  17.473  0.00  0.00    +0.000 C 
ATOM     25  C   UNL     1       5.140   4.314  16.459  0.00  0.00    +0.000 C 
ATOM     26  O   UNL     1       5.626   3.306  16.010  0.00  0.00    +0.000 OA
ATOM     27  C   UNL     1       5.375   5.736  16.161  0.00  0.00    +0.000 C 
ATOM     28  O   UNL     1       6.112   6.315  15.395  0.00  0.00    +0.000 OA
BRANCH  24  29
ATOM     29  N   UNL     1       3.377   4.027  18.293  0.00  0.00    +0.000 N 
ATOM     30  C   UNL     1       2.306   3.147  17.816  0.00  0.00    +0.000 C 
ATOM     31  C   UNL     1       1.017   3.438  18.586  0.00  0.00    +0.000 C 
ATOM     32  C   UNL     1       1.221   3.424  20.100  0.00  0.00    +0.000 C 
ATOM     33  C   UNL     1       2.407   4.290  20.517  0.00  0.00    +0.000 C 
ATOM     34  C   UNL     1       3.656   3.907  19.729  0.00  0.00    +0.000 C 
ENDBRANCH  24  29
ENDBRANCH  21  23
ENDBRANCH  20  21
ENDBRANCH   4  20
TORSDOF 8
ENDMDL
MODEL 4
REMARK VINA RESULT:      -7.0      2.866      4.992
REMARK  Name = 
REMARK  9 active torsions:
REMARK  status: ('A' for Active; 'I' for Inactive)
REMARK    1  A    between atoms: C_1  and  C_2
REMARK    2  A    between atoms: C_2  and  O_3
REMARK    3  A    between atoms: O_3  and  C_4
REMARK    4  A    between atoms: C_9  and  N_10
REMARK    5  A    between atoms: C_11  and  C_13
REMARK    6  A    between atoms: C_16  and  C_17
REMARK    7  A    between atoms: C_17  and  N_18
REMARK    8  A    between atoms: N_18  and  C_19
REMARK    9  A    between atoms: C_20  and  N_21
REMARK                            x       y       z     vdW  Elec       q    Type
REMARK                         _______ _______ _______ _____ _____    ______ ____
ROOT
ATOM      1  C   UNL     1       0.671  11.865  19.742  0.00  0.00    +0.000 C 
ATOM      2  C   UNL     1       0.554  10.558  20.550  0.00  0.00    +0.000 C 
ATOM      3  C   UNL     1       0.126   9.401  19.647  0.00  0.00    +0.000 C 
ATOM      4  C   UNL     1       1.075   9.202  18.453  0.00  0.00    +0.000 C 
ATOM      5  C   UNL     1       1.406  10.509  17.733  0.00  0.00    +0.000 C 
ATOM      6  C   UNL     1       1.723  11.682  18.649  0.00  0.00    +0.000 C 
ENDROOT
BRANCH   1   8
ATOM      7  N   UNL     1      -1.822  11.647  19.877  0.00  0.00    +0.000 N 
ATOM      8  C   UNL     1      -0.741  12.302  19.305  0.00  0.00    +0.000 C 
ATOM      9  O   UNL     1      -0.862  13.210  18.480  0.00  0.00    +0.000 OA
ATOM     10  H   UNL     1      -1.706  11.181  20.764  0.00  0.00    +0.000 HD
BRANCH   7  16
ATOM     11  C   UNL     1      -3.823  11.554  18.406  0.00  0.00    +0.000 A 
ATOM     12  C   UNL     1      -5.092  12.068  18.112  0.00  0.00    +0.000 A 
ATOM     13  C   UNL     1      -5.706  13.000  18.949  0.00  0.00    +0.000 A 
ATOM     14  C   UNL     1      -5.052  13.438  20.092  0.00  0.00    +0.000 A 
ATOM     15  C   UNL     1      -3.784  12.946  20.392  0.00  0.00    +0.000 A 
ATOM     16  C   UNL     1      -3.152  12.013  19.553  0.00  0.00    +0.000 A 
BRANCH  11  17
ATOM     17  O   UNL     1      -3.424  10.626  17.479  0.00  0.00    +0.000 OA
BRANCH  17  19
ATOM     18  C   UNL     1      -3.005  10.203  15.107  0.00  0.00    +0.000 C 
ATOM     19  C   UNL     1      -2.750  11.078  16.317  0.00  0.00    +0.000 C 
ENDBRANCH  17  19
ENDBRANCH  11  17
ENDBRANCH   7  16
ENDBRANCH   1   8
BRANCH   4  20
ATOM     20  C   UNL     1       2.404   8.570  18.843  0.00  0.00    +0.000 C 
BRANCH  20  21
ATOM     21  N   UNL     1       3.102   8.075  17.678  0.00  0.00    +0.000 N 
ATOM     22  H   UNL     1       3.076   8.665  16.849  0.00  0.00    +0.000 HD
BRANCH  21  23
ATOM     23  C   UNL     1       3.652   6.884  17.675  0.00  0.00    +0.000 C 
ATOM     24  C   UNL     1       3.356   5.621  18.116  0.00  0.00    +0.000 C 
ATOM     25  C   UNL     1       4.630   5.086  17.547  0.00  0.00    +0.000 C 
ATOM     26  O   UNL     1       5.226   4.042  17.439  0.00  0.00    +0.000 OA
ATOM     27  C   UNL     1       4.957   6.454  17.113  0.00  0.00    +0.000 C 
ATOM     28  O   UNL     1       5.901   6.939  16.530  0.00  0.00    +0.000 OA
BRANCH  24  29
ATOM     29  N   UNL     1       2.381   5.009  18.767  0.00  0.00    +0.000 N 
ATOM     30  C   UNL     1       2.052   5.311  20.163  0.00  0.00    +0.000 C 
ATOM     31  C   UNL     1       1.978   4.013  20.968  0.00  0.00    +0.000 C 
ATOM     32  C   UNL     1       1.072   2.969  20.317  0.00  0.00    +0.000 C 
ATOM     33  C   UNL     1       1.413   2.771  18.842  0.00  0.00    +0.000 C 
ATOM     34  C   UNL     1       1.427   4.108  18.108  0.00  0.00    +0.000 C 
ENDBRANCH  24  29
ENDBRANCH  21  23
ENDBRANCH  20  21
ENDBRANCH   4  20
TORSDOF 8
ENDMDL
MODEL 5
REMARK VINA RESULT:      -7.0      0.926      1.017
REMARK  Name = 
REMARK  9 active torsions:
REMARK  status: ('A' for Active; 'I' for Inactive)
REMARK    1  A    between atoms: C_1  and  C_2
REMARK    2  A    between atoms: C_2  and  O_3
REMARK    3  A    between atoms: O_3  and  C_4
REMARK    4  A    between atoms: C_9  and  N_10
REMARK    5  A    between atoms: C_11  and  C_13
REMARK    6  A    between atoms: C_16  and  C_17
REMARK    7  A    between atoms: C_17  and  N_18
REMARK    8  A    between atoms: N_18  and  C_19
REMARK    9  A    between atoms: C_20  and  N_21
REMARK                            x       y       z     vdW  Elec       q    Type
REMARK                         _______ _______ _______ _____ _____    ______ ____
ROOT
ATOM      1  C   UNL     1      -0.042  10.139  19.631  0.00  0.00    +0.000 C 
ATOM      2  C   UNL     1       0.608   9.247  18.554  0.00  0.00    +0.000 C 
ATOM      3  C   UNL     1       1.990   8.776  19.006  0.00  0.00    +0.000 C 
ATOM      4  C   UNL     1       1.950   8.035  20.354  0.00  0.00    +0.000 C 
ATOM      5  C   UNL     1       1.129   8.772  21.412  0.00  0.00    +0.000 C 
ATOM      6  C   UNL     1      -0.197   9.331  20.919  0.00  0.00    +0.000 C 
ENDROOT
BRANCH   1   8
ATOM      7  N   UNL     1       0.881  12.199  18.543  0.00  0.00    +0.000 N 
ATOM      8  C   UNL     1       0.740  11.464  19.711  0.00  0.00    +0.000 C 
ATOM      9  O   UNL     1       1.204  11.825  20.795  0.00  0.00    +0.000 OA
ATOM     10  H   UNL     1       0.223  12.063  17.790  0.00  0.00    +0.000 HD
BRANCH   7  16
ATOM     11  C   UNL     1       0.905  14.678  18.718  0.00  0.00    +0.000 A 
ATOM     12  C   UNL     1       1.643  15.861  18.580  0.00  0.00    +0.000 A 
ATOM     13  C   UNL     1       3.009  15.831  18.299  0.00  0.00    +0.000 A 
ATOM     14  C   UNL     1       3.657  14.613  18.145  0.00  0.00    +0.000 A 
ATOM     15  C   UNL     1       2.935  13.428  18.267  0.00  0.00    +0.000 A 
ATOM     16  C   UNL     1       1.557  13.444  18.541  0.00  0.00    +0.000 A 
BRANCH  11  17
ATOM     17  O   UNL     1      -0.406  14.931  19.031  0.00  0.00    +0.000 OA
BRANCH  17  19
ATOM     18  C   UNL     1      -0.308  15.639  21.370  0.00  0.00    +0.000 C 
ATOM     19  C   UNL     1      -0.850  14.659  20.350  0.00  0.00    +0.000 C 
ENDBRANCH  17  19
ENDBRANCH  11  17
ENDBRANCH   7  16
ENDBRANCH   1   8
BRANCH   4  20
ATOM     20  C   UNL     1       1.369   6.632  20.249  0.00  0.00    +0.000 C 
BRANCH  20  21
ATOM     21  N   UNL     1       2.267   5.656  20.824  0.00  0.00    +0.000 N 
ATOM     22  H   UNL     1       2.705   5.909  21.707  0.00  0.00    +0.000 HD
BRANCH  21  23
ATOM     23  C   UNL     1       2.566   4.552  20.182  0.00  0.00    +0.000 C 
ATOM     24  C   UNL     1       3.390   4.155  19.162  0.00  0.00    +0.000 C 
ATOM     25  C   UNL     1       2.947   2.735  19.311  0.00  0.00    +0.000 C 
ATOM     26  O   UNL     1       3.159   1.647  18.833  0.00  0.00    +0.000 OA
ATOM     27  C   UNL     1       2.036   3.180  20.378  0.00  0.00    +0.000 C 
ATOM     28  O   UNL     1       1.238   2.605  21.084  0.00  0.00    +0.000 OA
BRANCH  24  29
ATOM     29  N   UNL     1       4.264   4.700  18.334  0.00  0.00    +0.000 N 
ATOM     30  C   UNL     1       4.615   6.123  18.380  0.00  0.00    +0.000 C 
ATOM     31  C   UNL     1       4.501   6.728  16.980  0.00  0.00    +0.000 C 
ATOM     32  C   UNL     1       5.263   5.923  15.929  0.00  0.00    +0.000 C 
ATOM     33  C   UNL     1       4.917   4.438  15.997  0.00  0.00    +0.000 C 
ATOM     34  C   UNL     1       5.094   3.909  17.417  0.00  0.00    +0.000 C 
ENDBRANCH  24  29
ENDBRANCH  21  23
ENDBRANCH  20  21
ENDBRANCH   4  20
TORSDOF 8
ENDMDL
MODEL 6
REMARK VINA RESULT:      -7.0      2.983      4.516
REMARK  Name = 
REMARK  9 active torsions:
REMARK  status: ('A' for Active; 'I' for Inactive)
REMARK    1  A    between atoms: C_1  and  C_2
REMARK    2  A    between atoms: C_2  and  O_3
REMARK    3  A    between atoms: O_3  and  C_4
REMARK    4  A    between atoms: C_9  and  N_10
REMARK    5  A    between atoms: C_11  and  C_13
REMARK    6  A    between atoms: C_16  and  C_17
REMARK    7  A    between atoms: C_17  and  N_18
REMARK    8  A    between atoms: N_18  and  C_19
REMARK    9  A    between atoms: C_20  and  N_21
REMARK                            x       y       z     vdW  Elec       q    Type
REMARK                         _______ _______ _______ _____ _____    ______ ____
ROOT
ATOM      1  C   UNL     1       1.427   9.813  19.722  0.00  0.00    +0.000 C 
ATOM      2  C   UNL     1       1.650   8.679  20.743  0.00  0.00    +0.000 C 
ATOM      3  C   UNL     1       1.210   7.335  20.161  0.00  0.00    +0.000 C 
ATOM      4  C   UNL     1       1.922   7.004  18.838  0.00  0.00    +0.000 C 
ATOM      5  C   UNL     1       1.925   8.175  17.855  0.00  0.00    +0.000 C 
ATOM      6  C   UNL     1       2.258   9.526  18.471  0.00  0.00    +0.000 C 
ENDROOT
BRANCH   1   8
ATOM      7  N   UNL     1      -0.516  10.639  18.373  0.00  0.00    +0.000 N 
ATOM      8  C   UNL     1      -0.088  10.021  19.539  0.00  0.00    +0.000 C 
ATOM      9  O   UNL     1      -0.860   9.632  20.418  0.00  0.00    +0.000 OA
ATOM     10  H   UNL     1       0.079  10.625  17.558  0.00  0.00    +0.000 HD
BRANCH   7  16
ATOM     11  C   UNL     1      -2.688  11.765  18.813  0.00  0.00    +0.000 A 
ATOM     12  C   UNL     1      -4.066  11.800  18.566  0.00  0.00    +0.000 A 
ATOM     13  C   UNL     1      -4.653  10.954  17.625  0.00  0.00    +0.000 A 
ATOM     14  C   UNL     1      -3.867  10.053  16.920  0.00  0.00    +0.000 A 
ATOM     15  C   UNL     1      -2.497   9.997  17.163  0.00  0.00    +0.000 A 
ATOM     16  C   UNL     1      -1.895  10.836  18.114  0.00  0.00    +0.000 A 
BRANCH  11  17
ATOM     17  O   UNL     1      -2.313  12.701  19.742  0.00  0.00    +0.000 OA
BRANCH  17  19
ATOM     18  C   UNL     1      -1.924  12.557  22.152  0.00  0.00    +0.000 C 
ATOM     19  C   UNL     1      -2.924  12.667  21.020  0.00  0.00    +0.000 C 
ENDBRANCH  17  19
ENDBRANCH  11  17
ENDBRANCH   7  16
ENDBRANCH   1   8
BRANCH   4  20
ATOM     20  C   UNL     1       3.374   6.588  19.027  0.00  0.00    +0.000 C 
BRANCH  20  21
ATOM     21  N   UNL     1       4.103   6.678  17.782  0.00  0.00    +0.000 N 
ATOM     22  H   UNL     1       4.162   7.600  17.357  0.00  0.00    +0.000 HD
BRANCH  21  23
ATOM     23  C   UNL     1       4.574   5.603  17.196  0.00  0.00    +0.000 C 
ATOM     24  C   UNL     1       4.407   4.245  17.265  0.00  0.00    +0.000 C 
ATOM     25  C   UNL     1       5.381   4.033  16.152  0.00  0.00    +0.000 C 
ATOM     26  O   UNL     1       5.863   3.135  15.506  0.00  0.00    +0.000 OA
ATOM     27  C   UNL     1       5.583   5.490  16.113  0.00  0.00    +0.000 C 
ATOM     28  O   UNL     1       6.280   6.216  15.440  0.00  0.00    +0.000 OA
BRANCH  24  29
ATOM     29  N   UNL     1       3.700   3.375  17.967  0.00  0.00    +0.000 N 
ATOM     30  C   UNL     1       2.460   2.777  17.463  0.00  0.00    +0.000 C 
ATOM     31  C   UNL     1       1.355   2.921  18.511  0.00  0.00    +0.000 C 
ATOM     32  C   UNL     1       1.784   2.421  19.889  0.00  0.00    +0.000 C 
ATOM     33  C   UNL     1       3.126   3.015  20.311  0.00  0.00    +0.000 C 
ATOM     34  C   UNL     1       4.176   2.793  19.227  0.00  0.00    +0.000 C 
ENDBRANCH  24  29
ENDBRANCH  21  23
ENDBRANCH  20  21
ENDBRANCH   4  20
TORSDOF 8
ENDMDL
MODEL 7
REMARK VINA RESULT:      -6.9      0.994      1.347
REMARK  Name = 
REMARK  9 active torsions:
REMARK  status: ('A' for Active; 'I' for Inactive)
REMARK    1  A    between atoms: C_1  and  C_2
REMARK    2  A    between atoms: C_2  and  O_3
REMARK    3  A    between atoms: O_3  and  C_4
REMARK    4  A    between atoms: C_9  and  N_10
REMARK    5  A    between atoms: C_11  and  C_13
REMARK    6  A    between atoms: C_16  and  C_17
REMARK    7  A    between atoms: C_17  and  N_18
REMARK    8  A    between atoms: N_18  and  C_19
REMARK    9  A    between atoms: C_20  and  N_21
REMARK                            x       y       z     vdW  Elec       q    Type
REMARK                         _______ _______ _______ _____ _____    ______ ____
ROOT
ATOM      1  C   UNL     1       0.076  10.081  19.336  0.00  0.00    +0.000 C 
ATOM      2  C   UNL     1       0.567   9.383  18.053  0.00  0.00    +0.000 C 
ATOM      3  C   UNL     1       2.007   8.896  18.220  0.00  0.00    +0.000 C 
ATOM      4  C   UNL     1       2.177   7.961  19.430  0.00  0.00    +0.000 C 
ATOM      5  C   UNL     1       1.516   8.504  20.697  0.00  0.00    +0.000 C 
ATOM      6  C   UNL     1       0.125   9.085  20.494  0.00  0.00    +0.000 C 
ENDROOT
BRANCH   1   8
ATOM      7  N   UNL     1       0.960  12.227  18.391  0.00  0.00    +0.000 N 
ATOM      8  C   UNL     1       0.847  11.405  19.502  0.00  0.00    +0.000 C 
ATOM      9  O   UNL     1       1.326  11.689  20.603  0.00  0.00    +0.000 OA
ATOM     10  H   UNL     1       0.291  12.141  17.641  0.00  0.00    +0.000 HD
BRANCH   7  16
ATOM     11  C   UNL     1       0.957  14.693  18.704  0.00  0.00    +0.000 A 
ATOM     12  C   UNL     1       1.686  15.887  18.646  0.00  0.00    +0.000 A 
ATOM     13  C   UNL     1       3.058  15.885  18.390  0.00  0.00    +0.000 A 
ATOM     14  C   UNL     1       3.719  14.683  18.181  0.00  0.00    +0.000 A 
ATOM     15  C   UNL     1       3.007  13.487  18.223  0.00  0.00    +0.000 A 
ATOM     16  C   UNL     1       1.624  13.476  18.471  0.00  0.00    +0.000 A 
BRANCH  11  17
ATOM     17  O   UNL     1      -0.361  14.916  19.005  0.00  0.00    +0.000 OA
BRANCH  17  19
ATOM     18  C   UNL     1      -0.910  15.780  21.227  0.00  0.00    +0.000 C 
ATOM     19  C   UNL     1      -0.824  14.583  20.303  0.00  0.00    +0.000 C 
ENDBRANCH  17  19
ENDBRANCH  11  17
ENDBRANCH   7  16
ENDBRANCH   1   8
BRANCH   4  20
ATOM     20  C   UNL     1       1.603   6.571  19.198  0.00  0.00    +0.000 C 
BRANCH  20  21
ATOM     21  N   UNL     1       2.412   5.827  18.259  0.00  0.00    +0.000 N 
ATOM     22  H   UNL     1       2.240   6.006  17.272  0.00  0.00    +0.000 HD
BRANCH  21  23
ATOM     23  C   UNL     1       3.249   4.905  18.670  0.00  0.00    +0.000 C 
ATOM     24  C   UNL     1       4.593   4.648  18.614  0.00  0.00    +0.000 C 
ATOM     25  C   UNL     1       4.424   3.400  19.420  0.00  0.00    +0.000 C 
ATOM     26  O   UNL     1       5.086   2.508  19.890  0.00  0.00    +0.000 OA
ATOM     27  C   UNL     1       2.976   3.665  19.439  0.00  0.00    +0.000 C 
ATOM     28  O   UNL     1       2.030   3.083  19.920  0.00  0.00    +0.000 OA
BRANCH  24  29
ATOM     29  N   UNL     1       5.681   5.202  18.106  0.00  0.00    +0.000 N 
ATOM     30  C   UNL     1       7.030   4.869  18.575  0.00  0.00    +0.000 C 
ATOM     31  C   UNL     1       7.800   6.152  18.886  0.00  0.00    +0.000 C 
ATOM     32  C   UNL     1       7.761   7.155  17.734  0.00  0.00    +0.000 C 
ATOM     33  C   UNL     1       6.336   7.386  17.237  0.00  0.00    +0.000 C 
ATOM     34  C   UNL     1       5.657   6.059  16.914  0.00  0.00    +0.000 C 
ENDBRANCH  24  29
ENDBRANCH  21  23
ENDBRANCH  20  21
ENDBRANCH   4  20
TORSDOF 8
ENDMDL
MODEL 8
REMARK VINA RESULT:      -6.9      2.885      4.950
REMARK  Name = 
REMARK  9 active torsions:
REMARK  status: ('A' for Active; 'I' for Inactive)
REMARK    1  A    between atoms: C_1  and  C_2
REMARK    2  A    between atoms: C_2  and  O_3
REMARK    3  A    between atoms: O_3  and  C_4
REMARK    4  A    between atoms: C_9  and  N_10
REMARK    5  A    between atoms: C_11  and  C_13
REMARK    6  A    between atoms: C_16  and  C_17
REMARK    7  A    between atoms: C_17  and  N_18
REMARK    8  A    between atoms: N_18  and  C_19
REMARK    9  A    between atoms: C_20  and  N_21
REMARK                            x       y       z     vdW  Elec       q    Type
REMARK                         _______ _______ _______ _____ _____    ______ ____
ROOT
ATOM      1  C   UNL     1       0.859  11.575  19.585  0.00  0.00    +0.000 C 
ATOM      2  C   UNL     1       0.724  10.287  20.421  0.00  0.00    +0.000 C 
ATOM      3  C   UNL     1       0.264   9.120  19.545  0.00  0.00    +0.000 C 
ATOM      4  C   UNL     1       1.199   8.878  18.347  0.00  0.00    +0.000 C 
ATOM      5  C   UNL     1       1.549  10.164  17.598  0.00  0.00    +0.000 C 
ATOM      6  C   UNL     1       1.899  11.348  18.487  0.00  0.00    +0.000 C 
ENDROOT
BRANCH   1   8
ATOM      7  N   UNL     1      -1.636  11.408  19.743  0.00  0.00    +0.000 N 
ATOM      8  C   UNL     1      -0.547  12.031  19.151  0.00  0.00    +0.000 C 
ATOM      9  O   UNL     1      -0.657  12.925  18.309  0.00  0.00    +0.000 OA
ATOM     10  H   UNL     1      -1.522  10.957  20.638  0.00  0.00    +0.000 HD
BRANCH   7  16
ATOM     11  C   UNL     1      -3.671  11.283  18.322  0.00  0.00    +0.000 A 
ATOM     12  C   UNL     1      -4.931  11.816  18.021  0.00  0.00    +0.000 A 
ATOM     13  C   UNL     1      -5.497  12.821  18.807  0.00  0.00    +0.000 A 
ATOM     14  C   UNL     1      -4.805  13.311  19.905  0.00  0.00    +0.000 A 
ATOM     15  C   UNL     1      -3.546  12.799  20.212  0.00  0.00    +0.000 A 
ATOM     16  C   UNL     1      -2.961  11.795  19.423  0.00  0.00    +0.000 A 
BRANCH  11  17
ATOM     17  O   UNL     1      -3.321  10.284  17.451  0.00  0.00    +0.000 OA
BRANCH  17  19
ATOM     18  C   UNL     1      -3.230  10.553  15.022  0.00  0.00    +0.000 C 
ATOM     19  C   UNL     1      -2.496  10.610  16.346  0.00  0.00    +0.000 C 
ENDBRANCH  17  19
ENDBRANCH  11  17
ENDBRANCH   7  16
ENDBRANCH   1   8
BRANCH   4  20
ATOM     20  C   UNL     1       2.518   8.227  18.739  0.00  0.00    +0.000 C 
BRANCH  20  21
ATOM     21  N   UNL     1       3.212   7.724  17.575  0.00  0.00    +0.000 N 
ATOM     22  H   UNL     1       2.950   8.132  16.680  0.00  0.00    +0.000 HD
BRANCH  21  23
ATOM     23  C   UNL     1       4.059   6.727  17.672  0.00  0.00    +0.000 C 
ATOM     24  C   UNL     1       4.097   5.468  18.207  0.00  0.00    +0.000 C 
ATOM     25  C   UNL     1       5.485   5.254  17.696  0.00  0.00    +0.000 C 
ATOM     26  O   UNL     1       6.341   4.403  17.677  0.00  0.00    +0.000 OA
ATOM     27  C   UNL     1       5.449   6.624  17.160  0.00  0.00    +0.000 C 
ATOM     28  O   UNL     1       6.247   7.301  16.551  0.00  0.00    +0.000 OA
BRANCH  24  29
ATOM     29  N   UNL     1       3.300   4.665  18.893  0.00  0.00    +0.000 N 
ATOM     30  C   UNL     1       2.789   3.405  18.346  0.00  0.00    +0.000 C 
ATOM     31  C   UNL     1       1.273   3.337  18.534  0.00  0.00    +0.000 C 
ATOM     32  C   UNL     1       0.847   3.621  19.974  0.00  0.00    +0.000 C 
ATOM     33  C   UNL     1       1.487   4.900  20.509  0.00  0.00    +0.000 C 
ATOM     34  C   UNL     1       3.000   4.866  20.316  0.00  0.00    +0.000 C 
ENDBRANCH  24  29
ENDBRANCH  21  23
ENDBRANCH  20  21
ENDBRANCH   4  20
TORSDOF 8
ENDMDL
MODEL 9
REMARK VINA RESULT:      -6.9      2.563      4.330
REMARK  Name = 
REMARK  9 active torsions:
REMARK  status: ('A' for Active; 'I' for Inactive)
REMARK    1  A    between atoms: C_1  and  C_2
REMARK    2  A    between atoms: C_2  and  O_3
REMARK    3  A    between atoms: O_3  and  C_4
REMARK    4  A    between atoms: C_9  and  N_10
REMARK    5  A    between atoms: C_11  and  C_13
REMARK    6  A    between atoms: C_16  and  C_17
REMARK    7  A    between atoms: C_17  and  N_18
REMARK    8  A    between atoms: N_18  and  C_19
REMARK    9  A    between atoms: C_20  and  N_21
REMARK                            x       y       z     vdW  Elec       q    Type
REMARK                         _______ _______ _______ _____ _____    ______ ____
ROOT
ATOM      1  C   UNL     1       0.031  11.438  21.346  0.00  0.00    +0.000 C 
ATOM      2  C   UNL     1       0.168  10.294  22.369  0.00  0.00    +0.000 C 
ATOM      3  C   UNL     1      -0.363   8.983  21.786  0.00  0.00    +0.000 C 
ATOM      4  C   UNL     1       0.330   8.600  20.467  0.00  0.00    +0.000 C 
ATOM      5  C   UNL     1       0.420   9.767  19.483  0.00  0.00    +0.000 C 
ATOM      6  C   UNL     1       0.845  11.092  20.099  0.00  0.00    +0.000 C 
ENDROOT
BRANCH   1   8
ATOM      7  N   UNL     1      -1.912  11.992  19.864  0.00  0.00    +0.000 N 
ATOM      8  C   UNL     1      -1.465  11.753  21.155  0.00  0.00    +0.000 C 
ATOM      9  O   UNL     1      -2.206  11.775  22.141  0.00  0.00    +0.000 OA
ATOM     10  H   UNL     1      -1.383  11.635  19.083  0.00  0.00    +0.000 HD
BRANCH   7  16
ATOM     11  C   UNL     1      -3.988  11.671  18.536  0.00  0.00    +0.000 A 
ATOM     12  C   UNL     1      -5.303  12.086  18.288  0.00  0.00    +0.000 A 
ATOM     13  C   UNL     1      -5.923  13.042  19.094  0.00  0.00    +0.000 A 
ATOM     14  C   UNL     1      -5.230  13.602  20.158  0.00  0.00    +0.000 A 
ATOM     15  C   UNL     1      -3.918  13.209  20.411  0.00  0.00    +0.000 A 
ATOM     16  C   UNL     1      -3.280  12.255  19.602  0.00  0.00    +0.000 A 
BRANCH  11  17
ATOM     17  O   UNL     1      -3.587  10.700  17.655  0.00  0.00    +0.000 OA
BRANCH  17  19
ATOM     18  C   UNL     1      -3.053  10.325  15.298  0.00  0.00    +0.000 C 
ATOM     19  C   UNL     1      -2.742  11.071  16.579  0.00  0.00    +0.000 C 
ENDBRANCH  17  19
ENDBRANCH  11  17
ENDBRANCH   7  16
ENDBRANCH   1   8
BRANCH   4  20
ATOM     20  C   UNL     1       1.748   8.083  20.663  0.00  0.00    +0.000 C 
BRANCH  20  21
ATOM     21  N   UNL     1       2.232   7.434  19.466  0.00  0.00    +0.000 N 
ATOM     22  H   UNL     1       2.087   7.932  18.591  0.00  0.00    +0.000 HD
BRANCH  21  23
ATOM     23  C   UNL     1       2.739   6.226  19.510  0.00  0.00    +0.000 C 
ATOM     24  C   UNL     1       3.849   5.566  19.052  0.00  0.00    +0.000 C 
ATOM     25  C   UNL     1       3.410   4.298  19.711  0.00  0.00    +0.000 C 
ATOM     26  O   UNL     1       3.783   3.160  19.863  0.00  0.00    +0.000 OA
ATOM     27  C   UNL     1       2.201   5.005  20.163  0.00  0.00    +0.000 C 
ATOM     28  O   UNL     1       1.234   4.670  20.809  0.00  0.00    +0.000 OA
BRANCH  24  29
ATOM     29  N   UNL     1       4.928   5.835  18.337  0.00  0.00    +0.000 N 
ATOM     30  C   UNL     1       4.882   6.627  17.105  0.00  0.00    +0.000 C 
ATOM     31  C   UNL     1       5.614   5.885  15.986  0.00  0.00    +0.000 C 
ATOM     32  C   UNL     1       7.015   5.437  16.397  0.00  0.00    +0.000 C 
ATOM     33  C   UNL     1       7.000   4.696  17.732  0.00  0.00    +0.000 C 
ATOM     34  C   UNL     1       6.287   5.523  18.798  0.00  0.00    +0.000 C 
ENDBRANCH  24  29
ENDBRANCH  21  23
ENDBRANCH  20  21
ENDBRANCH   4  20
TORSDOF 8
ENDMDL
