MODEL 1
REMARK VINA RESULT:      -8.6      0.000      0.000
REMARK  Name = 
REMARK  5 active torsions:
REMARK  status: ('A' for Active; 'I' for Inactive)
REMARK    1  A    between atoms: C_2  and  C_4
REMARK    2  A    between atoms: N_7  and  C_8
REMARK    3  A    between atoms: C_12  and  C_13
REMARK    4  A    between atoms: C_18  and  O_19
REMARK    5  A    between atoms: O_19  and  C_20
REMARK                            x       y       z     vdW  Elec       q    Type
REMARK                         _______ _______ _______ _____ _____    ______ ____
ROOT
ATOM      1  C   UNL     1       6.213   4.815  16.188  0.00  0.00    +0.000 A 
ATOM      2  C   UNL     1       7.364   4.987  16.958  0.00  0.00    +0.000 A 
ATOM      3  C   UNL     1       7.251   5.074  18.341  0.00  0.00    +0.000 A 
ATOM      4  C   UNL     1       6.009   4.884  18.962  0.00  0.00    +0.000 A 
ATOM      5  C   UNL     1       4.831   4.682  18.220  0.00  0.00    +0.000 A 
ATOM      6  C   UNL     1       4.955   4.766  16.811  0.00  0.00    +0.000 A 
ENDROOT
BRANCH   5   7
ATOM      7  C   UNL     1       3.534   4.241  18.842  0.00  0.00    +0.000 A 
ATOM      8  C   UNL     1       3.236   2.852  18.829  0.00  0.00    +0.000 A 
ATOM      9  C   UNL     1       2.077   2.315  19.390  0.00  0.00    +0.000 A 
ATOM     10  C   UNL     1       1.159   3.158  19.988  0.00  0.00    +0.000 A 
ATOM     11  C   UNL     1       1.414   4.528  20.043  0.00  0.00    +0.000 A 
ATOM     12  C   UNL     1       2.604   5.074  19.520  0.00  0.00    +0.000 A 
BRANCH  12  13
ATOM     13  O   UNL     1       2.898   6.409  19.629  0.00  0.00    +0.000 OA
BRANCH  13  14
ATOM     14  C   UNL     1       2.521   7.281  18.572  0.00  0.00    +0.000 C 
ATOM     15  F   UNL     1       1.847   8.372  18.998  0.00  0.00    +0.000 F 
ATOM     16  F   UNL     1       3.641   7.716  17.950  0.00  0.00    +0.000 F 
ATOM     17  F   UNL     1       1.767   6.617  17.669  0.00  0.00    +0.000 F 
ENDBRANCH  13  14
ENDBRANCH  12  13
ENDBRANCH   5   7
BRANCH   1  21
ATOM     18  C   UNL     1       5.950   3.597  12.904  0.00  0.00    +0.000 A 
ATOM     19  C   UNL     1       7.111   4.389  12.745  0.00  0.00    +0.000 A 
ATOM     20  C   UNL     1       7.296   5.001  13.958  0.00  0.00    +0.000 A 
ATOM     21  N   UNL     1       6.314   4.531  14.800  0.00  0.00    +0.000 N 
ATOM     22  N   UNL     1       5.498   3.641  14.176  0.00  0.00    +0.000 NA
BRANCH  18  24
ATOM     23  N   UNL     1       5.915   1.655  11.515  0.00  0.00    +0.000 N 
ATOM     24  C   UNL     1       5.286   2.823  11.844  0.00  0.00    +0.000 C 
ATOM     25  O   UNL     1       4.234   3.160  11.309  0.00  0.00    +0.000 OA
ATOM     26  H   UNL     1       5.460   1.017  10.879  0.00  0.00    +0.000 HD
ATOM     27  H   UNL     1       6.732   1.372  12.043  0.00  0.00    +0.000 HD
ENDBRANCH  18  24
ENDBRANCH   1  21
TORSDOF 5
ENDMDL
MODEL 2
REMARK VINA RESULT:      -8.2      4.028      7.478
REMARK  Name = 
REMARK  5 active torsions:
REMARK  status: ('A' for Active; 'I' for Inactive)
REMARK    1  A    between atoms: C_2  and  C_4
REMARK    2  A    between atoms: N_7  and  C_8
REMARK    3  A    between atoms: C_12  and  C_13
REMARK    4  A    between atoms: C_18  and  O_19
REMARK    5  A    between atoms: O_19  and  C_20
REMARK                            x       y       z     vdW  Elec       q    Type
REMARK                         _______ _______ _______ _____ _____    ______ ____
ROOT
ATOM      1  C   UNL     1       2.710   6.179  19.074  0.00  0.00    +0.000 A 
ATOM      2  C   UNL     1       2.720   5.194  20.062  0.00  0.00    +0.000 A 
ATOM      3  C   UNL     1       3.432   4.021  19.845  0.00  0.00    +0.000 A 
ATOM      4  C   UNL     1       4.218   3.873  18.694  0.00  0.00    +0.000 A 
ATOM      5  C   UNL     1       4.254   4.857  17.688  0.00  0.00    +0.000 A 
ATOM      6  C   UNL     1       3.386   5.963  17.862  0.00  0.00    +0.000 A 
ENDROOT
BRANCH   5   7
ATOM      7  C   UNL     1       5.254   4.847  16.565  0.00  0.00    +0.000 A 
ATOM      8  C   UNL     1       4.937   4.089  15.406  0.00  0.00    +0.000 A 
ATOM      9  C   UNL     1       5.771   4.015  14.291  0.00  0.00    +0.000 A 
ATOM     10  C   UNL     1       6.972   4.701  14.294  0.00  0.00    +0.000 A 
ATOM     11  C   UNL     1       7.321   5.475  15.401  0.00  0.00    +0.000 A 
ATOM     12  C   UNL     1       6.463   5.593  16.513  0.00  0.00    +0.000 A 
BRANCH  12  13
ATOM     13  O   UNL     1       6.763   6.405  17.577  0.00  0.00    +0.000 OA
BRANCH  13  14
ATOM     14  C   UNL     1       7.559   5.882  18.632  0.00  0.00    +0.000 C 
ATOM     15  F   UNL     1       8.556   6.713  19.008  0.00  0.00    +0.000 F 
ATOM     16  F   UNL     1       6.769   5.687  19.713  0.00  0.00    +0.000 F 
ATOM     17  F   UNL     1       8.084   4.691  18.273  0.00  0.00    +0.000 F 
ENDBRANCH  13  14
ENDBRANCH  12  13
ENDBRANCH   5   7
BRANCH   1  21
ATOM     18  C   UNL     1       1.145   9.037  20.388  0.00  0.00    +0.000 A 
ATOM     19  C   UNL     1       1.282   9.466  19.047  0.00  0.00    +0.000 A 
ATOM     20  C   UNL     1       1.961   8.457  18.415  0.00  0.00    +0.000 A 
ATOM     21  N   UNL     1       2.154   7.459  19.343  0.00  0.00    +0.000 N 
ATOM     22  N   UNL     1       1.628   7.787  20.553  0.00  0.00    +0.000 NA
BRANCH  18  24
ATOM     23  N   UNL     1      -0.374   9.168  22.224  0.00  0.00    +0.000 N 
ATOM     24  C   UNL     1       0.570   9.826  21.488  0.00  0.00    +0.000 C 
ATOM     25  O   UNL     1       0.919  10.970  21.764  0.00  0.00    +0.000 OA
ATOM     26  H   UNL     1      -0.731   9.602  23.063  0.00  0.00    +0.000 HD
ATOM     27  H   UNL     1      -0.568   8.195  22.018  0.00  0.00    +0.000 HD
ENDBRANCH  18  24
ENDBRANCH   1  21
TORSDOF 5
ENDMDL
MODEL 3
REMARK VINA RESULT:      -8.1      2.209      2.804
REMARK  Name = 
REMARK  5 active torsions:
REMARK  status: ('A' for Active; 'I' for Inactive)
REMARK    1  A    between atoms: C_2  and  C_4
REMARK    2  A    between atoms: N_7  and  C_8
REMARK    3  A    between atoms: C_12  and  C_13
REMARK    4  A    between atoms: C_18  and  O_19
REMARK    5  A    between atoms: O_19  and  C_20
REMARK                            x       y       z     vdW  Elec       q    Type
REMARK                         _______ _______ _______ _____ _____    ______ ____
ROOT
ATOM      1  C   UNL     1       6.551   4.943  16.286  0.00  0.00    +0.000 A 
ATOM      2  C   UNL     1       7.729   4.770  17.013  0.00  0.00    +0.000 A 
ATOM      3  C   UNL     1       7.693   4.856  18.399  0.00  0.00    +0.000 A 
ATOM      4  C   UNL     1       6.469   5.009  19.065  0.00  0.00    +0.000 A 
ATOM      5  C   UNL     1       5.257   5.161  18.367  0.00  0.00    +0.000 A 
ATOM      6  C   UNL     1       5.352   5.236  16.956  0.00  0.00    +0.000 A 
ENDROOT
BRANCH   5   7
ATOM      7  C   UNL     1       3.911   5.088  19.034  0.00  0.00    +0.000 A 
ATOM      8  C   UNL     1       3.172   6.294  19.158  0.00  0.00    +0.000 A 
ATOM      9  C   UNL     1       1.905   6.357  19.739  0.00  0.00    +0.000 A 
ATOM     10  C   UNL     1       1.324   5.201  20.227  0.00  0.00    +0.000 A 
ATOM     11  C   UNL     1       2.002   3.987  20.112  0.00  0.00    +0.000 A 
ATOM     12  C   UNL     1       3.262   3.907  19.485  0.00  0.00    +0.000 A 
BRANCH  12  13
ATOM     13  O   UNL     1       3.906   2.711  19.304  0.00  0.00    +0.000 OA
BRANCH  13  14
ATOM     14  C   UNL     1       3.549   1.904  18.190  0.00  0.00    +0.000 C 
ATOM     15  F   UNL     1       2.231   1.957  17.897  0.00  0.00    +0.000 F 
ATOM     16  F   UNL     1       4.222   2.346  17.103  0.00  0.00    +0.000 F 
ATOM     17  F   UNL     1       3.904   0.620  18.412  0.00  0.00    +0.000 F 
ENDBRANCH  13  14
ENDBRANCH  12  13
ENDBRANCH   5   7
BRANCH   1  21
ATOM     18  C   UNL     1       6.009   3.728  13.034  0.00  0.00    +0.000 A 
ATOM     19  C   UNL     1       7.106   4.578  12.764  0.00  0.00    +0.000 A 
ATOM     20  C   UNL     1       7.385   5.193  13.957  0.00  0.00    +0.000 A 
ATOM     21  N   UNL     1       6.521   4.671  14.892  0.00  0.00    +0.000 N 
ATOM     22  N   UNL     1       5.690   3.743  14.347  0.00  0.00    +0.000 NA
BRANCH  18  24
ATOM     23  N   UNL     1       5.892   1.756  11.693  0.00  0.00    +0.000 N 
ATOM     24  C   UNL     1       5.278   2.926  12.042  0.00  0.00    +0.000 C 
ATOM     25  O   UNL     1       4.187   3.243  11.577  0.00  0.00    +0.000 OA
ATOM     26  H   UNL     1       5.399   1.101  11.105  0.00  0.00    +0.000 HD
ATOM     27  H   UNL     1       6.747   1.490  12.167  0.00  0.00    +0.000 HD
ENDBRANCH  18  24
ENDBRANCH   1  21
TORSDOF 5
ENDMDL
MODEL 4
REMARK VINA RESULT:      -8.1      4.000      7.051
REMARK  Name = 
REMARK  5 active torsions:
REMARK  status: ('A' for Active; 'I' for Inactive)
REMARK    1  A    between atoms: C_2  and  C_4
REMARK    2  A    between atoms: N_7  and  C_8
REMARK    3  A    between atoms: C_12  and  C_13
REMARK    4  A    between atoms: C_18  and  O_19
REMARK    5  A    between atoms: O_19  and  C_20
REMARK                            x       y       z     vdW  Elec       q    Type
REMARK                         _______ _______ _______ _____ _____    ______ ____
ROOT
ATOM      1  C   UNL     1       2.701   5.957  19.174  0.00  0.00    +0.000 A 
ATOM      2  C   UNL     1       2.792   4.975  20.160  0.00  0.00    +0.000 A 
ATOM      3  C   UNL     1       3.571   3.847  19.929  0.00  0.00    +0.000 A 
ATOM      4  C   UNL     1       4.341   3.749  18.762  0.00  0.00    +0.000 A 
ATOM      5  C   UNL     1       4.296   4.732  17.756  0.00  0.00    +0.000 A 
ATOM      6  C   UNL     1       3.365   5.783  17.949  0.00  0.00    +0.000 A 
ENDROOT
BRANCH   5   7
ATOM      7  C   UNL     1       5.273   4.783  16.613  0.00  0.00    +0.000 A 
ATOM      8  C   UNL     1       4.963   4.033  15.448  0.00  0.00    +0.000 A 
ATOM      9  C   UNL     1       5.777   4.013  14.315  0.00  0.00    +0.000 A 
ATOM     10  C   UNL     1       6.947   4.749  14.306  0.00  0.00    +0.000 A 
ATOM     11  C   UNL     1       7.286   5.518  15.420  0.00  0.00    +0.000 A 
ATOM     12  C   UNL     1       6.447   5.580  16.551  0.00  0.00    +0.000 A 
BRANCH  12  13
ATOM     13  O   UNL     1       6.735   6.386  17.623  0.00  0.00    +0.000 OA
BRANCH  13  14
ATOM     14  C   UNL     1       7.545   5.867  18.669  0.00  0.00    +0.000 C 
ATOM     15  F   UNL     1       8.148   4.701  18.346  0.00  0.00    +0.000 F 
ATOM     16  F   UNL     1       8.521   6.762  18.945  0.00  0.00    +0.000 F 
ATOM     17  F   UNL     1       6.807   5.691  19.786  0.00  0.00    +0.000 F 
ENDBRANCH  13  14
ENDBRANCH  12  13
ENDBRANCH   5   7
BRANCH   1  21
ATOM     18  C   UNL     1       1.425   9.230  19.207  0.00  0.00    +0.000 A 
ATOM     19  C   UNL     1       1.176   8.891  20.557  0.00  0.00    +0.000 A 
ATOM     20  C   UNL     1       1.565   7.582  20.675  0.00  0.00    +0.000 A 
ATOM     21  N   UNL     1       2.073   7.200  19.455  0.00  0.00    +0.000 N 
ATOM     22  N   UNL     1       2.025   8.214  18.550  0.00  0.00    +0.000 NA
BRANCH  18  24
ATOM     23  N   UNL     1       2.099  11.087  17.867  0.00  0.00    +0.000 N 
ATOM     24  C   UNL     1       1.078  10.506  18.563  0.00  0.00    +0.000 C 
ATOM     25  O   UNL     1      -0.041  11.010  18.605  0.00  0.00    +0.000 OA
ATOM     26  H   UNL     1       1.907  11.903  17.306  0.00  0.00    +0.000 HD
ATOM     27  H   UNL     1       2.980  10.593  17.784  0.00  0.00    +0.000 HD
ENDBRANCH  18  24
ENDBRANCH   1  21
TORSDOF 5
ENDMDL
MODEL 5
REMARK VINA RESULT:      -8.0      3.998      7.485
REMARK  Name = 
REMARK  5 active torsions:
REMARK  status: ('A' for Active; 'I' for Inactive)
REMARK    1  A    between atoms: C_2  and  C_4
REMARK    2  A    between atoms: N_7  and  C_8
REMARK    3  A    between atoms: C_12  and  C_13
REMARK    4  A    between atoms: C_18  and  O_19
REMARK    5  A    between atoms: O_19  and  C_20
REMARK                            x       y       z     vdW  Elec       q    Type
REMARK                         _______ _______ _______ _____ _____    ______ ____
ROOT
ATOM      1  C   UNL     1       2.628   6.435  18.921  0.00  0.00    +0.000 A 
ATOM      2  C   UNL     1       2.571   5.485  19.941  0.00  0.00    +0.000 A 
ATOM      3  C   UNL     1       3.247   4.281  19.788  0.00  0.00    +0.000 A 
ATOM      4  C   UNL     1       4.065   4.067  18.669  0.00  0.00    +0.000 A 
ATOM      5  C   UNL     1       4.168   5.013  17.633  0.00  0.00    +0.000 A 
ATOM      6  C   UNL     1       3.335   6.154  17.741  0.00  0.00    +0.000 A 
ENDROOT
BRANCH   5   7
ATOM      7  C   UNL     1       5.204   4.929  16.545  0.00  0.00    +0.000 A 
ATOM      8  C   UNL     1       4.892   4.153  15.398  0.00  0.00    +0.000 A 
ATOM      9  C   UNL     1       5.759   4.011  14.314  0.00  0.00    +0.000 A 
ATOM     10  C   UNL     1       6.986   4.648  14.338  0.00  0.00    +0.000 A 
ATOM     11  C   UNL     1       7.331   5.438  15.435  0.00  0.00    +0.000 A 
ATOM     12  C   UNL     1       6.443   5.623  16.514  0.00  0.00    +0.000 A 
BRANCH  12  13
ATOM     13  O   UNL     1       6.743   6.452  17.564  0.00  0.00    +0.000 OA
BRANCH  13  14
ATOM     14  C   UNL     1       7.468   5.924  18.667  0.00  0.00    +0.000 C 
ATOM     15  F   UNL     1       6.696   5.702  19.753  0.00  0.00    +0.000 F 
ATOM     16  F   UNL     1       8.002   4.735  18.303  0.00  0.00    +0.000 F 
ATOM     17  F   UNL     1       8.477   6.755  19.001  0.00  0.00    +0.000 F 
ENDBRANCH  13  14
ENDBRANCH  12  13
ENDBRANCH   5   7
BRANCH   1  21
ATOM     18  C   UNL     1       1.232   9.426  20.125  0.00  0.00    +0.000 A 
ATOM     19  C   UNL     1       1.215   9.724  18.743  0.00  0.00    +0.000 A 
ATOM     20  C   UNL     1       1.814   8.650  18.137  0.00  0.00    +0.000 A 
ATOM     21  N   UNL     1       2.110   7.742  19.128  0.00  0.00    +0.000 N 
ATOM     22  N   UNL     1       1.727   8.190  20.353  0.00  0.00    +0.000 NA
BRANCH  18  24
ATOM     23  N   UNL     1       0.403  11.565  20.786  0.00  0.00    +0.000 N 
ATOM     24  C   UNL     1       0.788  10.322  21.203  0.00  0.00    +0.000 C 
ATOM     25  O   UNL     1       0.728   9.992  22.384  0.00  0.00    +0.000 OA
ATOM     26  H   UNL     1      -0.020  12.195  21.452  0.00  0.00    +0.000 HD
ATOM     27  H   UNL     1       0.384  11.766  19.794  0.00  0.00    +0.000 HD
ENDBRANCH  18  24
ENDBRANCH   1  21
TORSDOF 5
ENDMDL
MODEL 6
REMARK VINA RESULT:      -8.0      5.398      8.807
REMARK  Name = 
REMARK  5 active torsions:
REMARK  status: ('A' for Active; 'I' for Inactive)
REMARK    1  A    between atoms: C_2  and  C_4
REMARK    2  A    between atoms: N_7  and  C_8
REMARK    3  A    between atoms: C_12  and  C_13
REMARK    4  A    between atoms: C_18  and  O_19
REMARK    5  A    between atoms: O_19  and  C_20
REMARK                            x       y       z     vdW  Elec       q    Type
REMARK                         _______ _______ _______ _____ _____    ______ ____
ROOT
ATOM      1  C   UNL     1       1.133   9.053  20.274  0.00  0.00    +0.000 A 
ATOM      2  C   UNL     1       1.241   9.535  18.970  0.00  0.00    +0.000 A 
ATOM      3  C   UNL     1       1.860   8.752  18.004  0.00  0.00    +0.000 A 
ATOM      4  C   UNL     1       2.274   7.448  18.310  0.00  0.00    +0.000 A 
ATOM      5  C   UNL     1       2.158   6.917  19.608  0.00  0.00    +0.000 A 
ATOM      6  C   UNL     1       1.678   7.801  20.606  0.00  0.00    +0.000 A 
ENDROOT
BRANCH   5   7
ATOM      7  C   UNL     1       2.366   5.461  19.921  0.00  0.00    +0.000 A 
ATOM      8  C   UNL     1       1.279   4.748  20.491  0.00  0.00    +0.000 A 
ATOM      9  C   UNL     1       1.339   3.391  20.809  0.00  0.00    +0.000 A 
ATOM     10  C   UNL     1       2.505   2.688  20.569  0.00  0.00    +0.000 A 
ATOM     11  C   UNL     1       3.596   3.339  19.993  0.00  0.00    +0.000 A 
ATOM     12  C   UNL     1       3.529   4.699  19.626  0.00  0.00    +0.000 A 
BRANCH  12  13
ATOM     13  O   UNL     1       4.569   5.331  18.996  0.00  0.00    +0.000 OA
BRANCH  13  14
ATOM     14  C   UNL     1       4.816   5.043  17.626  0.00  0.00    +0.000 C 
ATOM     15  F   UNL     1       3.717   4.612  16.968  0.00  0.00    +0.000 F 
ATOM     16  F   UNL     1       5.233   6.176  17.015  0.00  0.00    +0.000 F 
ATOM     17  F   UNL     1       5.793   4.119  17.514  0.00  0.00    +0.000 F 
ENDBRANCH  13  14
ENDBRANCH  12  13
ENDBRANCH   5   7
BRANCH   1  21
ATOM     18  C   UNL     1      -0.554  11.367  22.310  0.00  0.00    +0.000 A 
ATOM     19  C   UNL     1      -0.800  10.198  23.067  0.00  0.00    +0.000 A 
ATOM     20  C   UNL     1      -0.250   9.176  22.337  0.00  0.00    +0.000 A 
ATOM     21  N   UNL     1       0.342   9.743  21.232  0.00  0.00    +0.000 N 
ATOM     22  N   UNL     1       0.193  11.094  21.218  0.00  0.00    +0.000 NA
BRANCH  18  24
ATOM     23  N   UNL     1      -2.141  13.106  21.920  0.00  0.00    +0.000 N 
ATOM     24  C   UNL     1      -1.041  12.717  22.630  0.00  0.00    +0.000 C 
ATOM     25  O   UNL     1      -0.538  13.440  23.486  0.00  0.00    +0.000 OA
ATOM     26  H   UNL     1      -2.600  13.972  22.164  0.00  0.00    +0.000 HD
ATOM     27  H   UNL     1      -2.577  12.445  21.288  0.00  0.00    +0.000 HD
ENDBRANCH  18  24
ENDBRANCH   1  21
TORSDOF 5
ENDMDL
MODEL 7
REMARK VINA RESULT:      -7.9      1.807      2.794
REMARK  Name = 
REMARK  5 active torsions:
REMARK  status: ('A' for Active; 'I' for Inactive)
REMARK    1  A    between atoms: C_2  and  C_4
REMARK    2  A    between atoms: N_7  and  C_8
REMARK    3  A    between atoms: C_12  and  C_13
REMARK    4  A    between atoms: C_18  and  O_19
REMARK    5  A    between atoms: O_19  and  C_20
REMARK                            x       y       z     vdW  Elec       q    Type
REMARK                         _______ _______ _______ _____ _____    ______ ____
ROOT
ATOM      1  C   UNL     1       6.684   5.032  15.695  0.00  0.00    +0.000 A 
ATOM      2  C   UNL     1       7.628   4.473  16.557  0.00  0.00    +0.000 A 
ATOM      3  C   UNL     1       7.549   4.741  17.918  0.00  0.00    +0.000 A 
ATOM      4  C   UNL     1       6.471   5.476  18.432  0.00  0.00    +0.000 A 
ATOM      5  C   UNL     1       5.486   6.033  17.597  0.00  0.00    +0.000 A 
ATOM      6  C   UNL     1       5.689   5.883  16.202  0.00  0.00    +0.000 A 
ENDROOT
BRANCH   5   7
ATOM      7  C   UNL     1       4.202   6.617  18.118  0.00  0.00    +0.000 A 
ATOM      8  C   UNL     1       3.669   7.746  17.441  0.00  0.00    +0.000 A 
ATOM      9  C   UNL     1       2.477   8.368  17.814  0.00  0.00    +0.000 A 
ATOM     10  C   UNL     1       1.765   7.878  18.894  0.00  0.00    +0.000 A 
ATOM     11  C   UNL     1       2.236   6.759  19.580  0.00  0.00    +0.000 A 
ATOM     12  C   UNL     1       3.416   6.098  19.182  0.00  0.00    +0.000 A 
BRANCH  12  13
ATOM     13  O   UNL     1       3.852   4.956  19.805  0.00  0.00    +0.000 OA
BRANCH  13  14
ATOM     14  C   UNL     1       3.266   3.713  19.442  0.00  0.00    +0.000 C 
ATOM     15  F   UNL     1       1.955   3.632  19.757  0.00  0.00    +0.000 F 
ATOM     16  F   UNL     1       3.368   3.563  18.101  0.00  0.00    +0.000 F 
ATOM     17  F   UNL     1       3.930   2.696  20.032  0.00  0.00    +0.000 F 
ENDBRANCH  13  14
ENDBRANCH  12  13
ENDBRANCH   5   7
BRANCH   1  21
ATOM     18  C   UNL     1       6.063   3.514  12.588  0.00  0.00    +0.000 A 
ATOM     19  C   UNL     1       7.169   4.312  12.217  0.00  0.00    +0.000 A 
ATOM     20  C   UNL     1       7.481   5.036  13.339  0.00  0.00    +0.000 A 
ATOM     21  N   UNL     1       6.625   4.625  14.335  0.00  0.00    +0.000 N 
ATOM     22  N   UNL     1       5.768   3.664  13.898  0.00  0.00    +0.000 NA
BRANCH  18  24
ATOM     23  N   UNL     1       5.894   1.428  11.439  0.00  0.00    +0.000 N 
ATOM     24  C   UNL     1       5.300   2.632  11.692  0.00  0.00    +0.000 C 
ATOM     25  O   UNL     1       4.202   2.919  11.224  0.00  0.00    +0.000 OA
ATOM     26  H   UNL     1       5.380   0.727  10.927  0.00  0.00    +0.000 HD
ATOM     27  H   UNL     1       6.757   1.196  11.916  0.00  0.00    +0.000 HD
ENDBRANCH  18  24
ENDBRANCH   1  21
TORSDOF 5
ENDMDL
MODEL 8
REMARK VINA RESULT:      -7.8      5.247      8.610
REMARK  Name = 
REMARK  5 active torsions:
REMARK  status: ('A' for Active; 'I' for Inactive)
REMARK    1  A    between atoms: C_2  and  C_4
REMARK    2  A    between atoms: N_7  and  C_8
REMARK    3  A    between atoms: C_12  and  C_13
REMARK    4  A    between atoms: C_18  and  O_19
REMARK    5  A    between atoms: O_19  and  C_20
REMARK                            x       y       z     vdW  Elec       q    Type
REMARK                         _______ _______ _______ _____ _____    ______ ____
ROOT
ATOM      1  C   UNL     1       1.305   8.799  20.087  0.00  0.00    +0.000 A 
ATOM      2  C   UNL     1       1.367   9.403  18.832  0.00  0.00    +0.000 A 
ATOM      3  C   UNL     1       1.996   8.738  17.786  0.00  0.00    +0.000 A 
ATOM      4  C   UNL     1       2.469   7.430  17.964  0.00  0.00    +0.000 A 
ATOM      5  C   UNL     1       2.400   6.778  19.208  0.00  0.00    +0.000 A 
ATOM      6  C   UNL     1       1.906   7.546  20.292  0.00  0.00    +0.000 A 
ENDROOT
BRANCH   5   7
ATOM      7  C   UNL     1       2.673   5.309  19.382  0.00  0.00    +0.000 A 
ATOM      8  C   UNL     1       1.557   4.432  19.420  0.00  0.00    +0.000 A 
ATOM      9  C   UNL     1       1.678   3.049  19.558  0.00  0.00    +0.000 A 
ATOM     10  C   UNL     1       2.936   2.484  19.666  0.00  0.00    +0.000 A 
ATOM     11  C   UNL     1       4.065   3.302  19.615  0.00  0.00    +0.000 A 
ATOM     12  C   UNL     1       3.954   4.695  19.430  0.00  0.00    +0.000 A 
BRANCH  12  13
ATOM     13  O   UNL     1       5.057   5.499  19.309  0.00  0.00    +0.000 OA
BRANCH  13  14
ATOM     14  C   UNL     1       5.689   5.606  18.040  0.00  0.00    +0.000 C 
ATOM     15  F   UNL     1       6.006   6.877  17.709  0.00  0.00    +0.000 F 
ATOM     16  F   UNL     1       6.842   4.899  18.071  0.00  0.00    +0.000 F 
ATOM     17  F   UNL     1       4.898   5.080  17.080  0.00  0.00    +0.000 F 
ENDBRANCH  13  14
ENDBRANCH  12  13
ENDBRANCH   5   7
BRANCH   1  21
ATOM     18  C   UNL     1      -0.466  10.843  22.330  0.00  0.00    +0.000 A 
ATOM     19  C   UNL     1      -0.581   9.616  23.023  0.00  0.00    +0.000 A 
ATOM     20  C   UNL     1       0.014   8.687  22.210  0.00  0.00    +0.000 A 
ATOM     21  N   UNL     1       0.506   9.364  21.118  0.00  0.00    +0.000 N 
ATOM     22  N   UNL     1       0.249  10.697  21.193  0.00  0.00    +0.000 NA
BRANCH  18  24
ATOM     23  N   UNL     1      -2.410  12.149  22.788  0.00  0.00    +0.000 N 
ATOM     24  C   UNL     1      -1.045  12.127  22.752  0.00  0.00    +0.000 C 
ATOM     25  O   UNL     1      -0.376  13.101  23.084  0.00  0.00    +0.000 OA
ATOM     26  H   UNL     1      -2.876  12.956  23.176  0.00  0.00    +0.000 HD
ATOM     27  H   UNL     1      -2.921  11.296  22.593  0.00  0.00    +0.000 HD
ENDBRANCH  18  24
ENDBRANCH   1  21
TORSDOF 5
ENDMDL
