MODEL 1
REMARK VINA RESULT:      -9.6      0.000      0.000
REMARK  Name = 
REMARK  7 active torsions:
REMARK  status: ('A' for Active; 'I' for Inactive)
REMARK    1  A    between atoms: C_1  and  N_2
REMARK    2  A    between atoms: C_6  and  C_7
REMARK    3  A    between atoms: C_13  and  O_14
REMARK    4  A    between atoms: O_14  and  C_15
REMARK    5  A    between atoms: C_18  and  S_19
REMARK    6  A    between atoms: S_19  and  N_22
REMARK    7  A    between atoms: N_22  and  C_23
REMARK                            x       y       z     vdW  Elec       q    Type
REMARK                         _______ _______ _______ _____ _____    ______ ____
ROOT
ATOM      1  C   UNL     1       1.471   9.191  19.224  0.00  0.00    +0.000 A 
ATOM      2  C   UNL     1       1.991   9.153  17.927  0.00  0.00    +0.000 A 
ATOM      3  C   UNL     1       2.791   8.076  17.526  0.00  0.00    +0.000 A 
ATOM      4  C   UNL     1       3.056   7.032  18.423  0.00  0.00    +0.000 A 
ATOM      5  C   UNL     1       2.456   7.015  19.682  0.00  0.00    +0.000 A 
ATOM      6  C   UNL     1       1.636   8.075  20.056  0.00  0.00    +0.000 A 
ATOM      7  F   UNL     1       1.061   8.030  21.267  0.00  0.00    +0.000 F 
ENDROOT
BRANCH   4   8
ATOM      8  S   UNL     1       4.348   5.862  18.062  0.00  0.00    +0.000 S 
ATOM      9  O   UNL     1       4.950   6.278  16.814  0.00  0.00    +0.000 OA
ATOM     10  O   UNL     1       5.160   5.704  19.251  0.00  0.00    +0.000 OA
BRANCH   8  11
ATOM     11  N   UNL     1       3.536   4.438  17.718  0.00  0.00    +0.000 N 
ATOM     12  H   UNL     1       4.194   3.793  17.283  0.00  0.00    +0.000 HD
BRANCH  11  13
ATOM     13  C   UNL     1       2.809   3.891  18.801  0.00  0.00    +0.000 A 
ATOM     14  N   UNL     1       3.564   3.488  19.841  0.00  0.00    +0.000 NA
ATOM     15  C   UNL     1       2.880   2.982  20.900  0.00  0.00    +0.000 A 
ATOM     16  C   UNL     1       1.499   2.843  20.937  0.00  0.00    +0.000 A 
ATOM     17  F   UNL     1       0.894   2.352  22.026  0.00  0.00    +0.000 F 
ATOM     18  C   UNL     1       0.748   3.229  19.838  0.00  0.00    +0.000 A 
ATOM     19  C   UNL     1       1.419   3.760  18.748  0.00  0.00    +0.000 A 
ATOM     20  F   UNL     1       0.732   4.167  17.671  0.00  0.00    +0.000 F 
ENDBRANCH  11  13
ENDBRANCH   8  11
ENDBRANCH   4   8
BRANCH   1  21
ATOM     21  O   UNL     1       0.829  10.361  19.599  0.00  0.00    +0.000 OA
BRANCH  21  28
ATOM     22  C   UNL     1      -1.263  11.597  19.684  0.00  0.00    +0.000 A 
ATOM     23  C   UNL     1      -2.516  11.833  19.065  0.00  0.00    +0.000 A 
ATOM     24  C   UNL     1      -2.920  11.153  17.914  0.00  0.00    +0.000 A 
ATOM     25 CL   UNL     1      -4.434  11.519  17.187  0.00  0.00    +0.000 Cl
ATOM     26  C   UNL     1      -2.110  10.178  17.363  0.00  0.00    +0.000 A 
ATOM     27  C   UNL     1      -0.890   9.893  17.966  0.00  0.00    +0.000 A 
ATOM     28  C   UNL     1      -0.426  10.631  19.079  0.00  0.00    +0.000 A 
BRANCH  22  34
ATOM     29  C   UNL     1      -0.867  10.612  22.763  0.00  0.00    +0.000 C 
ATOM     30  N   UNL     1      -0.797  11.945  22.216  0.00  0.00    +0.000 N 
ATOM     31  N   UNL     1      -0.450  12.926  23.081  0.00  0.00    +0.000 NA
ATOM     32  C   UNL     1      -0.411  14.023  22.335  0.00  0.00    +0.000 A 
ATOM     33  C   UNL     1      -0.763  13.757  21.006  0.00  0.00    +0.000 A 
ATOM     34  C   UNL     1      -0.988  12.383  20.917  0.00  0.00    +0.000 A 
ENDBRANCH  22  34
ENDBRANCH  21  28
ENDBRANCH   1  21
TORSDOF 6
ENDMDL
MODEL 2
REMARK VINA RESULT:      -9.4      3.720      8.527
REMARK  Name = 
REMARK  7 active torsions:
REMARK  status: ('A' for Active; 'I' for Inactive)
REMARK    1  A    between atoms: C_1  and  N_2
REMARK    2  A    between atoms: C_6  and  C_7
REMARK    3  A    between atoms: C_13  and  O_14
REMARK    4  A    between atoms: O_14  and  C_15
REMARK    5  A    between atoms: C_18  and  S_19
REMARK    6  A    between atoms: S_19  and  N_22
REMARK    7  A    between atoms: N_22  and  C_23
REMARK                            x       y       z     vdW  Elec       q    Type
REMARK                         _______ _______ _______ _____ _____    ______ ____
ROOT
ATOM      1  C   UNL     1       2.031   7.584  18.503  0.00  0.00    +0.000 A 
ATOM      2  C   UNL     1       2.144   8.662  17.620  0.00  0.00    +0.000 A 
ATOM      3  C   UNL     1       1.729   9.939  18.019  0.00  0.00    +0.000 A 
ATOM      4  C   UNL     1       1.213  10.134  19.308  0.00  0.00    +0.000 A 
ATOM      5  C   UNL     1       1.194   9.083  20.225  0.00  0.00    +0.000 A 
ATOM      6  C   UNL     1       1.641   7.827  19.827  0.00  0.00    +0.000 A 
ATOM      7  F   UNL     1       1.624   6.837  20.731  0.00  0.00    +0.000 F 
ENDROOT
BRANCH   4   8
ATOM      8  S   UNL     1       0.352  11.641  19.697  0.00  0.00    +0.000 S 
ATOM      9  O   UNL     1      -0.666  11.302  20.668  0.00  0.00    +0.000 OA
ATOM     10  O   UNL     1       1.337  12.661  19.995  0.00  0.00    +0.000 OA
BRANCH   8  11
ATOM     11  N   UNL     1      -0.475  12.023  18.292  0.00  0.00    +0.000 N 
ATOM     12  H   UNL     1       0.098  11.742  17.498  0.00  0.00    +0.000 HD
BRANCH  11  13
ATOM     13  C   UNL     1      -1.810  11.557  18.242  0.00  0.00    +0.000 A 
ATOM     14  N   UNL     1      -2.708  12.351  18.858  0.00  0.00    +0.000 NA
ATOM     15  C   UNL     1      -3.999  11.932  18.799  0.00  0.00    +0.000 A 
ATOM     16  C   UNL     1      -4.405  10.755  18.182  0.00  0.00    +0.000 A 
ATOM     17  F   UNL     1      -5.699  10.417  18.148  0.00  0.00    +0.000 F 
ATOM     18  C   UNL     1      -3.456   9.937  17.590  0.00  0.00    +0.000 A 
ATOM     19  C   UNL     1      -2.133  10.347  17.624  0.00  0.00    +0.000 A 
ATOM     20  F   UNL     1      -1.183   9.598  17.045  0.00  0.00    +0.000 F 
ENDBRANCH  11  13
ENDBRANCH   8  11
ENDBRANCH   4   8
BRANCH   1  21
ATOM     21  O   UNL     1       2.307   6.328  17.984  0.00  0.00    +0.000 OA
BRANCH  21  28
ATOM     22  C   UNL     1       3.909   4.533  18.331  0.00  0.00    +0.000 A 
ATOM     23  C   UNL     1       5.271   4.145  18.282  0.00  0.00    +0.000 A 
ATOM     24  C   UNL     1       6.286   5.033  17.920  0.00  0.00    +0.000 A 
ATOM     25 CL   UNL     1       7.915   4.488  17.836  0.00  0.00    +0.000 Cl
ATOM     26  C   UNL     1       5.988   6.353  17.638  0.00  0.00    +0.000 A 
ATOM     27  C   UNL     1       4.666   6.778  17.715  0.00  0.00    +0.000 A 
ATOM     28  C   UNL     1       3.615   5.874  17.993  0.00  0.00    +0.000 A 
BRANCH  22  34
ATOM     29  C   UNL     1       2.547   3.979  21.237  0.00  0.00    +0.000 C 
ATOM     30  N   UNL     1       2.359   3.274  19.994  0.00  0.00    +0.000 N 
ATOM     31  N   UNL     1       1.436   2.283  20.004  0.00  0.00    +0.000 NA
ATOM     32  C   UNL     1       1.421   1.836  18.755  0.00  0.00    +0.000 A 
ATOM     33  C   UNL     1       2.350   2.510  17.953  0.00  0.00    +0.000 A 
ATOM     34  C   UNL     1       2.949   3.479  18.759  0.00  0.00    +0.000 A 
ENDBRANCH  22  34
ENDBRANCH  21  28
ENDBRANCH   1  21
TORSDOF 6
ENDMDL
MODEL 3
REMARK VINA RESULT:      -9.4      3.769      8.550
REMARK  Name = 
REMARK  7 active torsions:
REMARK  status: ('A' for Active; 'I' for Inactive)
REMARK    1  A    between atoms: C_1  and  N_2
REMARK    2  A    between atoms: C_6  and  C_7
REMARK    3  A    between atoms: C_13  and  O_14
REMARK    4  A    between atoms: O_14  and  C_15
REMARK    5  A    between atoms: C_18  and  S_19
REMARK    6  A    between atoms: S_19  and  N_22
REMARK    7  A    between atoms: N_22  and  C_23
REMARK                            x       y       z     vdW  Elec       q    Type
REMARK                         _______ _______ _______ _____ _____    ______ ____
ROOT
ATOM      1  C   UNL     1       2.773   7.154  19.345  0.00  0.00    +0.000 A 
ATOM      2  C   UNL     1       2.026   7.358  20.509  0.00  0.00    +0.000 A 
ATOM      3  C   UNL     1       1.188   8.475  20.615  0.00  0.00    +0.000 A 
ATOM      4  C   UNL     1       1.091   9.378  19.548  0.00  0.00    +0.000 A 
ATOM      5  C   UNL     1       1.754   9.124  18.348  0.00  0.00    +0.000 A 
ATOM      6  C   UNL     1       2.557   7.992  18.243  0.00  0.00    +0.000 A 
ATOM      7  F   UNL     1       3.175   7.764  17.075  0.00  0.00    +0.000 F 
ENDROOT
BRANCH   4   8
ATOM      8  S   UNL     1       0.334  10.968  19.801  0.00  0.00    +0.000 S 
ATOM      9  O   UNL     1      -0.831  10.748  20.631  0.00  0.00    +0.000 OA
ATOM     10  O   UNL     1       1.363  11.899  20.214  0.00  0.00    +0.000 OA
BRANCH   8  11
ATOM     11  N   UNL     1      -0.262  11.390  18.293  0.00  0.00    +0.000 N 
ATOM     12  H   UNL     1       0.331  10.961  17.584  0.00  0.00    +0.000 HD
BRANCH  11  13
ATOM     13  C   UNL     1      -1.646  11.158  18.114  0.00  0.00    +0.000 A 
ATOM     14  N   UNL     1      -2.451  12.067  18.700  0.00  0.00    +0.000 NA
ATOM     15  C   UNL     1      -3.783  11.874  18.518  0.00  0.00    +0.000 A 
ATOM     16  C   UNL     1      -4.322  10.808  17.808  0.00  0.00    +0.000 A 
ATOM     17  F   UNL     1      -5.647  10.695  17.655  0.00  0.00    +0.000 F 
ATOM     18  C   UNL     1      -3.474   9.866  17.249  0.00  0.00    +0.000 A 
ATOM     19  C   UNL     1      -2.109  10.045  17.409  0.00  0.00    +0.000 A 
ATOM     20  F   UNL     1      -1.250   9.171  16.866  0.00  0.00    +0.000 F 
ENDBRANCH  11  13
ENDBRANCH   8  11
ENDBRANCH   4   8
BRANCH   1  21
ATOM     21  O   UNL     1       3.699   6.122  19.377  0.00  0.00    +0.000 OA
BRANCH  21  28
ATOM     22  C   UNL     1       3.755   4.497  17.571  0.00  0.00    +0.000 A 
ATOM     23  C   UNL     1       4.345   4.130  16.336  0.00  0.00    +0.000 A 
ATOM     24  C   UNL     1       5.359   4.883  15.741  0.00  0.00    +0.000 A 
ATOM     25 CL   UNL     1       6.001   4.408  14.218  0.00  0.00    +0.000 Cl
ATOM     26  C   UNL     1       5.855   6.006  16.377  0.00  0.00    +0.000 A 
ATOM     27  C   UNL     1       5.327   6.373  17.609  0.00  0.00    +0.000 A 
ATOM     28  C   UNL     1       4.241   5.674  18.185  0.00  0.00    +0.000 A 
BRANCH  22  34
ATOM     29  C   UNL     1       4.024   1.746  19.295  0.00  0.00    +0.000 C 
ATOM     30  N   UNL     1       2.835   2.426  18.843  0.00  0.00    +0.000 N 
ATOM     31  N   UNL     1       1.656   1.894  19.243  0.00  0.00    +0.000 NA
ATOM     32  C   UNL     1       0.740   2.714  18.743  0.00  0.00    +0.000 A 
ATOM     33  C   UNL     1       1.321   3.747  18.000  0.00  0.00    +0.000 A 
ATOM     34  C   UNL     1       2.704   3.578  18.088  0.00  0.00    +0.000 A 
ENDBRANCH  22  34
ENDBRANCH  21  28
ENDBRANCH   1  21
TORSDOF 6
ENDMDL
MODEL 4
REMARK VINA RESULT:      -9.4      3.695      8.596
REMARK  Name = 
REMARK  7 active torsions:
REMARK  status: ('A' for Active; 'I' for Inactive)
REMARK    1  A    between atoms: C_1  and  N_2
REMARK    2  A    between atoms: C_6  and  C_7
REMARK    3  A    between atoms: C_13  and  O_14
REMARK    4  A    between atoms: O_14  and  C_15
REMARK    5  A    between atoms: C_18  and  S_19
REMARK    6  A    between atoms: S_19  and  N_22
REMARK    7  A    between atoms: N_22  and  C_23
REMARK                            x       y       z     vdW  Elec       q    Type
REMARK                         _______ _______ _______ _____ _____    ______ ____
ROOT
ATOM      1  C   UNL     1       2.684   7.553  18.257  0.00  0.00    +0.000 A 
ATOM      2  C   UNL     1       2.394   8.753  17.601  0.00  0.00    +0.000 A 
ATOM      3  C   UNL     1       1.674   9.755  18.264  0.00  0.00    +0.000 A 
ATOM      4  C   UNL     1       1.257   9.556  19.587  0.00  0.00    +0.000 A 
ATOM      5  C   UNL     1       1.633   8.404  20.278  0.00  0.00    +0.000 A 
ATOM      6  C   UNL     1       2.378   7.430  19.619  0.00  0.00    +0.000 A 
ATOM      7  F   UNL     1       2.736   6.337  20.308  0.00  0.00    +0.000 F 
ENDROOT
BRANCH   4   8
ATOM      8  S   UNL     1       0.046  10.642  20.306  0.00  0.00    +0.000 S 
ATOM      9  O   UNL     1      -1.076   9.816  20.697  0.00  0.00    +0.000 OA
ATOM     10  O   UNL     1       0.712  11.483  21.279  0.00  0.00    +0.000 OA
BRANCH   8  11
ATOM     11  N   UNL     1      -0.503  11.564  19.019  0.00  0.00    +0.000 N 
ATOM     12  H   UNL     1       0.167  11.476  18.255  0.00  0.00    +0.000 HD
BRANCH  11  13
ATOM     13  C   UNL     1      -1.847  11.327  18.647  0.00  0.00    +0.000 A 
ATOM     14  N   UNL     1      -2.750  12.112  19.268  0.00  0.00    +0.000 NA
ATOM     15  C   UNL     1      -4.045  11.915  18.905  0.00  0.00    +0.000 A 
ATOM     16  C   UNL     1      -4.455  10.959  17.984  0.00  0.00    +0.000 A 
ATOM     17  F   UNL     1      -5.749  10.837  17.663  0.00  0.00    +0.000 F 
ATOM     18  C   UNL     1      -3.510  10.138  17.390  0.00  0.00    +0.000 A 
ATOM     19  C   UNL     1      -2.181  10.326  17.733  0.00  0.00    +0.000 A 
ATOM     20  F   UNL     1      -1.229   9.569  17.167  0.00  0.00    +0.000 F 
ENDBRANCH  11  13
ENDBRANCH   8  11
ENDBRANCH   4   8
BRANCH   1  21
ATOM     21  O   UNL     1       3.254   6.550  17.487  0.00  0.00    +0.000 OA
BRANCH  21  28
ATOM     22  C   UNL     1       4.083   4.365  18.156  0.00  0.00    +0.000 A 
ATOM     23  C   UNL     1       3.744   3.039  18.525  0.00  0.00    +0.000 A 
ATOM     24  C   UNL     1       2.421   2.592  18.564  0.00  0.00    +0.000 A 
ATOM     25 CL   UNL     1       2.073   0.984  19.064  0.00  0.00    +0.000 Cl
ATOM     26  C   UNL     1       1.391   3.436  18.194  0.00  0.00    +0.000 A 
ATOM     27  C   UNL     1       1.691   4.731  17.789  0.00  0.00    +0.000 A 
ATOM     28  C   UNL     1       3.014   5.229  17.827  0.00  0.00    +0.000 A 
BRANCH  22  34
ATOM     29  C   UNL     1       6.288   4.005  15.786  0.00  0.00    +0.000 C 
ATOM     30  N   UNL     1       6.455   4.547  17.112  0.00  0.00    +0.000 N 
ATOM     31  N   UNL     1       7.681   5.044  17.402  0.00  0.00    +0.000 NA
ATOM     32  C   UNL     1       7.561   5.514  18.637  0.00  0.00    +0.000 A 
ATOM     33  C   UNL     1       6.278   5.293  19.152  0.00  0.00    +0.000 A 
ATOM     34  C   UNL     1       5.537   4.682  18.138  0.00  0.00    +0.000 A 
ENDBRANCH  22  34
ENDBRANCH  21  28
ENDBRANCH   1  21
TORSDOF 6
ENDMDL
MODEL 5
REMARK VINA RESULT:      -9.4      3.838      8.595
REMARK  Name = 
REMARK  7 active torsions:
REMARK  status: ('A' for Active; 'I' for Inactive)
REMARK    1  A    between atoms: C_1  and  N_2
REMARK    2  A    between atoms: C_6  and  C_7
REMARK    3  A    between atoms: C_13  and  O_14
REMARK    4  A    between atoms: O_14  and  C_15
REMARK    5  A    between atoms: C_18  and  S_19
REMARK    6  A    between atoms: S_19  and  N_22
REMARK    7  A    between atoms: N_22  and  C_23
REMARK                            x       y       z     vdW  Elec       q    Type
REMARK                         _______ _______ _______ _____ _____    ______ ____
ROOT
ATOM      1  C   UNL     1       2.141   7.599  18.471  0.00  0.00    +0.000 A 
ATOM      2  C   UNL     1       2.205   8.695  17.606  0.00  0.00    +0.000 A 
ATOM      3  C   UNL     1       1.745   9.948  18.029  0.00  0.00    +0.000 A 
ATOM      4  C   UNL     1       1.233  10.102  19.325  0.00  0.00    +0.000 A 
ATOM      5  C   UNL     1       1.262   9.037  20.225  0.00  0.00    +0.000 A 
ATOM      6  C   UNL     1       1.754   7.805  19.802  0.00  0.00    +0.000 A 
ATOM      7  F   UNL     1       1.782   6.800  20.690  0.00  0.00    +0.000 F 
ENDROOT
BRANCH   4   8
ATOM      8  S   UNL     1       0.319  11.569  19.746  0.00  0.00    +0.000 S 
ATOM      9  O   UNL     1       0.778  11.986  21.053  0.00  0.00    +0.000 OA
ATOM     10  O   UNL     1       0.382  12.480  18.622  0.00  0.00    +0.000 OA
BRANCH   8  11
ATOM     11  N   UNL     1      -1.252  11.030  19.972  0.00  0.00    +0.000 N 
ATOM     12  H   UNL     1      -1.675  11.583  20.716  0.00  0.00    +0.000 HD
BRANCH  11  13
ATOM     13  C   UNL     1      -2.028  10.947  18.792  0.00  0.00    +0.000 A 
ATOM     14  N   UNL     1      -1.562  10.080  17.871  0.00  0.00    +0.000 NA
ATOM     15  C   UNL     1      -2.309   9.969  16.741  0.00  0.00    +0.000 A 
ATOM     16  C   UNL     1      -3.464  10.703  16.499  0.00  0.00    +0.000 A 
ATOM     17  F   UNL     1      -4.157  10.525  15.369  0.00  0.00    +0.000 F 
ATOM     18  C   UNL     1      -3.899  11.616  17.447  0.00  0.00    +0.000 A 
ATOM     19  C   UNL     1      -3.163  11.741  18.614  0.00  0.00    +0.000 A 
ATOM     20  F   UNL     1      -3.558  12.596  19.568  0.00  0.00    +0.000 F 
ENDBRANCH  11  13
ENDBRANCH   8  11
ENDBRANCH   4   8
BRANCH   1  21
ATOM     21  O   UNL     1       2.461   6.363  17.929  0.00  0.00    +0.000 OA
BRANCH  21  28
ATOM     22  C   UNL     1       4.089   4.742  18.721  0.00  0.00    +0.000 A 
ATOM     23  C   UNL     1       5.449   4.342  18.718  0.00  0.00    +0.000 A 
ATOM     24  C   UNL     1       6.437   5.064  18.047  0.00  0.00    +0.000 A 
ATOM     25 CL   UNL     1       8.062   4.501  18.045  0.00  0.00    +0.000 Cl
ATOM     26  C   UNL     1       6.116   6.238  17.391  0.00  0.00    +0.000 A 
ATOM     27  C   UNL     1       4.798   6.681  17.407  0.00  0.00    +0.000 A 
ATOM     28  C   UNL     1       3.770   5.918  18.005  0.00  0.00    +0.000 A 
BRANCH  22  34
ATOM     29  C   UNL     1       2.340   2.153  17.800  0.00  0.00    +0.000 C 
ATOM     30  N   UNL     1       2.444   2.767  19.100  0.00  0.00    +0.000 N 
ATOM     31  N   UNL     1       1.780   2.148  20.105  0.00  0.00    +0.000 NA
ATOM     32  C   UNL     1       2.070   2.869  21.182  0.00  0.00    +0.000 A 
ATOM     33  C   UNL     1       2.886   3.962  20.869  0.00  0.00    +0.000 A 
ATOM     34  C   UNL     1       3.160   3.881  19.502  0.00  0.00    +0.000 A 
ENDBRANCH  22  34
ENDBRANCH  21  28
ENDBRANCH   1  21
TORSDOF 6
ENDMDL
MODEL 6
REMARK VINA RESULT:      -9.3      3.652      8.824
REMARK  Name = 
REMARK  7 active torsions:
REMARK  status: ('A' for Active; 'I' for Inactive)
REMARK    1  A    between atoms: C_1  and  N_2
REMARK    2  A    between atoms: C_6  and  C_7
REMARK    3  A    between atoms: C_13  and  O_14
REMARK    4  A    between atoms: O_14  and  C_15
REMARK    5  A    between atoms: C_18  and  S_19
REMARK    6  A    between atoms: S_19  and  N_22
REMARK    7  A    between atoms: N_22  and  C_23
REMARK                            x       y       z     vdW  Elec       q    Type
REMARK                         _______ _______ _______ _____ _____    ______ ____
ROOT
ATOM      1  C   UNL     1       1.904   7.835  18.634  0.00  0.00    +0.000 A 
ATOM      2  C   UNL     1       1.951   8.905  17.737  0.00  0.00    +0.000 A 
ATOM      3  C   UNL     1       1.523  10.176  18.141  0.00  0.00    +0.000 A 
ATOM      4  C   UNL     1       1.060  10.373  19.449  0.00  0.00    +0.000 A 
ATOM      5  C   UNL     1       1.109   9.333  20.377  0.00  0.00    +0.000 A 
ATOM      6  C   UNL     1       1.568   8.083  19.972  0.00  0.00    +0.000 A 
ATOM      7  F   UNL     1       1.616   7.103  20.886  0.00  0.00    +0.000 F 
ENDROOT
BRANCH   4   8
ATOM      8  S   UNL     1       0.181  11.863  19.862  0.00  0.00    +0.000 S 
ATOM      9  O   UNL     1       0.957  12.965  19.335  0.00  0.00    +0.000 OA
ATOM     10  O   UNL     1      -1.205  11.693  19.477  0.00  0.00    +0.000 OA
BRANCH   8  11
ATOM     11  N   UNL     1       0.313  11.977  21.528  0.00  0.00    +0.000 N 
ATOM     12  H   UNL     1       1.153  12.511  21.746  0.00  0.00    +0.000 HD
BRANCH  11  13
ATOM     13  C   UNL     1      -0.854  12.428  22.188  0.00  0.00    +0.000 A 
ATOM     14  N   UNL     1      -1.109  13.743  22.048  0.00  0.00    +0.000 NA
ATOM     15  C   UNL     1      -2.239  14.189  22.655  0.00  0.00    +0.000 A 
ATOM     16  C   UNL     1      -3.087  13.383  23.405  0.00  0.00    +0.000 A 
ATOM     17  F   UNL     1      -4.194  13.891  23.958  0.00  0.00    +0.000 F 
ATOM     18  C   UNL     1      -2.781  12.041  23.566  0.00  0.00    +0.000 A 
ATOM     19  C   UNL     1      -1.639  11.557  22.947  0.00  0.00    +0.000 A 
ATOM     20  F   UNL     1      -1.315  10.260  23.057  0.00  0.00    +0.000 F 
ENDBRANCH  11  13
ENDBRANCH   8  11
ENDBRANCH   4   8
BRANCH   1  21
ATOM     21  O   UNL     1       2.188   6.580  18.116  0.00  0.00    +0.000 OA
BRANCH  21  28
ATOM     22  C   UNL     1       3.833   4.946  18.845  0.00  0.00    +0.000 A 
ATOM     23  C   UNL     1       5.188   4.536  18.791  0.00  0.00    +0.000 A 
ATOM     24  C   UNL     1       6.157   5.253  18.085  0.00  0.00    +0.000 A 
ATOM     25 CL   UNL     1       7.776   4.677  18.022  0.00  0.00    +0.000 Cl
ATOM     26  C   UNL     1       5.820   6.430  17.443  0.00  0.00    +0.000 A 
ATOM     27  C   UNL     1       4.507   6.882  17.508  0.00  0.00    +0.000 A 
ATOM     28  C   UNL     1       3.496   6.126  18.143  0.00  0.00    +0.000 A 
BRANCH  22  34
ATOM     29  C   UNL     1       2.333   2.155  18.093  0.00  0.00    +0.000 C 
ATOM     30  N   UNL     1       2.318   2.892  19.332  0.00  0.00    +0.000 N 
ATOM     31  N   UNL     1       1.647   2.318  20.359  0.00  0.00    +0.000 NA
ATOM     32  C   UNL     1       1.822   3.155  21.373  0.00  0.00    +0.000 A 
ATOM     33  C   UNL     1       2.573   4.275  20.997  0.00  0.00    +0.000 A 
ATOM     34  C   UNL     1       2.927   4.091  19.659  0.00  0.00    +0.000 A 
ENDBRANCH  22  34
ENDBRANCH  21  28
ENDBRANCH   1  21
TORSDOF 6
ENDMDL
MODEL 7
REMARK VINA RESULT:      -9.3      1.595      1.893
REMARK  Name = 
REMARK  7 active torsions:
REMARK  status: ('A' for Active; 'I' for Inactive)
REMARK    1  A    between atoms: C_1  and  N_2
REMARK    2  A    between atoms: C_6  and  C_7
REMARK    3  A    between atoms: C_13  and  O_14
REMARK    4  A    between atoms: O_14  and  C_15
REMARK    5  A    between atoms: C_18  and  S_19
REMARK    6  A    between atoms: S_19  and  N_22
REMARK    7  A    between atoms: N_22  and  C_23
REMARK                            x       y       z     vdW  Elec       q    Type
REMARK                         _______ _______ _______ _____ _____    ______ ____
ROOT
ATOM      1  C   UNL     1       1.619   8.995  19.251  0.00  0.00    +0.000 A 
ATOM      2  C   UNL     1       2.104   8.963  17.941  0.00  0.00    +0.000 A 
ATOM      3  C   UNL     1       2.895   7.890  17.513  0.00  0.00    +0.000 A 
ATOM      4  C   UNL     1       3.188   6.843  18.399  0.00  0.00    +0.000 A 
ATOM      5  C   UNL     1       2.622   6.820  19.673  0.00  0.00    +0.000 A 
ATOM      6  C   UNL     1       1.809   7.876  20.074  0.00  0.00    +0.000 A 
ATOM      7  F   UNL     1       1.268   7.824  21.299  0.00  0.00    +0.000 F 
ENDROOT
BRANCH   4   8
ATOM      8  S   UNL     1       4.472   5.679  17.998  0.00  0.00    +0.000 S 
ATOM      9  O   UNL     1       5.023   6.086  16.723  0.00  0.00    +0.000 OA
ATOM     10  O   UNL     1       5.332   5.537  19.156  0.00  0.00    +0.000 OA
BRANCH   8  11
ATOM     11  N   UNL     1       3.657   4.246  17.699  0.00  0.00    +0.000 N 
ATOM     12  H   UNL     1       4.318   3.580  17.303  0.00  0.00    +0.000 HD
BRANCH  11  13
ATOM     13  C   UNL     1       2.909   3.748  18.791  0.00  0.00    +0.000 A 
ATOM     14  N   UNL     1       3.649   3.257  19.805  0.00  0.00    +0.000 NA
ATOM     15  C   UNL     1       2.947   2.796  20.873  0.00  0.00    +0.000 A 
ATOM     16  C   UNL     1       1.560   2.785  20.943  0.00  0.00    +0.000 A 
ATOM     17  F   UNL     1       0.939   2.332  22.039  0.00  0.00    +0.000 F 
ATOM     18  C   UNL     1       0.822   3.260  19.871  0.00  0.00    +0.000 A 
ATOM     19  C   UNL     1       1.512   3.748  18.773  0.00  0.00    +0.000 A 
ATOM     20  F   UNL     1       0.840   4.237  17.721  0.00  0.00    +0.000 F 
ENDBRANCH  11  13
ENDBRANCH   8  11
ENDBRANCH   4   8
BRANCH   1  21
ATOM     21  O   UNL     1       0.984  10.162  19.648  0.00  0.00    +0.000 OA
BRANCH  21  28
ATOM     22  C   UNL     1      -0.309  11.865  18.493  0.00  0.00    +0.000 A 
ATOM     23  C   UNL     1      -1.512  12.166  17.806  0.00  0.00    +0.000 A 
ATOM     24  C   UNL     1      -2.523  11.219  17.623  0.00  0.00    +0.000 A 
ATOM     25 CL   UNL     1      -3.939  11.635  16.741  0.00  0.00    +0.000 Cl
ATOM     26  C   UNL     1      -2.393   9.952  18.159  0.00  0.00    +0.000 A 
ATOM     27  C   UNL     1      -1.243   9.634  18.873  0.00  0.00    +0.000 A 
ATOM     28  C   UNL     1      -0.172  10.550  18.992  0.00  0.00    +0.000 A 
BRANCH  22  34
ATOM     29  C   UNL     1      -0.613  14.746  19.982  0.00  0.00    +0.000 C 
ATOM     30  N   UNL     1       0.523  14.195  19.286  0.00  0.00    +0.000 N 
ATOM     31  N   UNL     1       1.653  14.941  19.306  0.00  0.00    +0.000 NA
ATOM     32  C   UNL     1       2.543  14.206  18.651  0.00  0.00    +0.000 A 
ATOM     33  C   UNL     1       1.984  13.011  18.183  0.00  0.00    +0.000 A 
ATOM     34  C   UNL     1       0.660  12.986  18.626  0.00  0.00    +0.000 A 
ENDBRANCH  22  34
ENDBRANCH  21  28
ENDBRANCH   1  21
TORSDOF 6
ENDMDL
MODEL 8
REMARK VINA RESULT:      -9.3      4.196      9.285
REMARK  Name = 
REMARK  7 active torsions:
REMARK  status: ('A' for Active; 'I' for Inactive)
REMARK    1  A    between atoms: C_1  and  N_2
REMARK    2  A    between atoms: C_6  and  C_7
REMARK    3  A    between atoms: C_13  and  O_14
REMARK    4  A    between atoms: O_14  and  C_15
REMARK    5  A    between atoms: C_18  and  S_19
REMARK    6  A    between atoms: S_19  and  N_22
REMARK    7  A    between atoms: N_22  and  C_23
REMARK                            x       y       z     vdW  Elec       q    Type
REMARK                         _______ _______ _______ _____ _____    ______ ____
ROOT
ATOM      1  C   UNL     1       1.965   7.695  18.587  0.00  0.00    +0.000 A 
ATOM      2  C   UNL     1       1.990   8.766  17.690  0.00  0.00    +0.000 A 
ATOM      3  C   UNL     1       1.544  10.030  18.097  0.00  0.00    +0.000 A 
ATOM      4  C   UNL     1       1.087  10.219  19.409  0.00  0.00    +0.000 A 
ATOM      5  C   UNL     1       1.157   9.180  20.336  0.00  0.00    +0.000 A 
ATOM      6  C   UNL     1       1.634   7.938  19.927  0.00  0.00    +0.000 A 
ATOM      7  F   UNL     1       1.702   6.958  20.840  0.00  0.00    +0.000 F 
ENDROOT
BRANCH   4   8
ATOM      8  S   UNL     1       0.187  11.695  19.827  0.00  0.00    +0.000 S 
ATOM      9  O   UNL     1      -1.192  11.302  20.024  0.00  0.00    +0.000 OA
ATOM     10  O   UNL     1       0.909  12.384  20.877  0.00  0.00    +0.000 OA
BRANCH   8  11
ATOM     11  N   UNL     1       0.199  12.604  18.420  0.00  0.00    +0.000 N 
ATOM     12  H   UNL     1      -0.749  12.624  18.045  0.00  0.00    +0.000 HD
BRANCH  11  13
ATOM     13  C   UNL     1       0.808  13.875  18.537  0.00  0.00    +0.000 A 
ATOM     14  N   UNL     1      -0.041  14.885  18.809  0.00  0.00    +0.000 NA
ATOM     15  C   UNL     1       0.530  16.109  18.950  0.00  0.00    +0.000 A 
ATOM     16  C   UNL     1       1.890  16.352  18.800  0.00  0.00    +0.000 A 
ATOM     17  F   UNL     1       2.382  17.585  18.972  0.00  0.00    +0.000 F 
ATOM     18  C   UNL     1       2.736  15.303  18.480  0.00  0.00    +0.000 A 
ATOM     19  C   UNL     1       2.181  14.040  18.344  0.00  0.00    +0.000 A 
ATOM     20  F   UNL     1       2.965  12.991  18.057  0.00  0.00    +0.000 F 
ENDBRANCH  11  13
ENDBRANCH   8  11
ENDBRANCH   4   8
BRANCH   1  21
ATOM     21  O   UNL     1       2.265   6.445  18.067  0.00  0.00    +0.000 OA
BRANCH  21  28
ATOM     22  C   UNL     1       3.921   4.833  18.822  0.00  0.00    +0.000 A 
ATOM     23  C   UNL     1       5.280   4.435  18.779  0.00  0.00    +0.000 A 
ATOM     24  C   UNL     1       6.246   5.152  18.069  0.00  0.00    +0.000 A 
ATOM     25 CL   UNL     1       7.870   4.590  18.021  0.00  0.00    +0.000 Cl
ATOM     26  C   UNL     1       5.902   6.319  17.413  0.00  0.00    +0.000 A 
ATOM     27  C   UNL     1       4.585   6.761  17.466  0.00  0.00    +0.000 A 
ATOM     28  C   UNL     1       3.577   6.002  18.105  0.00  0.00    +0.000 A 
BRANCH  22  34
ATOM     29  C   UNL     1       2.274   2.139  18.024  0.00  0.00    +0.000 C 
ATOM     30  N   UNL     1       2.346   2.821  19.292  0.00  0.00    +0.000 N 
ATOM     31  N   UNL     1       1.699   2.230  20.324  0.00  0.00    +0.000 NA
ATOM     32  C   UNL     1       1.955   3.014  21.364  0.00  0.00    +0.000 A 
ATOM     33  C   UNL     1       2.733   4.119  21.000  0.00  0.00    +0.000 A 
ATOM     34  C   UNL     1       3.018   3.979  19.641  0.00  0.00    +0.000 A 
ENDBRANCH  22  34
ENDBRANCH  21  28
ENDBRANCH   1  21
TORSDOF 6
ENDMDL
MODEL 9
REMARK VINA RESULT:      -9.2      2.403      3.358
REMARK  Name = 
REMARK  7 active torsions:
REMARK  status: ('A' for Active; 'I' for Inactive)
REMARK    1  A    between atoms: C_1  and  N_2
REMARK    2  A    between atoms: C_6  and  C_7
REMARK    3  A    between atoms: C_13  and  O_14
REMARK    4  A    between atoms: O_14  and  C_15
REMARK    5  A    between atoms: C_18  and  S_19
REMARK    6  A    between atoms: S_19  and  N_22
REMARK    7  A    between atoms: N_22  and  C_23
REMARK                            x       y       z     vdW  Elec       q    Type
REMARK                         _______ _______ _______ _____ _____    ______ ____
ROOT
ATOM      1  C   UNL     1       1.091   9.925  19.404  0.00  0.00    +0.000 A 
ATOM      2  C   UNL     1       0.993   9.215  20.604  0.00  0.00    +0.000 A 
ATOM      3  C   UNL     1       1.514   7.918  20.693  0.00  0.00    +0.000 A 
ATOM      4  C   UNL     1       2.144   7.341  19.582  0.00  0.00    +0.000 A 
ATOM      5  C   UNL     1       2.336   8.083  18.417  0.00  0.00    +0.000 A 
ATOM      6  C   UNL     1       1.843   9.383  18.352  0.00  0.00    +0.000 A 
ATOM      7  F   UNL     1       2.050  10.080  17.225  0.00  0.00    +0.000 F 
ENDROOT
BRANCH   4   8
ATOM      8  S   UNL     1       2.474   5.593  19.561  0.00  0.00    +0.000 S 
ATOM      9  O   UNL     1       2.173   5.096  20.886  0.00  0.00    +0.000 OA
ATOM     10  O   UNL     1       1.825   5.023  18.399  0.00  0.00    +0.000 OA
BRANCH   8  11
ATOM     11  N   UNL     1       4.139   5.486  19.409  0.00  0.00    +0.000 N 
ATOM     12  H   UNL     1       4.477   4.798  20.081  0.00  0.00    +0.000 HD
BRANCH  11  13
ATOM     13  C   UNL     1       4.605   5.290  18.088  0.00  0.00    +0.000 A 
ATOM     14  N   UNL     1       4.927   6.421  17.430  0.00  0.00    +0.000 NA
ATOM     15  C   UNL     1       5.399   6.250  16.168  0.00  0.00    +0.000 A 
ATOM     16  C   UNL     1       5.528   5.013  15.548  0.00  0.00    +0.000 A 
ATOM     17  F   UNL     1       6.020   4.923  14.307  0.00  0.00    +0.000 F 
ATOM     18  C   UNL     1       5.152   3.868  16.234  0.00  0.00    +0.000 A 
ATOM     19  C   UNL     1       4.679   4.013  17.528  0.00  0.00    +0.000 A 
ATOM     20  F   UNL     1       4.324   2.932  18.236  0.00  0.00    +0.000 F 
ENDBRANCH  11  13
ENDBRANCH   8  11
ENDBRANCH   4   8
BRANCH   1  21
ATOM     21  O   UNL     1       0.411  11.132  19.342  0.00  0.00    +0.000 OA
BRANCH  21  28
ATOM     22  C   UNL     1      -1.855  11.950  19.661  0.00  0.00    +0.000 A 
ATOM     23  C   UNL     1      -3.197  11.907  19.206  0.00  0.00    +0.000 A 
ATOM     24  C   UNL     1      -3.598  11.097  18.141  0.00  0.00    +0.000 A 
ATOM     25 CL   UNL     1      -5.232  11.126  17.608  0.00  0.00    +0.000 Cl
ATOM     26  C   UNL     1      -2.686  10.264  17.519  0.00  0.00    +0.000 A 
ATOM     27  C   UNL     1      -1.369  10.251  17.966  0.00  0.00    +0.000 A 
ATOM     28  C   UNL     1      -0.926  11.128  18.983  0.00  0.00    +0.000 A 
BRANCH  22  34
ATOM     29  C   UNL     1      -1.268  11.230  22.782  0.00  0.00    +0.000 C 
ATOM     30  N   UNL     1      -1.317  12.519  22.138  0.00  0.00    +0.000 N 
ATOM     31  N   UNL     1      -1.009  13.585  22.914  0.00  0.00    +0.000 NA
ATOM     32  C   UNL     1      -1.080  14.622  22.089  0.00  0.00    +0.000 A 
ATOM     33  C   UNL     1      -1.463  14.234  20.800  0.00  0.00    +0.000 A 
ATOM     34  C   UNL     1      -1.591  12.844  20.821  0.00  0.00    +0.000 A 
ENDBRANCH  22  34
ENDBRANCH  21  28
ENDBRANCH   1  21
TORSDOF 6
ENDMDL
