MODEL 1
REMARK VINA RESULT:      -8.4      0.000      0.000
REMARK  Name = 
REMARK  8 active torsions:
REMARK  status: ('A' for Active; 'I' for Inactive)
REMARK    1  A    between atoms: C_2  and  C_3
REMARK    2  A    between atoms: C_3  and  N_4
REMARK    3  A    between atoms: N_4  and  C_5
REMARK    4  A    between atoms: N_4  and  C_18
REMARK    5  A    between atoms: C_5  and  C_6
REMARK    6  A    between atoms: C_14  and  O_15
REMARK    7  A    between atoms: C_21  and  C_22
REMARK    8  A    between atoms: C_22  and  O_24
REMARK                            x       y       z     vdW  Elec       q    Type
REMARK                         _______ _______ _______ _____ _____    ______ ____
ROOT
ATOM      1  C   UNL     1       2.845   6.325  19.517  0.00  0.00    +0.000 C 
ENDROOT
BRANCH   1   2
ATOM      2  C   UNL     1       2.213   7.696  19.319  0.00  0.00    +0.000 A 
ATOM      3  C   UNL     1       2.008   8.298  18.075  0.00  0.00    +0.000 A 
ATOM      4  C   UNL     1       1.156   9.405  17.955  0.00  0.00    +0.000 A 
ATOM      5  C   UNL     1       0.510   9.953  19.056  0.00  0.00    +0.000 A 
ATOM      6  N   UNL     1      -0.456  10.870  18.890  0.00  0.00    +0.000 NA
ATOM      7  C   UNL     1      -1.092  11.306  19.982  0.00  0.00    +0.000 A 
ATOM      8  N   UNL     1      -2.247  12.027  19.798  0.00  0.00    +0.000 N 
ATOM      9  N   UNL     1      -0.735  11.037  21.238  0.00  0.00    +0.000 NA
ATOM     10  C   UNL     1       0.238  10.129  21.359  0.00  0.00    +0.000 A 
ATOM     11  C   UNL     1       0.861   9.472  20.312  0.00  0.00    +0.000 A 
ATOM     12  C   UNL     1       1.720   8.361  20.450  0.00  0.00    +0.000 A 
ATOM     13  H   UNL     1      -2.318  12.424  18.874  0.00  0.00    +0.000 HD
ATOM     14  H   UNL     1      -2.506  12.576  20.602  0.00  0.00    +0.000 HD
BRANCH  10  15
ATOM     15  O   UNL     1       0.551   9.852  22.655  0.00  0.00    +0.000 OA
ATOM     16  H   UNL     1       1.303  10.458  22.785  0.00  0.00    +0.000 HD
ENDBRANCH  10  15
ENDBRANCH   1   2
BRANCH   1  17
ATOM     17  N   UNL     1       2.719   5.381  18.389  0.00  0.00    +0.000 N 
BRANCH  17  18
ATOM     18  C   UNL     1       3.779   5.180  17.491  0.00  0.00    +0.000 A 
ATOM     19  C   UNL     1       4.491   6.248  16.916  0.00  0.00    +0.000 A 
ATOM     20  C   UNL     1       5.472   6.049  15.928  0.00  0.00    +0.000 A 
ATOM     21  C   UNL     1       5.765   4.763  15.475  0.00  0.00    +0.000 A 
ATOM     22  C   UNL     1       5.143   3.680  16.082  0.00  0.00    +0.000 A 
ATOM     23  C   UNL     1       4.176   3.893  17.076  0.00  0.00    +0.000 A 
BRANCH  21  24
ATOM     24  C   UNL     1       6.755   4.606  14.377  0.00  0.00    +0.000 C 
ATOM     25  O   UNL     1       7.654   5.405  14.177  0.00  0.00    +0.000 OA
BRANCH  24  26
ATOM     26  O   UNL     1       6.539   3.531  13.588  0.00  0.00    +0.000 OA
ATOM     27  H   UNL     1       7.340   3.091  13.251  0.00  0.00    +0.000 HD
ENDBRANCH  24  26
ENDBRANCH  21  24
ENDBRANCH  17  18
BRANCH  17  28
ATOM     28  C   UNL     1       1.547   4.492  18.330  0.00  0.00    +0.000 C 
BRANCH  28  30
ATOM     29  C   UNL     1       0.994   3.137  20.571  0.00  0.00    +0.000 C 
ATOM     30  C   UNL     1       1.251   3.741  19.563  0.00  0.00    +0.000 C 
ENDBRANCH  28  30
ENDBRANCH  17  28
ENDBRANCH   1  17
TORSDOF 8
ENDMDL
MODEL 2
REMARK VINA RESULT:      -8.2      1.392      1.609
REMARK  Name = 
REMARK  8 active torsions:
REMARK  status: ('A' for Active; 'I' for Inactive)
REMARK    1  A    between atoms: C_2  and  C_3
REMARK    2  A    between atoms: C_3  and  N_4
REMARK    3  A    between atoms: N_4  and  C_5
REMARK    4  A    between atoms: N_4  and  C_18
REMARK    5  A    between atoms: C_5  and  C_6
REMARK    6  A    between atoms: C_14  and  O_15
REMARK    7  A    between atoms: C_21  and  C_22
REMARK    8  A    between atoms: C_22  and  O_24
REMARK                            x       y       z     vdW  Elec       q    Type
REMARK                         _______ _______ _______ _____ _____    ______ ____
ROOT
ATOM      1  C   UNL     1       2.195   6.401  20.533  0.00  0.00    +0.000 C 
ENDROOT
BRANCH   1   2
ATOM      2  C   UNL     1       1.841   7.739  19.899  0.00  0.00    +0.000 A 
ATOM      3  C   UNL     1       2.137   8.090  18.579  0.00  0.00    +0.000 A 
ATOM      4  C   UNL     1       1.519   9.198  17.984  0.00  0.00    +0.000 A 
ATOM      5  C   UNL     1       0.618   9.994  18.680  0.00  0.00    +0.000 A 
ATOM      6  N   UNL     1      -0.115  10.914  18.036  0.00  0.00    +0.000 NA
ATOM      7  C   UNL     1      -1.018  11.598  18.747  0.00  0.00    +0.000 A 
ATOM      8  N   UNL     1      -1.947  12.334  18.052  0.00  0.00    +0.000 N 
ATOM      9  N   UNL     1      -1.134  11.566  20.074  0.00  0.00    +0.000 NA
ATOM     10  C   UNL     1      -0.379  10.645  20.679  0.00  0.00    +0.000 A 
ATOM     11  C   UNL     1       0.469   9.755  20.043  0.00  0.00    +0.000 A 
ATOM     12  C   UNL     1       1.088   8.646  20.657  0.00  0.00    +0.000 A 
ATOM     13  H   UNL     1      -1.658  12.541  17.108  0.00  0.00    +0.000 HD
ATOM     14  H   UNL     1      -2.388  13.048  18.610  0.00  0.00    +0.000 HD
BRANCH  10  15
ATOM     15  O   UNL     1      -0.550  10.617  22.029  0.00  0.00    +0.000 OA
ATOM     16  H   UNL     1      -0.879   9.707  22.144  0.00  0.00    +0.000 HD
ENDBRANCH  10  15
ENDBRANCH   1   2
BRANCH   1  17
ATOM     17  N   UNL     1       2.327   5.257  19.609  0.00  0.00    +0.000 N 
BRANCH  17  18
ATOM     18  C   UNL     1       3.505   5.053  18.873  0.00  0.00    +0.000 A 
ATOM     19  C   UNL     1       4.783   5.201  19.442  0.00  0.00    +0.000 A 
ATOM     20  C   UNL     1       5.959   5.114  18.677  0.00  0.00    +0.000 A 
ATOM     21  C   UNL     1       5.890   4.881  17.303  0.00  0.00    +0.000 A 
ATOM     22  C   UNL     1       4.650   4.643  16.725  0.00  0.00    +0.000 A 
ATOM     23  C   UNL     1       3.486   4.721  17.503  0.00  0.00    +0.000 A 
BRANCH  21  24
ATOM     24  C   UNL     1       7.154   4.869  16.522  0.00  0.00    +0.000 C 
ATOM     25  O   UNL     1       7.277   5.441  15.452  0.00  0.00    +0.000 OA
BRANCH  24  26
ATOM     26  O   UNL     1       8.137   4.123  17.073  0.00  0.00    +0.000 OA
ATOM     27  H   UNL     1       8.080   3.166  16.904  0.00  0.00    +0.000 HD
ENDBRANCH  24  26
ENDBRANCH  21  24
ENDBRANCH  17  18
BRANCH  17  28
ATOM     28  C   UNL     1       1.293   4.209  19.619  0.00  0.00    +0.000 C 
BRANCH  28  30
ATOM     29  C   UNL     1       1.339   2.549  21.717  0.00  0.00    +0.000 C 
ATOM     30  C   UNL     1       1.324   3.289  20.769  0.00  0.00    +0.000 C 
ENDBRANCH  28  30
ENDBRANCH  17  28
ENDBRANCH   1  17
TORSDOF 8
ENDMDL
MODEL 3
REMARK VINA RESULT:      -8.2      1.449      1.930
REMARK  Name = 
REMARK  8 active torsions:
REMARK  status: ('A' for Active; 'I' for Inactive)
REMARK    1  A    between atoms: C_2  and  C_3
REMARK    2  A    between atoms: C_3  and  N_4
REMARK    3  A    between atoms: N_4  and  C_5
REMARK    4  A    between atoms: N_4  and  C_18
REMARK    5  A    between atoms: C_5  and  C_6
REMARK    6  A    between atoms: C_14  and  O_15
REMARK    7  A    between atoms: C_21  and  C_22
REMARK    8  A    between atoms: C_22  and  O_24
REMARK                            x       y       z     vdW  Elec       q    Type
REMARK                         _______ _______ _______ _____ _____    ______ ____
ROOT
ATOM      1  C   UNL     1       3.062   5.998  19.754  0.00  0.00    +0.000 C 
ENDROOT
BRANCH   1   2
ATOM      2  C   UNL     1       2.081   7.140  19.983  0.00  0.00    +0.000 A 
ATOM      3  C   UNL     1       1.261   7.261  21.108  0.00  0.00    +0.000 A 
ATOM      4  C   UNL     1       0.621   8.476  21.390  0.00  0.00    +0.000 A 
ATOM      5  C   UNL     1       0.757   9.584  20.564  0.00  0.00    +0.000 A 
ATOM      6  N   UNL     1       0.312  10.786  20.960  0.00  0.00    +0.000 NA
ATOM      7  C   UNL     1       0.538  11.829  20.154  0.00  0.00    +0.000 A 
ATOM      8  N   UNL     1       0.333  13.085  20.669  0.00  0.00    +0.000 N 
ATOM      9  N   UNL     1       1.015  11.749  18.911  0.00  0.00    +0.000 NA
ATOM     10  C   UNL     1       1.435  10.534  18.551  0.00  0.00    +0.000 A 
ATOM     11  C   UNL     1       1.419   9.405  19.354  0.00  0.00    +0.000 A 
ATOM     12  C   UNL     1       2.064   8.187  19.052  0.00  0.00    +0.000 A 
ATOM     13  H   UNL     1      -0.267  13.084  21.480  0.00  0.00    +0.000 HD
ATOM     14  H   UNL     1       0.217  13.793  19.961  0.00  0.00    +0.000 HD
BRANCH  10  15
ATOM     15  O   UNL     1       1.948  10.497  17.291  0.00  0.00    +0.000 OA
ATOM     16  H   UNL     1       2.900  10.443  17.492  0.00  0.00    +0.000 HD
ENDBRANCH  10  15
ENDBRANCH   1   2
BRANCH   1  17
ATOM     17  N   UNL     1       2.858   5.203  18.527  0.00  0.00    +0.000 N 
BRANCH  17  18
ATOM     18  C   UNL     1       3.886   5.053  17.582  0.00  0.00    +0.000 A 
ATOM     19  C   UNL     1       4.556   6.154  17.018  0.00  0.00    +0.000 A 
ATOM     20  C   UNL     1       5.500   6.008  15.986  0.00  0.00    +0.000 A 
ATOM     21  C   UNL     1       5.799   4.744  15.477  0.00  0.00    +0.000 A 
ATOM     22  C   UNL     1       5.221   3.629  16.070  0.00  0.00    +0.000 A 
ATOM     23  C   UNL     1       4.290   3.788  17.107  0.00  0.00    +0.000 A 
BRANCH  21  24
ATOM     24  C   UNL     1       6.748   4.645  14.338  0.00  0.00    +0.000 C 
ATOM     25  O   UNL     1       7.623   5.468  14.131  0.00  0.00    +0.000 OA
BRANCH  24  26
ATOM     26  O   UNL     1       6.521   3.592  13.521  0.00  0.00    +0.000 OA
ATOM     27  H   UNL     1       7.107   2.826  13.653  0.00  0.00    +0.000 HD
ENDBRANCH  24  26
ENDBRANCH  21  24
ENDBRANCH  17  18
BRANCH  17  28
ATOM     28  C   UNL     1       1.638   4.390  18.397  0.00  0.00    +0.000 C 
BRANCH  28  30
ATOM     29  C   UNL     1       0.933   2.986  20.564  0.00  0.00    +0.000 C 
ATOM     30  C   UNL     1       1.247   3.625  19.595  0.00  0.00    +0.000 C 
ENDBRANCH  28  30
ENDBRANCH  17  28
ENDBRANCH   1  17
TORSDOF 8
ENDMDL
MODEL 4
REMARK VINA RESULT:      -8.2      1.463      2.233
REMARK  Name = 
REMARK  8 active torsions:
REMARK  status: ('A' for Active; 'I' for Inactive)
REMARK    1  A    between atoms: C_2  and  C_3
REMARK    2  A    between atoms: C_3  and  N_4
REMARK    3  A    between atoms: N_4  and  C_5
REMARK    4  A    between atoms: N_4  and  C_18
REMARK    5  A    between atoms: C_5  and  C_6
REMARK    6  A    between atoms: C_14  and  O_15
REMARK    7  A    between atoms: C_21  and  C_22
REMARK    8  A    between atoms: C_22  and  O_24
REMARK                            x       y       z     vdW  Elec       q    Type
REMARK                         _______ _______ _______ _____ _____    ______ ____
ROOT
ATOM      1  C   UNL     1       3.116   5.965  19.738  0.00  0.00    +0.000 C 
ENDROOT
BRANCH   1   2
ATOM      2  C   UNL     1       2.113   7.086  19.977  0.00  0.00    +0.000 A 
ATOM      3  C   UNL     1       1.277   7.173  21.092  0.00  0.00    +0.000 A 
ATOM      4  C   UNL     1       0.613   8.371  21.390  0.00  0.00    +0.000 A 
ATOM      5  C   UNL     1       0.741   9.497  20.586  0.00  0.00    +0.000 A 
ATOM      6  N   UNL     1       0.271  10.684  20.999  0.00  0.00    +0.000 NA
ATOM      7  C   UNL     1       0.490  11.745  20.215  0.00  0.00    +0.000 A 
ATOM      8  N   UNL     1       0.258  12.988  20.751  0.00  0.00    +0.000 N 
ATOM      9  N   UNL     1       0.984  11.697  18.978  0.00  0.00    +0.000 NA
ATOM     10  C   UNL     1       1.428  10.495  18.601  0.00  0.00    +0.000 A 
ATOM     11  C   UNL     1       1.421   9.352  19.381  0.00  0.00    +0.000 A 
ATOM     12  C   UNL     1       2.091   8.151  19.065  0.00  0.00    +0.000 A 
ATOM     13  H   UNL     1      -0.352  12.961  21.554  0.00  0.00    +0.000 HD
ATOM     14  H   UNL     1       0.139  13.707  20.055  0.00  0.00    +0.000 HD
BRANCH  10  15
ATOM     15  O   UNL     1       1.958  10.491  17.346  0.00  0.00    +0.000 OA
ATOM     16  H   UNL     1       1.321  11.067  16.886  0.00  0.00    +0.000 HD
ENDBRANCH  10  15
ENDBRANCH   1   2
BRANCH   1  17
ATOM     17  N   UNL     1       2.844   5.083  18.585  0.00  0.00    +0.000 N 
BRANCH  17  18
ATOM     18  C   UNL     1       3.717   5.037  17.488  0.00  0.00    +0.000 A 
ATOM     19  C   UNL     1       4.140   3.825  16.912  0.00  0.00    +0.000 A 
ATOM     20  C   UNL     1       5.106   3.776  15.892  0.00  0.00    +0.000 A 
ATOM     21  C   UNL     1       5.691   4.951  15.418  0.00  0.00    +0.000 A 
ATOM     22  C   UNL     1       5.234   6.170  15.903  0.00  0.00    +0.000 A 
ATOM     23  C   UNL     1       4.261   6.204  16.912  0.00  0.00    +0.000 A 
BRANCH  21  24
ATOM     24  C   UNL     1       6.760   4.847  14.391  0.00  0.00    +0.000 C 
ATOM     25  O   UNL     1       6.655   4.154  13.393  0.00  0.00    +0.000 OA
BRANCH  24  26
ATOM     26  O   UNL     1       7.880   5.542  14.688  0.00  0.00    +0.000 OA
ATOM     27  H   UNL     1       8.152   5.517  15.623  0.00  0.00    +0.000 HD
ENDBRANCH  24  26
ENDBRANCH  21  24
ENDBRANCH  17  18
BRANCH  17  28
ATOM     28  C   UNL     1       1.759   4.093  18.685  0.00  0.00    +0.000 C 
BRANCH  28  30
ATOM     29  C   UNL     1       1.369   3.027  21.108  0.00  0.00    +0.000 C 
ATOM     30  C   UNL     1       1.553   3.500  20.018  0.00  0.00    +0.000 C 
ENDBRANCH  28  30
ENDBRANCH  17  28
ENDBRANCH   1  17
TORSDOF 8
ENDMDL
MODEL 5
REMARK VINA RESULT:      -8.2      1.377      1.641
REMARK  Name = 
REMARK  8 active torsions:
REMARK  status: ('A' for Active; 'I' for Inactive)
REMARK    1  A    between atoms: C_2  and  C_3
REMARK    2  A    between atoms: C_3  and  N_4
REMARK    3  A    between atoms: N_4  and  C_5
REMARK    4  A    between atoms: N_4  and  C_18
REMARK    5  A    between atoms: C_5  and  C_6
REMARK    6  A    between atoms: C_14  and  O_15
REMARK    7  A    between atoms: C_21  and  C_22
REMARK    8  A    between atoms: C_22  and  O_24
REMARK                            x       y       z     vdW  Elec       q    Type
REMARK                         _______ _______ _______ _____ _____    ______ ____
ROOT
ATOM      1  C   UNL     1       2.161   6.426  20.563  0.00  0.00    +0.000 C 
ENDROOT
BRANCH   1   2
ATOM      2  C   UNL     1       1.829   7.806  20.012  0.00  0.00    +0.000 A 
ATOM      3  C   UNL     1       1.979   8.178  18.674  0.00  0.00    +0.000 A 
ATOM      4  C   UNL     1       1.374   9.346  18.191  0.00  0.00    +0.000 A 
ATOM      5  C   UNL     1       0.631  10.180  19.016  0.00  0.00    +0.000 A 
ATOM      6  N   UNL     1      -0.108  11.171  18.494  0.00  0.00    +0.000 NA
ATOM      7  C   UNL     1      -0.860  11.893  19.332  0.00  0.00    +0.000 A 
ATOM      8  N   UNL     1      -1.812  12.715  18.781  0.00  0.00    +0.000 N 
ATOM      9  N   UNL     1      -0.807  11.825  20.663  0.00  0.00    +0.000 NA
ATOM     10  C   UNL     1      -0.051  10.834  21.142  0.00  0.00    +0.000 A 
ATOM     11  C   UNL     1       0.640   9.908  20.380  0.00  0.00    +0.000 A 
ATOM     12  C   UNL     1       1.248   8.738  20.883  0.00  0.00    +0.000 A 
ATOM     13  H   UNL     1      -1.631  12.932  17.814  0.00  0.00    +0.000 HD
ATOM     14  H   UNL     1      -2.123  13.440  19.408  0.00  0.00    +0.000 HD
BRANCH  10  15
ATOM     15  O   UNL     1      -0.050  10.773  22.502  0.00  0.00    +0.000 OA
ATOM     16  H   UNL     1      -0.142  11.718  22.719  0.00  0.00    +0.000 HD
ENDBRANCH  10  15
ENDBRANCH   1   2
BRANCH   1  17
ATOM     17  N   UNL     1       2.367   5.358  19.564  0.00  0.00    +0.000 N 
BRANCH  17  18
ATOM     18  C   UNL     1       3.562   5.272  18.834  0.00  0.00    +0.000 A 
ATOM     19  C   UNL     1       3.584   4.990  17.456  0.00  0.00    +0.000 A 
ATOM     20  C   UNL     1       4.783   4.785  16.751  0.00  0.00    +0.000 A 
ATOM     21  C   UNL     1       6.009   4.849  17.413  0.00  0.00    +0.000 A 
ATOM     22  C   UNL     1       6.029   5.211  18.753  0.00  0.00    +0.000 A 
ATOM     23  C   UNL     1       4.826   5.425  19.441  0.00  0.00    +0.000 A 
BRANCH  21  24
ATOM     24  C   UNL     1       7.246   4.554  16.644  0.00  0.00    +0.000 C 
ATOM     25  O   UNL     1       7.325   4.697  15.436  0.00  0.00    +0.000 OA
BRANCH  24  26
ATOM     26  O   UNL     1       8.258   4.062  17.393  0.00  0.00    +0.000 OA
ATOM     27  H   UNL     1       9.137   4.437  17.207  0.00  0.00    +0.000 HD
ENDBRANCH  24  26
ENDBRANCH  21  24
ENDBRANCH  17  18
BRANCH  17  28
ATOM     28  C   UNL     1       1.394   4.256  19.487  0.00  0.00    +0.000 C 
BRANCH  28  30
ATOM     29  C   UNL     1       1.342   2.608  21.595  0.00  0.00    +0.000 C 
ATOM     30  C   UNL     1       1.356   3.352  20.650  0.00  0.00    +0.000 C 
ENDBRANCH  28  30
ENDBRANCH  17  28
ENDBRANCH   1  17
TORSDOF 8
ENDMDL
MODEL 6
REMARK VINA RESULT:      -8.1      3.998      5.887
REMARK  Name = 
REMARK  8 active torsions:
REMARK  status: ('A' for Active; 'I' for Inactive)
REMARK    1  A    between atoms: C_2  and  C_3
REMARK    2  A    between atoms: C_3  and  N_4
REMARK    3  A    between atoms: N_4  and  C_5
REMARK    4  A    between atoms: N_4  and  C_18
REMARK    5  A    between atoms: C_5  and  C_6
REMARK    6  A    between atoms: C_14  and  O_15
REMARK    7  A    between atoms: C_21  and  C_22
REMARK    8  A    between atoms: C_22  and  O_24
REMARK                            x       y       z     vdW  Elec       q    Type
REMARK                         _______ _______ _______ _____ _____    ______ ____
ROOT
ATOM      1  C   UNL     1       4.844   6.724  16.652  0.00  0.00    +0.000 C 
ENDROOT
BRANCH   1   2
ATOM      2  C   UNL     1       4.205   6.316  17.973  0.00  0.00    +0.000 A 
ATOM      3  C   UNL     1       3.222   7.055  18.635  0.00  0.00    +0.000 A 
ATOM      4  C   UNL     1       2.474   6.474  19.669  0.00  0.00    +0.000 A 
ATOM      5  C   UNL     1       2.694   5.167  20.084  0.00  0.00    +0.000 A 
ATOM      6  N   UNL     1       1.835   4.566  20.922  0.00  0.00    +0.000 NA
ATOM      7  C   UNL     1       2.059   3.284  21.228  0.00  0.00    +0.000 A 
ATOM      8  N   UNL     1       1.050   2.596  21.856  0.00  0.00    +0.000 N 
ATOM      9  N   UNL     1       3.158   2.599  20.909  0.00  0.00    +0.000 NA
ATOM     10  C   UNL     1       3.992   3.237  20.084  0.00  0.00    +0.000 A 
ATOM     11  C   UNL     1       3.793   4.500  19.554  0.00  0.00    +0.000 A 
ATOM     12  C   UNL     1       4.558   5.073  18.516  0.00  0.00    +0.000 A 
ATOM     13  H   UNL     1       0.382   3.203  22.305  0.00  0.00    +0.000 HD
ATOM     14  H   UNL     1       1.367   1.763  22.326  0.00  0.00    +0.000 HD
BRANCH  10  15
ATOM     15  O   UNL     1       5.084   2.494  19.750  0.00  0.00    +0.000 OA
ATOM     16  H   UNL     1       5.419   2.269  20.637  0.00  0.00    +0.000 HD
ENDBRANCH  10  15
ENDBRANCH   1   2
BRANCH   1  17
ATOM     17  N   UNL     1       6.045   5.967  16.249  0.00  0.00    +0.000 N 
BRANCH  17  18
ATOM     18  C   UNL     1       6.059   5.204  15.071  0.00  0.00    +0.000 A 
ATOM     19  C   UNL     1       4.945   4.457  14.645  0.00  0.00    +0.000 A 
ATOM     20  C   UNL     1       4.999   3.600  13.531  0.00  0.00    +0.000 A 
ATOM     21  C   UNL     1       6.183   3.458  12.808  0.00  0.00    +0.000 A 
ATOM     22  C   UNL     1       7.275   4.245  13.148  0.00  0.00    +0.000 A 
ATOM     23  C   UNL     1       7.204   5.105  14.254  0.00  0.00    +0.000 A 
BRANCH  21  24
ATOM     24  C   UNL     1       6.214   2.486  11.683  0.00  0.00    +0.000 C 
ATOM     25  O   UNL     1       5.205   2.043  11.162  0.00  0.00    +0.000 OA
BRANCH  24  26
ATOM     26  O   UNL     1       7.458   2.096  11.326  0.00  0.00    +0.000 OA
ATOM     27  H   UNL     1       8.040   1.830  12.060  0.00  0.00    +0.000 HD
ENDBRANCH  24  26
ENDBRANCH  21  24
ENDBRANCH  17  18
BRANCH  17  28
ATOM     28  C   UNL     1       7.305   6.184  16.981  0.00  0.00    +0.000 C 
BRANCH  28  30
ATOM     29  C   UNL     1       7.798   8.702  17.736  0.00  0.00    +0.000 C 
ATOM     30  C   UNL     1       7.569   7.570  17.403  0.00  0.00    +0.000 C 
ENDBRANCH  28  30
ENDBRANCH  17  28
ENDBRANCH   1  17
TORSDOF 8
ENDMDL
MODEL 7
REMARK VINA RESULT:      -8.0      3.271      7.259
REMARK  Name = 
REMARK  8 active torsions:
REMARK  status: ('A' for Active; 'I' for Inactive)
REMARK    1  A    between atoms: C_2  and  C_3
REMARK    2  A    between atoms: C_3  and  N_4
REMARK    3  A    between atoms: N_4  and  C_5
REMARK    4  A    between atoms: N_4  and  C_18
REMARK    5  A    between atoms: C_5  and  C_6
REMARK    6  A    between atoms: C_14  and  O_15
REMARK    7  A    between atoms: C_21  and  C_22
REMARK    8  A    between atoms: C_22  and  O_24
REMARK                            x       y       z     vdW  Elec       q    Type
REMARK                         _______ _______ _______ _____ _____    ______ ____
ROOT
ATOM      1  C   UNL     1       3.519   4.292  20.557  0.00  0.00    +0.000 C 
ENDROOT
BRANCH   1   2
ATOM      2  C   UNL     1       4.304   4.020  19.281  0.00  0.00    +0.000 A 
ATOM      3  C   UNL     1       3.895   3.143  18.274  0.00  0.00    +0.000 A 
ATOM      4  C   UNL     1       4.505   3.177  17.013  0.00  0.00    +0.000 A 
ATOM      5  C   UNL     1       5.541   4.056  16.725  0.00  0.00    +0.000 A 
ATOM      6  N   UNL     1       5.964   4.218  15.462  0.00  0.00    +0.000 NA
ATOM      7  C   UNL     1       6.913   5.133  15.238  0.00  0.00    +0.000 A 
ATOM      8  N   UNL     1       7.152   5.492  13.934  0.00  0.00    +0.000 N 
ATOM      9  N   UNL     1       7.598   5.777  16.183  0.00  0.00    +0.000 NA
ATOM     10  C   UNL     1       7.153   5.580  17.427  0.00  0.00    +0.000 A 
ATOM     11  C   UNL     1       6.069   4.794  17.780  0.00  0.00    +0.000 A 
ATOM     12  C   UNL     1       5.468   4.767  19.056  0.00  0.00    +0.000 A 
ATOM     13  H   UNL     1       6.824   4.806  13.271  0.00  0.00    +0.000 HD
ATOM     14  H   UNL     1       8.050   5.930  13.799  0.00  0.00    +0.000 HD
BRANCH  10  15
ATOM     15  O   UNL     1       7.851   6.281  18.362  0.00  0.00    +0.000 OA
ATOM     16  H   UNL     1       7.209   6.983  18.569  0.00  0.00    +0.000 HD
ENDBRANCH  10  15
ENDBRANCH   1   2
BRANCH   1  17
ATOM     17  N   UNL     1       2.207   4.946  20.387  0.00  0.00    +0.000 N 
BRANCH  17  18
ATOM     18  C   UNL     1       2.110   6.257  19.894  0.00  0.00    +0.000 A 
ATOM     19  C   UNL     1       1.662   7.328  20.688  0.00  0.00    +0.000 A 
ATOM     20  C   UNL     1       1.452   8.615  20.162  0.00  0.00    +0.000 A 
ATOM     21  C   UNL     1       1.679   8.868  18.809  0.00  0.00    +0.000 A 
ATOM     22  C   UNL     1       2.204   7.856  18.016  0.00  0.00    +0.000 A 
ATOM     23  C   UNL     1       2.420   6.581  18.558  0.00  0.00    +0.000 A 
BRANCH  21  24
ATOM     24  C   UNL     1       1.374  10.224  18.280  0.00  0.00    +0.000 C 
ATOM     25  O   UNL     1       0.381  10.853  18.604  0.00  0.00    +0.000 OA
BRANCH  24  26
ATOM     26  O   UNL     1       2.264  10.673  17.367  0.00  0.00    +0.000 OA
ATOM     27  H   UNL     1       2.971  10.048  17.130  0.00  0.00    +0.000 HD
ENDBRANCH  24  26
ENDBRANCH  21  24
ENDBRANCH  17  18
BRANCH  17  28
ATOM     28  C   UNL     1       0.983   4.141  20.537  0.00  0.00    +0.000 C 
BRANCH  28  30
ATOM     29  C   UNL     1       0.654   2.201  18.724  0.00  0.00    +0.000 C 
ATOM     30  C   UNL     1       0.795   3.068  19.545  0.00  0.00    +0.000 C 
ENDBRANCH  28  30
ENDBRANCH  17  28
ENDBRANCH   1  17
TORSDOF 8
ENDMDL
MODEL 8
REMARK VINA RESULT:      -8.0      3.982      6.633
REMARK  Name = 
REMARK  8 active torsions:
REMARK  status: ('A' for Active; 'I' for Inactive)
REMARK    1  A    between atoms: C_2  and  C_3
REMARK    2  A    between atoms: C_3  and  N_4
REMARK    3  A    between atoms: N_4  and  C_5
REMARK    4  A    between atoms: N_4  and  C_18
REMARK    5  A    between atoms: C_5  and  C_6
REMARK    6  A    between atoms: C_14  and  O_15
REMARK    7  A    between atoms: C_21  and  C_22
REMARK    8  A    between atoms: C_22  and  O_24
REMARK                            x       y       z     vdW  Elec       q    Type
REMARK                         _______ _______ _______ _____ _____    ______ ____
ROOT
ATOM      1  C   UNL     1       4.031   2.800  17.939  0.00  0.00    +0.000 C 
ENDROOT
BRANCH   1   2
ATOM      2  C   UNL     1       5.029   3.851  17.470  0.00  0.00    +0.000 A 
ATOM      3  C   UNL     1       4.980   4.488  16.228  0.00  0.00    +0.000 A 
ATOM      4  C   UNL     1       5.736   5.644  15.993  0.00  0.00    +0.000 A 
ATOM      5  C   UNL     1       6.571   6.182  16.965  0.00  0.00    +0.000 A 
ATOM      6  N   UNL     1       7.118   7.395  16.795  0.00  0.00    +0.000 NA
ATOM      7  C   UNL     1       7.852   7.890  17.797  0.00  0.00    +0.000 A 
ATOM      8  N   UNL     1       8.183   9.222  17.742  0.00  0.00    +0.000 N 
ATOM      9  N   UNL     1       8.229   7.212  18.881  0.00  0.00    +0.000 NA
ATOM     10  C   UNL     1       7.672   6.005  19.006  0.00  0.00    +0.000 A 
ATOM     11  C   UNL     1       6.760   5.444  18.129  0.00  0.00    +0.000 A 
ATOM     12  C   UNL     1       6.009   4.276  18.378  0.00  0.00    +0.000 A 
ATOM     13  H   UNL     1       8.118   9.605  16.811  0.00  0.00    +0.000 HD
ATOM     14  H   UNL     1       8.965   9.464  18.330  0.00  0.00    +0.000 HD
BRANCH  10  15
ATOM     15  O   UNL     1       8.051   5.357  20.142  0.00  0.00    +0.000 OA
ATOM     16  H   UNL     1       7.380   4.651  20.172  0.00  0.00    +0.000 HD
ENDBRANCH  10  15
ENDBRANCH   1   2
BRANCH   1  17
ATOM     17  N   UNL     1       2.877   3.299  18.713  0.00  0.00    +0.000 N 
BRANCH  17  18
ATOM     18  C   UNL     1       2.535   4.660  18.706  0.00  0.00    +0.000 A 
ATOM     19  C   UNL     1       1.772   5.239  17.675  0.00  0.00    +0.000 A 
ATOM     20  C   UNL     1       1.531   6.623  17.607  0.00  0.00    +0.000 A 
ATOM     21  C   UNL     1       2.060   7.478  18.573  0.00  0.00    +0.000 A 
ATOM     22  C   UNL     1       2.744   6.931  19.651  0.00  0.00    +0.000 A 
ATOM     23  C   UNL     1       2.966   5.548  19.713  0.00  0.00    +0.000 A 
BRANCH  21  24
ATOM     24  C   UNL     1       1.843   8.941  18.422  0.00  0.00    +0.000 C 
ATOM     25  O   UNL     1       2.204   9.566  17.439  0.00  0.00    +0.000 OA
BRANCH  24  26
ATOM     26  O   UNL     1       1.259   9.526  19.491  0.00  0.00    +0.000 OA
ATOM     27  H   UNL     1       1.292  10.499  19.505  0.00  0.00    +0.000 HD
ENDBRANCH  24  26
ENDBRANCH  21  24
ENDBRANCH  17  18
BRANCH  17  28
ATOM     28  C   UNL     1       1.956   2.328  19.327  0.00  0.00    +0.000 C 
BRANCH  28  30
ATOM     29  C   UNL     1       1.451   2.711  21.926  0.00  0.00    +0.000 C 
ATOM     30  C   UNL     1       1.672   2.531  20.759  0.00  0.00    +0.000 C 
ENDBRANCH  28  30
ENDBRANCH  17  28
ENDBRANCH   1  17
TORSDOF 8
ENDMDL
MODEL 9
REMARK VINA RESULT:      -8.0      0.475      1.216
REMARK  Name = 
REMARK  8 active torsions:
REMARK  status: ('A' for Active; 'I' for Inactive)
REMARK    1  A    between atoms: C_2  and  C_3
REMARK    2  A    between atoms: C_3  and  N_4
REMARK    3  A    between atoms: N_4  and  C_5
REMARK    4  A    between atoms: N_4  and  C_18
REMARK    5  A    between atoms: C_5  and  C_6
REMARK    6  A    between atoms: C_14  and  O_15
REMARK    7  A    between atoms: C_21  and  C_22
REMARK    8  A    between atoms: C_22  and  O_24
REMARK                            x       y       z     vdW  Elec       q    Type
REMARK                         _______ _______ _______ _____ _____    ______ ____
ROOT
ATOM      1  C   UNL     1       2.724   6.411  19.819  0.00  0.00    +0.000 C 
ENDROOT
BRANCH   1   2
ATOM      2  C   UNL     1       2.105   7.793  19.661  0.00  0.00    +0.000 A 
ATOM      3  C   UNL     1       1.884   8.423  18.434  0.00  0.00    +0.000 A 
ATOM      4  C   UNL     1       1.044   9.542  18.353  0.00  0.00    +0.000 A 
ATOM      5  C   UNL     1       0.425  10.075  19.476  0.00  0.00    +0.000 A 
ATOM      6  N   UNL     1      -0.532  11.006  19.348  0.00  0.00    +0.000 NA
ATOM      7  C   UNL     1      -1.143  11.427  20.460  0.00  0.00    +0.000 A 
ATOM      8  N   UNL     1      -2.292  12.165  20.312  0.00  0.00    +0.000 N 
ATOM      9  N   UNL     1      -0.766  11.127  21.703  0.00  0.00    +0.000 NA
ATOM     10  C   UNL     1       0.197  10.206  21.788  0.00  0.00    +0.000 A 
ATOM     11  C   UNL     1       0.793   9.563  20.716  0.00  0.00    +0.000 A 
ATOM     12  C   UNL     1       1.641   8.440  20.815  0.00  0.00    +0.000 A 
ATOM     13  H   UNL     1      -2.376  12.583  19.399  0.00  0.00    +0.000 HD
ATOM     14  H   UNL     1      -2.530  12.701  21.132  0.00  0.00    +0.000 HD
BRANCH  10  15
ATOM     15  O   UNL     1       0.531   9.898  23.071  0.00  0.00    +0.000 OA
ATOM     16  H   UNL     1      -0.355   9.814  23.466  0.00  0.00    +0.000 HD
ENDBRANCH  10  15
ENDBRANCH   1   2
BRANCH   1  17
ATOM     17  N   UNL     1       2.491   5.463  18.711  0.00  0.00    +0.000 N 
BRANCH  17  18
ATOM     18  C   UNL     1       3.431   5.310  17.680  0.00  0.00    +0.000 A 
ATOM     19  C   UNL     1       3.741   4.055  17.125  0.00  0.00    +0.000 A 
ATOM     20  C   UNL     1       4.767   3.887  16.178  0.00  0.00    +0.000 A 
ATOM     21  C   UNL     1       5.527   4.980  15.761  0.00  0.00    +0.000 A 
ATOM     22  C   UNL     1       5.191   6.245  16.224  0.00  0.00    +0.000 A 
ATOM     23  C   UNL     1       4.157   6.400  17.158  0.00  0.00    +0.000 A 
BRANCH  21  24
ATOM     24  C   UNL     1       6.649   4.744  14.815  0.00  0.00    +0.000 C 
ATOM     25  O   UNL     1       6.603   3.909  13.928  0.00  0.00    +0.000 OA
BRANCH  24  26
ATOM     26  O   UNL     1       7.744   5.497  15.059  0.00  0.00    +0.000 OA
ATOM     27  H   UNL     1       8.598   5.049  14.924  0.00  0.00    +0.000 HD
ENDBRANCH  24  26
ENDBRANCH  21  24
ENDBRANCH  17  18
BRANCH  17  28
ATOM     28  C   UNL     1       1.361   4.523  18.802  0.00  0.00    +0.000 C 
BRANCH  28  30
ATOM     29  C   UNL     1       1.244   3.068  21.044  0.00  0.00    +0.000 C 
ATOM     30  C   UNL     1       1.288   3.726  20.039  0.00  0.00    +0.000 C 
ENDBRANCH  28  30
ENDBRANCH  17  28
ENDBRANCH   1  17
TORSDOF 8
ENDMDL
