MODEL 1
REMARK VINA RESULT:      -8.6      0.000      0.000
REMARK  Name = 
REMARK  4 active torsions:
REMARK  status: ('A' for Active; 'I' for Inactive)
REMARK    1  A    between atoms: C_1  and  C_2
REMARK    2  A    between atoms: N_10  and  C_11
REMARK    3  A    between atoms: C_15  and  C_16
REMARK    4  A    between atoms: C_16  and  O_18
REMARK                            x       y       z     vdW  Elec       q    Type
REMARK                         _______ _______ _______ _____ _____    ______ ____
ROOT
ATOM      1  C   UNL     1       4.703   2.956  11.551  0.00  0.00    +0.000 C 
ATOM      2  C   UNL     1       5.517   3.625  12.619  0.00  0.00    +0.000 A 
ATOM      3  C   UNL     1       6.745   4.231  12.315  0.00  0.00    +0.000 A 
ATOM      4  C   UNL     1       7.461   4.906  13.307  0.00  0.00    +0.000 A 
ATOM      5  C   UNL     1       6.957   4.982  14.608  0.00  0.00    +0.000 A 
ATOM      6  N   UNL     1       7.636   5.684  15.552  0.00  0.00    +0.000 NA
ATOM      7  C   UNL     1       7.157   5.798  16.814  0.00  0.00    +0.000 A 
ATOM      8  N   UNL     1       6.000   5.182  17.161  0.00  0.00    +0.000 NA
ATOM      9  C   UNL     1       5.280   4.445  16.267  0.00  0.00    +0.000 A 
ATOM     10  N   UNL     1       4.126   3.744  16.726  0.00  0.00    +0.000 N 
ATOM     11  C   UNL     1       5.742   4.341  14.938  0.00  0.00    +0.000 A 
ATOM     12  C   UNL     1       5.027   3.664  13.932  0.00  0.00    +0.000 A 
ATOM     13  H   UNL     1       3.900   2.834  16.297  0.00  0.00    +0.000 HD
ENDROOT
BRANCH  10  14
ATOM     14  C   UNL     1       3.404   4.143  17.881  0.00  0.00    +0.000 A 
ATOM     15  C   UNL     1       2.773   5.398  17.933  0.00  0.00    +0.000 A 
ATOM     16  C   UNL     1       2.043   5.775  19.055  0.00  0.00    +0.000 A 
ATOM     17  C   UNL     1       1.951   4.920  20.151  0.00  0.00    +0.000 A 
ATOM     18  C   UNL     1       2.578   3.657  20.138  0.00  0.00    +0.000 A 
ATOM     19  C   UNL     1       3.287   3.271  18.979  0.00  0.00    +0.000 A 
BRANCH  18  20
ATOM     20  C   UNL     1       2.484   2.782  21.346  0.00  0.00    +0.000 C 
ATOM     21  O   UNL     1       3.465   2.147  21.703  0.00  0.00    +0.000 OA
BRANCH  20  22
ATOM     22  O   UNL     1       1.342   2.634  22.055  0.00  0.00    +0.000 OA
ATOM     23  H   UNL     1       1.084   1.825  22.512  0.00  0.00    +0.000 HD
ENDBRANCH  20  22
ENDBRANCH  18  20
ENDBRANCH  10  14
TORSDOF 3
ENDMDL
MODEL 2
REMARK VINA RESULT:      -7.9      1.870      2.385
REMARK  Name = 
REMARK  4 active torsions:
REMARK  status: ('A' for Active; 'I' for Inactive)
REMARK    1  A    between atoms: C_1  and  C_2
REMARK    2  A    between atoms: N_10  and  C_11
REMARK    3  A    between atoms: C_15  and  C_16
REMARK    4  A    between atoms: C_16  and  O_18
REMARK                            x       y       z     vdW  Elec       q    Type
REMARK                         _______ _______ _______ _____ _____    ______ ____
ROOT
ATOM      1  C   UNL     1       4.805   2.943  11.489  0.00  0.00    +0.000 C 
ATOM      2  C   UNL     1       5.574   3.592  12.601  0.00  0.00    +0.000 A 
ATOM      3  C   UNL     1       6.818   4.194  12.362  0.00  0.00    +0.000 A 
ATOM      4  C   UNL     1       7.492   4.852  13.394  0.00  0.00    +0.000 A 
ATOM      5  C   UNL     1       6.930   4.913  14.672  0.00  0.00    +0.000 A 
ATOM      6  N   UNL     1       7.570   5.599  15.654  0.00  0.00    +0.000 NA
ATOM      7  C   UNL     1       7.035   5.699  16.896  0.00  0.00    +0.000 A 
ATOM      8  N   UNL     1       5.860   5.086  17.181  0.00  0.00    +0.000 NA
ATOM      9  C   UNL     1       5.177   4.365  16.246  0.00  0.00    +0.000 A 
ATOM     10  N   UNL     1       4.000   3.665  16.642  0.00  0.00    +0.000 N 
ATOM     11  C   UNL     1       5.698   4.276  14.938  0.00  0.00    +0.000 A 
ATOM     12  C   UNL     1       5.026   3.617  13.891  0.00  0.00    +0.000 A 
ATOM     13  H   UNL     1       3.788   2.763  16.191  0.00  0.00    +0.000 HD
ENDROOT
BRANCH  10  14
ATOM     14  C   UNL     1       3.228   4.054  17.770  0.00  0.00    +0.000 A 
ATOM     15  C   UNL     1       2.580   3.089  18.560  0.00  0.00    +0.000 A 
ATOM     16  C   UNL     1       1.846   3.469  19.678  0.00  0.00    +0.000 A 
ATOM     17  C   UNL     1       1.729   4.816  20.014  0.00  0.00    +0.000 A 
ATOM     18  C   UNL     1       2.358   5.812  19.240  0.00  0.00    +0.000 A 
ATOM     19  C   UNL     1       3.128   5.411  18.126  0.00  0.00    +0.000 A 
BRANCH  18  20
ATOM     20  C   UNL     1       2.181   7.249  19.612  0.00  0.00    +0.000 C 
ATOM     21  O   UNL     1       2.024   8.082  18.731  0.00  0.00    +0.000 OA
BRANCH  20  22
ATOM     22  O   UNL     1       2.214   7.683  20.893  0.00  0.00    +0.000 OA
ATOM     23  H   UNL     1       3.022   7.891  21.377  0.00  0.00    +0.000 HD
ENDBRANCH  20  22
ENDBRANCH  18  20
ENDBRANCH  10  14
TORSDOF 3
ENDMDL
MODEL 3
REMARK VINA RESULT:      -7.3      4.502      7.628
REMARK  Name = 
REMARK  4 active torsions:
REMARK  status: ('A' for Active; 'I' for Inactive)
REMARK    1  A    between atoms: C_1  and  C_2
REMARK    2  A    between atoms: N_10  and  C_11
REMARK    3  A    between atoms: C_15  and  C_16
REMARK    4  A    between atoms: C_16  and  O_18
REMARK                            x       y       z     vdW  Elec       q    Type
REMARK                         _______ _______ _______ _____ _____    ______ ____
ROOT
ATOM      1  C   UNL     1      -0.101   9.646  23.530  0.00  0.00    +0.000 C 
ATOM      2  C   UNL     1       0.316   9.667  22.089  0.00  0.00    +0.000 A 
ATOM      3  C   UNL     1       0.188  10.833  21.319  0.00  0.00    +0.000 A 
ATOM      4  C   UNL     1       0.640  10.856  19.997  0.00  0.00    +0.000 A 
ATOM      5  C   UNL     1       1.222   9.717  19.434  0.00  0.00    +0.000 A 
ATOM      6  N   UNL     1       1.704   9.767  18.165  0.00  0.00    +0.000 NA
ATOM      7  C   UNL     1       2.299   8.687  17.603  0.00  0.00    +0.000 A 
ATOM      8  N   UNL     1       2.393   7.525  18.296  0.00  0.00    +0.000 NA
ATOM      9  C   UNL     1       1.911   7.402  19.567  0.00  0.00    +0.000 A 
ATOM     10  N   UNL     1       1.955   6.125  20.198  0.00  0.00    +0.000 N 
ATOM     11  C   UNL     1       1.319   8.524  20.184  0.00  0.00    +0.000 A 
ATOM     12  C   UNL     1       0.862   8.511  21.516  0.00  0.00    +0.000 A 
ATOM     13  H   UNL     1       1.192   5.867  20.842  0.00  0.00    +0.000 HD
ENDROOT
BRANCH  10  14
ATOM     14  C   UNL     1       2.886   5.121  19.818  0.00  0.00    +0.000 A 
ATOM     15  C   UNL     1       2.466   3.795  19.617  0.00  0.00    +0.000 A 
ATOM     16  C   UNL     1       3.374   2.820  19.220  0.00  0.00    +0.000 A 
ATOM     17  C   UNL     1       4.717   3.145  19.040  0.00  0.00    +0.000 A 
ATOM     18  C   UNL     1       5.175   4.462  19.241  0.00  0.00    +0.000 A 
ATOM     19  C   UNL     1       4.238   5.451  19.611  0.00  0.00    +0.000 A 
BRANCH  18  20
ATOM     20  C   UNL     1       6.630   4.764  19.071  0.00  0.00    +0.000 C 
ATOM     21  O   UNL     1       7.194   5.474  19.890  0.00  0.00    +0.000 OA
BRANCH  20  22
ATOM     22  O   UNL     1       7.354   4.307  18.024  0.00  0.00    +0.000 OA
ATOM     23  H   UNL     1       7.475   3.375  17.810  0.00  0.00    +0.000 HD
ENDBRANCH  20  22
ENDBRANCH  18  20
ENDBRANCH  10  14
TORSDOF 3
ENDMDL
MODEL 4
REMARK VINA RESULT:      -7.3      3.781      5.468
REMARK  Name = 
REMARK  4 active torsions:
REMARK  status: ('A' for Active; 'I' for Inactive)
REMARK    1  A    between atoms: C_1  and  C_2
REMARK    2  A    between atoms: N_10  and  C_11
REMARK    3  A    between atoms: C_15  and  C_16
REMARK    4  A    between atoms: C_16  and  O_18
REMARK                            x       y       z     vdW  Elec       q    Type
REMARK                         _______ _______ _______ _____ _____    ______ ____
ROOT
ATOM      1  C   UNL     1       7.832   6.948  17.363  0.00  0.00    +0.000 C 
ATOM      2  C   UNL     1       6.544   6.181  17.369  0.00  0.00    +0.000 A 
ATOM      3  C   UNL     1       6.531   4.792  17.168  0.00  0.00    +0.000 A 
ATOM      4  C   UNL     1       5.331   4.081  17.241  0.00  0.00    +0.000 A 
ATOM      5  C   UNL     1       4.134   4.750  17.513  0.00  0.00    +0.000 A 
ATOM      6  N   UNL     1       2.981   4.041  17.632  0.00  0.00    +0.000 NA
ATOM      7  C   UNL     1       1.811   4.660  17.924  0.00  0.00    +0.000 A 
ATOM      8  N   UNL     1       1.772   6.007  18.072  0.00  0.00    +0.000 NA
ATOM      9  C   UNL     1       2.890   6.779  17.945  0.00  0.00    +0.000 A 
ATOM     10  N   UNL     1       2.758   8.197  18.015  0.00  0.00    +0.000 N 
ATOM     11  C   UNL     1       4.125   6.153  17.676  0.00  0.00    +0.000 A 
ATOM     12  C   UNL     1       5.340   6.861  17.602  0.00  0.00    +0.000 A 
ATOM     13  H   UNL     1       3.379   8.778  17.433  0.00  0.00    +0.000 HD
ENDROOT
BRANCH  10  14
ATOM     14  C   UNL     1       1.677   8.827  18.686  0.00  0.00    +0.000 A 
ATOM     15  C   UNL     1       0.758   9.619  17.977  0.00  0.00    +0.000 A 
ATOM     16  C   UNL     1      -0.315  10.214  18.631  0.00  0.00    +0.000 A 
ATOM     17  C   UNL     1      -0.476  10.048  20.005  0.00  0.00    +0.000 A 
ATOM     18  C   UNL     1       0.430   9.268  20.751  0.00  0.00    +0.000 A 
ATOM     19  C   UNL     1       1.496   8.641  20.069  0.00  0.00    +0.000 A 
BRANCH  18  20
ATOM     20  C   UNL     1       0.243   9.142  22.229  0.00  0.00    +0.000 C 
ATOM     21  O   UNL     1       1.103   9.575  22.981  0.00  0.00    +0.000 OA
BRANCH  20  22
ATOM     22  O   UNL     1      -0.834   8.537  22.781  0.00  0.00    +0.000 OA
ATOM     23  H   UNL     1      -1.070   7.612  22.644  0.00  0.00    +0.000 HD
ENDBRANCH  20  22
ENDBRANCH  18  20
ENDBRANCH  10  14
TORSDOF 3
ENDMDL
MODEL 5
REMARK VINA RESULT:      -7.2      3.038      3.713
REMARK  Name = 
REMARK  4 active torsions:
REMARK  status: ('A' for Active; 'I' for Inactive)
REMARK    1  A    between atoms: C_1  and  C_2
REMARK    2  A    between atoms: N_10  and  C_11
REMARK    3  A    between atoms: C_15  and  C_16
REMARK    4  A    between atoms: C_16  and  O_18
REMARK                            x       y       z     vdW  Elec       q    Type
REMARK                         _______ _______ _______ _____ _____    ______ ____
ROOT
ATOM      1  C   UNL     1       4.679   3.308  12.432  0.00  0.00    +0.000 C 
ATOM      2  C   UNL     1       5.510   4.028  13.452  0.00  0.00    +0.000 A 
ATOM      3  C   UNL     1       6.867   4.298  13.215  0.00  0.00    +0.000 A 
ATOM      4  C   UNL     1       7.612   5.026  14.145  0.00  0.00    +0.000 A 
ATOM      5  C   UNL     1       7.011   5.489  15.318  0.00  0.00    +0.000 A 
ATOM      6  N   UNL     1       7.733   6.240  16.191  0.00  0.00    +0.000 NA
ATOM      7  C   UNL     1       7.168   6.727  17.323  0.00  0.00    +0.000 A 
ATOM      8  N   UNL     1       5.874   6.443  17.614  0.00  0.00    +0.000 NA
ATOM      9  C   UNL     1       5.101   5.678  16.791  0.00  0.00    +0.000 A 
ATOM     10  N   UNL     1       3.781   5.338  17.207  0.00  0.00    +0.000 N 
ATOM     11  C   UNL     1       5.658   5.190  15.590  0.00  0.00    +0.000 A 
ATOM     12  C   UNL     1       4.914   4.457  14.645  0.00  0.00    +0.000 A 
ATOM     13  H   UNL     1       3.402   4.417  16.940  0.00  0.00    +0.000 HD
ENDROOT
BRANCH  10  14
ATOM     14  C   UNL     1       3.054   6.121  18.143  0.00  0.00    +0.000 A 
ATOM     15  C   UNL     1       2.747   5.611  19.417  0.00  0.00    +0.000 A 
ATOM     16  C   UNL     1       2.058   6.389  20.341  0.00  0.00    +0.000 A 
ATOM     17  C   UNL     1       1.645   7.676  20.004  0.00  0.00    +0.000 A 
ATOM     18  C   UNL     1       1.927   8.216  18.733  0.00  0.00    +0.000 A 
ATOM     19  C   UNL     1       2.657   7.430  17.815  0.00  0.00    +0.000 A 
BRANCH  18  20
ATOM     20  C   UNL     1       1.437   9.588  18.397  0.00  0.00    +0.000 C 
ATOM     21  O   UNL     1       0.383   9.982  18.875  0.00  0.00    +0.000 OA
BRANCH  20  22
ATOM     22  O   UNL     1       2.097  10.415  17.553  0.00  0.00    +0.000 OA
ATOM     23  H   UNL     1       3.040  10.359  17.362  0.00  0.00    +0.000 HD
ENDBRANCH  20  22
ENDBRANCH  18  20
ENDBRANCH  10  14
TORSDOF 3
ENDMDL
MODEL 6
REMARK VINA RESULT:      -7.1      3.582      7.135
REMARK  Name = 
REMARK  4 active torsions:
REMARK  status: ('A' for Active; 'I' for Inactive)
REMARK    1  A    between atoms: C_1  and  C_2
REMARK    2  A    between atoms: N_10  and  C_11
REMARK    3  A    between atoms: C_15  and  C_16
REMARK    4  A    between atoms: C_16  and  O_18
REMARK                            x       y       z     vdW  Elec       q    Type
REMARK                         _______ _______ _______ _____ _____    ______ ____
ROOT
ATOM      1  C   UNL     1       2.229   8.891  18.208  0.00  0.00    +0.000 C 
ATOM      2  C   UNL     1       2.625   7.450  18.329  0.00  0.00    +0.000 A 
ATOM      3  C   UNL     1       2.054   6.626  19.310  0.00  0.00    +0.000 A 
ATOM      4  C   UNL     1       2.383   5.270  19.370  0.00  0.00    +0.000 A 
ATOM      5  C   UNL     1       3.285   4.725  18.451  0.00  0.00    +0.000 A 
ATOM      6  N   UNL     1       3.559   3.395  18.487  0.00  0.00    +0.000 NA
ATOM      7  C   UNL     1       4.408   2.835  17.591  0.00  0.00    +0.000 A 
ATOM      8  N   UNL     1       5.022   3.608  16.660  0.00  0.00    +0.000 NA
ATOM      9  C   UNL     1       4.806   4.953  16.584  0.00  0.00    +0.000 A 
ATOM     10  N   UNL     1       5.560   5.717  15.646  0.00  0.00    +0.000 N 
ATOM     11  C   UNL     1       3.900   5.551  17.484  0.00  0.00    +0.000 A 
ATOM     12  C   UNL     1       3.560   6.917  17.431  0.00  0.00    +0.000 A 
ATOM     13  H   UNL     1       5.829   6.680  15.899  0.00  0.00    +0.000 HD
ENDROOT
BRANCH  10  14
ATOM     14  C   UNL     1       6.129   5.142  14.479  0.00  0.00    +0.000 A 
ATOM     15  C   UNL     1       7.417   5.511  14.054  0.00  0.00    +0.000 A 
ATOM     16  C   UNL     1       7.983   4.927  12.926  0.00  0.00    +0.000 A 
ATOM     17  C   UNL     1       7.266   3.985  12.191  0.00  0.00    +0.000 A 
ATOM     18  C   UNL     1       5.969   3.597  12.582  0.00  0.00    +0.000 A 
ATOM     19  C   UNL     1       5.418   4.172  13.748  0.00  0.00    +0.000 A 
BRANCH  18  20
ATOM     20  C   UNL     1       5.218   2.609  11.748  0.00  0.00    +0.000 C 
ATOM     21  O   UNL     1       4.118   2.909  11.309  0.00  0.00    +0.000 OA
BRANCH  20  22
ATOM     22  O   UNL     1       5.692   1.372  11.476  0.00  0.00    +0.000 OA
ATOM     23  H   UNL     1       6.116   0.795  12.123  0.00  0.00    +0.000 HD
ENDBRANCH  20  22
ENDBRANCH  18  20
ENDBRANCH  10  14
TORSDOF 3
ENDMDL
MODEL 7
REMARK VINA RESULT:      -7.1      4.923      8.124
REMARK  Name = 
REMARK  4 active torsions:
REMARK  status: ('A' for Active; 'I' for Inactive)
REMARK    1  A    between atoms: C_1  and  C_2
REMARK    2  A    between atoms: N_10  and  C_11
REMARK    3  A    between atoms: C_15  and  C_16
REMARK    4  A    between atoms: C_16  and  O_18
REMARK                            x       y       z     vdW  Elec       q    Type
REMARK                         _______ _______ _______ _____ _____    ______ ____
ROOT
ATOM      1  C   UNL     1      -1.918  11.623  17.535  0.00  0.00    +0.000 C 
ATOM      2  C   UNL     1      -1.321  11.313  18.876  0.00  0.00    +0.000 A 
ATOM      3  C   UNL     1      -1.736  12.000  20.026  0.00  0.00    +0.000 A 
ATOM      4  C   UNL     1      -1.218  11.656  21.277  0.00  0.00    +0.000 A 
ATOM      5  C   UNL     1      -0.283  10.624  21.390  0.00  0.00    +0.000 A 
ATOM      6  N   UNL     1       0.176  10.264  22.617  0.00  0.00    +0.000 NA
ATOM      7  C   UNL     1       1.061   9.248  22.759  0.00  0.00    +0.000 A 
ATOM      8  N   UNL     1       1.528   8.594  21.666  0.00  0.00    +0.000 NA
ATOM      9  C   UNL     1       1.124   8.920  20.404  0.00  0.00    +0.000 A 
ATOM     10  N   UNL     1       1.729   8.258  19.296  0.00  0.00    +0.000 N 
ATOM     11  C   UNL     1       0.176   9.951  20.235  0.00  0.00    +0.000 A 
ATOM     12  C   UNL     1      -0.353  10.305  18.979  0.00  0.00    +0.000 A 
ATOM     13  H   UNL     1       1.871   8.788  18.423  0.00  0.00    +0.000 HD
ENDROOT
BRANCH  10  14
ATOM     14  C   UNL     1       2.331   6.977  19.412  0.00  0.00    +0.000 A 
ATOM     15  C   UNL     1       3.513   6.676  18.714  0.00  0.00    +0.000 A 
ATOM     16  C   UNL     1       4.115   5.430  18.850  0.00  0.00    +0.000 A 
ATOM     17  C   UNL     1       3.538   4.458  19.665  0.00  0.00    +0.000 A 
ATOM     18  C   UNL     1       2.348   4.722  20.374  0.00  0.00    +0.000 A 
ATOM     19  C   UNL     1       1.765   6.002  20.254  0.00  0.00    +0.000 A 
BRANCH  18  20
ATOM     20  C   UNL     1       1.741   3.642  21.211  0.00  0.00    +0.000 C 
ATOM     21  O   UNL     1       2.280   3.322  22.259  0.00  0.00    +0.000 OA
BRANCH  20  22
ATOM     22  O   UNL     1       0.623   2.974  20.844  0.00  0.00    +0.000 OA
ATOM     23  H   UNL     1       0.608   2.052  20.559  0.00  0.00    +0.000 HD
ENDBRANCH  20  22
ENDBRANCH  18  20
ENDBRANCH  10  14
TORSDOF 3
ENDMDL
MODEL 8
REMARK VINA RESULT:      -7.1      1.906      2.447
REMARK  Name = 
REMARK  4 active torsions:
REMARK  status: ('A' for Active; 'I' for Inactive)
REMARK    1  A    between atoms: C_1  and  C_2
REMARK    2  A    between atoms: N_10  and  C_11
REMARK    3  A    between atoms: C_15  and  C_16
REMARK    4  A    between atoms: C_16  and  O_18
REMARK                            x       y       z     vdW  Elec       q    Type
REMARK                         _______ _______ _______ _____ _____    ______ ____
ROOT
ATOM      1  C   UNL     1       4.798   3.464  12.403  0.00  0.00    +0.000 C 
ATOM      2  C   UNL     1       5.622   3.903  13.577  0.00  0.00    +0.000 A 
ATOM      3  C   UNL     1       6.921   4.404  13.399  0.00  0.00    +0.000 A 
ATOM      4  C   UNL     1       7.651   4.869  14.495  0.00  0.00    +0.000 A 
ATOM      5  C   UNL     1       7.094   4.837  15.776  0.00  0.00    +0.000 A 
ATOM      6  N   UNL     1       7.794   5.338  16.827  0.00  0.00    +0.000 NA
ATOM      7  C   UNL     1       7.266   5.346  18.075  0.00  0.00    +0.000 A 
ATOM      8  N   UNL     1       6.036   4.821  18.297  0.00  0.00    +0.000 NA
ATOM      9  C   UNL     1       5.289   4.283  17.290  0.00  0.00    +0.000 A 
ATOM     10  N   UNL     1       4.048   3.660  17.611  0.00  0.00    +0.000 N 
ATOM     11  C   UNL     1       5.804   4.296  15.976  0.00  0.00    +0.000 A 
ATOM     12  C   UNL     1       5.074   3.831  14.865  0.00  0.00    +0.000 A 
ATOM     13  H   UNL     1       3.751   2.840  17.060  0.00  0.00    +0.000 HD
ENDROOT
BRANCH  10  14
ATOM     14  C   UNL     1       3.314   3.988  18.782  0.00  0.00    +0.000 A 
ATOM     15  C   UNL     1       3.044   3.011  19.755  0.00  0.00    +0.000 A 
ATOM     16  C   UNL     1       2.347   3.341  20.912  0.00  0.00    +0.000 A 
ATOM     17  C   UNL     1       1.890   4.642  21.108  0.00  0.00    +0.000 A 
ATOM     18  C   UNL     1       2.134   5.646  20.149  0.00  0.00    +0.000 A 
ATOM     19  C   UNL     1       2.872   5.307  18.994  0.00  0.00    +0.000 A 
BRANCH  18  20
ATOM     20  C   UNL     1       1.598   7.022  20.379  0.00  0.00    +0.000 C 
ATOM     21  O   UNL     1       2.094   7.967  19.783  0.00  0.00    +0.000 OA
BRANCH  20  22
ATOM     22  O   UNL     1       0.594   7.281  21.249  0.00  0.00    +0.000 OA
ATOM     23  H   UNL     1      -0.264   6.842  21.237  0.00  0.00    +0.000 HD
ENDBRANCH  20  22
ENDBRANCH  18  20
ENDBRANCH  10  14
TORSDOF 3
ENDMDL
MODEL 9
REMARK VINA RESULT:      -7.0      4.280      7.486
REMARK  Name = 
REMARK  4 active torsions:
REMARK  status: ('A' for Active; 'I' for Inactive)
REMARK    1  A    between atoms: C_1  and  C_2
REMARK    2  A    between atoms: N_10  and  C_11
REMARK    3  A    between atoms: C_15  and  C_16
REMARK    4  A    between atoms: C_16  and  O_18
REMARK                            x       y       z     vdW  Elec       q    Type
REMARK                         _______ _______ _______ _____ _____    ______ ____
ROOT
ATOM      1  C   UNL     1      -0.265   9.576  23.520  0.00  0.00    +0.000 C 
ATOM      2  C   UNL     1       0.159   9.682  22.085  0.00  0.00    +0.000 A 
ATOM      3  C   UNL     1      -0.050  10.863  21.357  0.00  0.00    +0.000 A 
ATOM      4  C   UNL     1       0.407  10.970  20.041  0.00  0.00    +0.000 A 
ATOM      5  C   UNL     1       1.076   9.899  19.442  0.00  0.00    +0.000 A 
ATOM      6  N   UNL     1       1.561  10.032  18.180  0.00  0.00    +0.000 NA
ATOM      7  C   UNL     1       2.238   9.021  17.584  0.00  0.00    +0.000 A 
ATOM      8  N   UNL     1       2.414   7.844  18.234  0.00  0.00    +0.000 NA
ATOM      9  C   UNL     1       1.934   7.638  19.495  0.00  0.00    +0.000 A 
ATOM     10  N   UNL     1       2.069   6.344  20.079  0.00  0.00    +0.000 N 
ATOM     11  C   UNL     1       1.256   8.689  20.147  0.00  0.00    +0.000 A 
ATOM     12  C   UNL     1       0.793   8.592  21.474  0.00  0.00    +0.000 A 
ATOM     13  H   UNL     1       1.323   6.007  20.705  0.00  0.00    +0.000 HD
ENDROOT
BRANCH  10  14
ATOM     14  C   UNL     1       3.074   5.427  19.671  0.00  0.00    +0.000 A 
ATOM     15  C   UNL     1       4.413   5.838  19.555  0.00  0.00    +0.000 A 
ATOM     16  C   UNL     1       5.399   4.931  19.182  0.00  0.00    +0.000 A 
ATOM     17  C   UNL     1       5.064   3.610  18.896  0.00  0.00    +0.000 A 
ATOM     18  C   UNL     1       3.730   3.165  18.993  0.00  0.00    +0.000 A 
ATOM     19  C   UNL     1       2.743   4.086  19.407  0.00  0.00    +0.000 A 
BRANCH  18  20
ATOM     20  C   UNL     1       3.405   1.748  18.645  0.00  0.00    +0.000 C 
ATOM     21  O   UNL     1       2.236   1.418  18.505  0.00  0.00    +0.000 OA
BRANCH  20  22
ATOM     22  O   UNL     1       4.353   0.793  18.506  0.00  0.00    +0.000 OA
ATOM     23  H   UNL     1       4.787   0.343  19.240  0.00  0.00    +0.000 HD
ENDBRANCH  20  22
ENDBRANCH  18  20
ENDBRANCH  10  14
TORSDOF 3
ENDMDL
