MODEL 1
REMARK VINA RESULT:      -7.8      0.000      0.000
REMARK  Name = 
REMARK  4 active torsions:
REMARK  status: ('A' for Active; 'I' for Inactive)
REMARK    1  A    between atoms: C_2  and  C_11
REMARK    2  A    between atoms: N_3  and  C_4
REMARK    3  A    between atoms: N_15  and  C_16
REMARK    4  A    between atoms: C_16  and  C_17
REMARK                            x       y       z     vdW  Elec       q    Type
REMARK                         _______ _______ _______ _____ _____    ______ ____
ROOT
ATOM      1  C   UNL     1       6.761   4.400  18.201  0.00  0.00    +0.000 C 
ATOM      2  C   UNL     1       7.452   5.761  18.240  0.00  0.00    +0.000 C 
ATOM      3  C   UNL     1       6.890   6.461  17.027  0.00  0.00    +0.000 C 
ATOM      4  O   UNL     1       6.959   7.659  16.803  0.00  0.00    +0.000 OA
ATOM      5  N   UNL     1       6.289   5.509  16.221  0.00  0.00    +0.000 N 
ATOM      6  C   UNL     1       6.473   4.168  16.726  0.00  0.00    +0.000 C 
ENDROOT
BRANCH   1   8
ATOM      7  O   UNL     1       5.290   5.410  19.800  0.00  0.00    +0.000 OA
ATOM      8  C   UNL     1       5.519   4.432  19.090  0.00  0.00    +0.000 C 
ATOM      9  N   UNL     1       4.694   3.328  18.989  0.00  0.00    +0.000 N 
ATOM     10  H   UNL     1       5.129   2.451  18.719  0.00  0.00    +0.000 HD
BRANCH   9  11
ATOM     11  C   UNL     1       3.471   3.194  19.681  0.00  0.00    +0.000 A 
ATOM     12  C   UNL     1       3.425   2.638  20.963  0.00  0.00    +0.000 A 
ATOM     13  C   UNL     1       2.209   2.558  21.647  0.00  0.00    +0.000 A 
ATOM     14  C   UNL     1       1.033   3.003  21.044  0.00  0.00    +0.000 A 
ATOM     15  C   UNL     1       1.070   3.555  19.763  0.00  0.00    +0.000 A 
ATOM     16  C   UNL     1       2.291   3.675  19.095  0.00  0.00    +0.000 A 
ATOM     17 CL   UNL     1       2.303   4.348  17.500  0.00  0.00    +0.000 Cl
ENDBRANCH   9  11
ENDBRANCH   1   8
BRANCH   5  18
ATOM     18  C   UNL     1       5.697   5.799  14.929  0.00  0.00    +0.000 C 
BRANCH  18  19
ATOM     19  C   UNL     1       6.191   4.894  13.864  0.00  0.00    +0.000 A 
ATOM     20  C   UNL     1       7.343   4.875  13.110  0.00  0.00    +0.000 A 
ATOM     21  C   UNL     1       7.170   3.864  12.135  0.00  0.00    +0.000 A 
ATOM     22  C   UNL     1       5.942   3.307  12.379  0.00  0.00    +0.000 A 
ATOM     23  O   UNL     1       5.336   3.922  13.432  0.00  0.00    +0.000 OA
ENDBRANCH  18  19
ENDBRANCH   5  18
TORSDOF 4
ENDMDL
MODEL 2
REMARK VINA RESULT:      -7.5      2.508      6.375
REMARK  Name = 
REMARK  4 active torsions:
REMARK  status: ('A' for Active; 'I' for Inactive)
REMARK    1  A    between atoms: C_2  and  C_11
REMARK    2  A    between atoms: N_3  and  C_4
REMARK    3  A    between atoms: N_15  and  C_16
REMARK    4  A    between atoms: C_16  and  C_17
REMARK                            x       y       z     vdW  Elec       q    Type
REMARK                         _______ _______ _______ _____ _____    ______ ____
ROOT
ATOM      1  C   UNL     1       7.046   6.474  17.167  0.00  0.00    +0.000 C 
ATOM      2  C   UNL     1       7.513   5.893  18.500  0.00  0.00    +0.000 C 
ATOM      3  C   UNL     1       6.229   5.403  19.124  0.00  0.00    +0.000 C 
ATOM      4  O   UNL     1       6.147   4.639  20.072  0.00  0.00    +0.000 OA
ATOM      5  N   UNL     1       5.171   5.972  18.435  0.00  0.00    +0.000 N 
ATOM      6  C   UNL     1       5.614   6.911  17.430  0.00  0.00    +0.000 C 
ENDROOT
BRANCH   1   8
ATOM      7  O   UNL     1       7.883   4.419  16.261  0.00  0.00    +0.000 OA
ATOM      8  C   UNL     1       7.194   5.420  16.071  0.00  0.00    +0.000 C 
ATOM      9  N   UNL     1       6.474   5.667  14.917  0.00  0.00    +0.000 N 
ATOM     10  H   UNL     1       6.280   6.638  14.694  0.00  0.00    +0.000 HD
BRANCH   9  11
ATOM     11  C   UNL     1       6.431   4.786  13.814  0.00  0.00    +0.000 A 
ATOM     12  C   UNL     1       5.382   3.876  13.659  0.00  0.00    +0.000 A 
ATOM     13  C   UNL     1       5.336   3.045  12.536  0.00  0.00    +0.000 A 
ATOM     14  C   UNL     1       6.352   3.098  11.582  0.00  0.00    +0.000 A 
ATOM     15  C   UNL     1       7.405   4.000  11.733  0.00  0.00    +0.000 A 
ATOM     16  C   UNL     1       7.430   4.861  12.832  0.00  0.00    +0.000 A 
ATOM     17 CL   UNL     1       8.758   5.958  13.000  0.00  0.00    +0.000 Cl
ENDBRANCH   9  11
ENDBRANCH   1   8
BRANCH   5  18
ATOM     18  C   UNL     1       3.778   5.788  18.794  0.00  0.00    +0.000 C 
BRANCH  18  19
ATOM     19  C   UNL     1       3.283   4.431  18.460  0.00  0.00    +0.000 A 
ATOM     20  C   UNL     1       3.304   3.684  17.303  0.00  0.00    +0.000 A 
ATOM     21  C   UNL     1       2.524   2.530  17.554  0.00  0.00    +0.000 A 
ATOM     22  C   UNL     1       2.108   2.629  18.856  0.00  0.00    +0.000 A 
ATOM     23  O   UNL     1       2.566   3.780  19.421  0.00  0.00    +0.000 OA
ENDBRANCH  18  19
ENDBRANCH   5  18
TORSDOF 4
ENDMDL
MODEL 3
REMARK VINA RESULT:      -7.3      1.336      1.553
REMARK  Name = 
REMARK  4 active torsions:
REMARK  status: ('A' for Active; 'I' for Inactive)
REMARK    1  A    between atoms: C_2  and  C_11
REMARK    2  A    between atoms: N_3  and  C_4
REMARK    3  A    between atoms: N_15  and  C_16
REMARK    4  A    between atoms: C_16  and  C_17
REMARK                            x       y       z     vdW  Elec       q    Type
REMARK                         _______ _______ _______ _____ _____    ______ ____
ROOT
ATOM      1  C   UNL     1       7.090   5.318  17.897  0.00  0.00    +0.000 C 
ATOM      2  C   UNL     1       6.668   6.651  17.284  0.00  0.00    +0.000 C 
ATOM      3  C   UNL     1       5.797   6.230  16.125  0.00  0.00    +0.000 C 
ATOM      4  O   UNL     1       5.034   6.957  15.510  0.00  0.00    +0.000 OA
ATOM      5  N   UNL     1       6.017   4.884  15.888  0.00  0.00    +0.000 N 
ATOM      6  C   UNL     1       7.058   4.342  16.731  0.00  0.00    +0.000 C 
ENDROOT
BRANCH   1   8
ATOM      7  O   UNL     1       6.486   5.155  20.211  0.00  0.00    +0.000 OA
ATOM      8  C   UNL     1       6.146   4.961  19.045  0.00  0.00    +0.000 C 
ATOM      9  N   UNL     1       4.914   4.466  18.660  0.00  0.00    +0.000 N 
ATOM     10  H   UNL     1       4.869   3.982  17.769  0.00  0.00    +0.000 HD
BRANCH   9  11
ATOM     11  C   UNL     1       3.883   4.135  19.567  0.00  0.00    +0.000 A 
ATOM     12  C   UNL     1       3.843   2.883  20.187  0.00  0.00    +0.000 A 
ATOM     13  C   UNL     1       2.838   2.594  21.115  0.00  0.00    +0.000 A 
ATOM     14  C   UNL     1       1.855   3.541  21.403  0.00  0.00    +0.000 A 
ATOM     15  C   UNL     1       1.886   4.791  20.784  0.00  0.00    +0.000 A 
ATOM     16  C   UNL     1       2.913   5.096  19.889  0.00  0.00    +0.000 A 
ATOM     17 CL   UNL     1       2.915   6.649  19.124  0.00  0.00    +0.000 Cl
ENDBRANCH   9  11
ENDBRANCH   1   8
BRANCH   5  18
ATOM     18  C   UNL     1       5.405   4.142  14.802  0.00  0.00    +0.000 C 
BRANCH  18  19
ATOM     19  C   UNL     1       6.184   4.235  13.545  0.00  0.00    +0.000 A 
ATOM     20  C   UNL     1       6.199   3.479  12.393  0.00  0.00    +0.000 A 
ATOM     21  C   UNL     1       7.278   3.958  11.612  0.00  0.00    +0.000 A 
ATOM     22  C   UNL     1       7.829   4.995  12.318  0.00  0.00    +0.000 A 
ATOM     23  O   UNL     1       7.170   5.177  13.495  0.00  0.00    +0.000 OA
ENDBRANCH  18  19
ENDBRANCH   5  18
TORSDOF 4
ENDMDL
MODEL 4
REMARK VINA RESULT:      -7.2      1.058      1.232
REMARK  Name = 
REMARK  4 active torsions:
REMARK  status: ('A' for Active; 'I' for Inactive)
REMARK    1  A    between atoms: C_2  and  C_11
REMARK    2  A    between atoms: N_3  and  C_4
REMARK    3  A    between atoms: N_15  and  C_16
REMARK    4  A    between atoms: C_16  and  C_17
REMARK                            x       y       z     vdW  Elec       q    Type
REMARK                         _______ _______ _______ _____ _____    ______ ____
ROOT
ATOM      1  C   UNL     1       7.134   4.592  18.134  0.00  0.00    +0.000 C 
ATOM      2  C   UNL     1       7.627   6.037  18.146  0.00  0.00    +0.000 C 
ATOM      3  C   UNL     1       6.905   6.650  16.971  0.00  0.00    +0.000 C 
ATOM      4  O   UNL     1       6.791   7.845  16.753  0.00  0.00    +0.000 OA
ATOM      5  N   UNL     1       6.401   5.622  16.192  0.00  0.00    +0.000 N 
ATOM      6  C   UNL     1       6.800   4.321  16.676  0.00  0.00    +0.000 C 
ENDROOT
BRANCH   1   8
ATOM      7  O   UNL     1       6.094   4.671  20.292  0.00  0.00    +0.000 OA
ATOM      8  C   UNL     1       5.951   4.448  19.091  0.00  0.00    +0.000 C 
ATOM      9  N   UNL     1       4.752   4.104  18.495  0.00  0.00    +0.000 N 
ATOM     10  H   UNL     1       4.802   3.572  17.632  0.00  0.00    +0.000 HD
BRANCH   9  11
ATOM     11  C   UNL     1       3.533   3.981  19.197  0.00  0.00    +0.000 A 
ATOM     12  C   UNL     1       2.953   5.082  19.833  0.00  0.00    +0.000 A 
ATOM     13  C   UNL     1       1.723   4.947  20.482  0.00  0.00    +0.000 A 
ATOM     14  C   UNL     1       1.085   3.707  20.526  0.00  0.00    +0.000 A 
ATOM     15  C   UNL     1       1.661   2.602  19.899  0.00  0.00    +0.000 A 
ATOM     16  C   UNL     1       2.869   2.746  19.212  0.00  0.00    +0.000 A 
ATOM     17 CL   UNL     1       3.566   1.353  18.457  0.00  0.00    +0.000 Cl
ENDBRANCH   9  11
ENDBRANCH   1   8
BRANCH   5  18
ATOM     18  C   UNL     1       5.703   5.826  14.936  0.00  0.00    +0.000 C 
BRANCH  18  19
ATOM     19  C   UNL     1       6.182   4.916  13.869  0.00  0.00    +0.000 A 
ATOM     20  C   UNL     1       7.314   4.905  13.083  0.00  0.00    +0.000 A 
ATOM     21  C   UNL     1       7.129   3.880  12.126  0.00  0.00    +0.000 A 
ATOM     22  C   UNL     1       5.917   3.307  12.410  0.00  0.00    +0.000 A 
ATOM     23  O   UNL     1       5.331   3.926  13.472  0.00  0.00    +0.000 OA
ENDBRANCH  18  19
ENDBRANCH   5  18
TORSDOF 4
ENDMDL
MODEL 5
REMARK VINA RESULT:      -7.0      1.057      1.231
REMARK  Name = 
REMARK  4 active torsions:
REMARK  status: ('A' for Active; 'I' for Inactive)
REMARK    1  A    between atoms: C_2  and  C_11
REMARK    2  A    between atoms: N_3  and  C_4
REMARK    3  A    between atoms: N_15  and  C_16
REMARK    4  A    between atoms: C_16  and  C_17
REMARK                            x       y       z     vdW  Elec       q    Type
REMARK                         _______ _______ _______ _____ _____    ______ ____
ROOT
ATOM      1  C   UNL     1       6.051   5.622  18.258  0.00  0.00    +0.000 C 
ATOM      2  C   UNL     1       5.835   6.856  17.387  0.00  0.00    +0.000 C 
ATOM      3  C   UNL     1       5.397   6.268  16.068  0.00  0.00    +0.000 C 
ATOM      4  O   UNL     1       4.869   6.883  15.156  0.00  0.00    +0.000 OA
ATOM      5  N   UNL     1       5.701   4.917  16.078  0.00  0.00    +0.000 N 
ATOM      6  C   UNL     1       6.416   4.525  17.271  0.00  0.00    +0.000 C 
ENDROOT
BRANCH   1   8
ATOM      7  O   UNL     1       4.171   6.271  19.595  0.00  0.00    +0.000 OA
ATOM      8  C   UNL     1       4.788   5.344  19.073  0.00  0.00    +0.000 C 
ATOM      9  N   UNL     1       4.401   4.018  19.123  0.00  0.00    +0.000 N 
ATOM     10  H   UNL     1       5.132   3.321  19.027  0.00  0.00    +0.000 HD
BRANCH   9  11
ATOM     11  C   UNL     1       3.232   3.566  19.773  0.00  0.00    +0.000 A 
ATOM     12  C   UNL     1       3.291   2.991  21.046  0.00  0.00    +0.000 A 
ATOM     13  C   UNL     1       2.116   2.593  21.689  0.00  0.00    +0.000 A 
ATOM     14  C   UNL     1       0.883   2.736  21.051  0.00  0.00    +0.000 A 
ATOM     15  C   UNL     1       0.817   3.303  19.779  0.00  0.00    +0.000 A 
ATOM     16  C   UNL     1       1.987   3.741  19.153  0.00  0.00    +0.000 A 
ATOM     17 CL   UNL     1       1.874   4.426  17.567  0.00  0.00    +0.000 Cl
ENDBRANCH   9  11
ENDBRANCH   1   8
BRANCH   5  18
ATOM     18  C   UNL     1       5.488   4.031  14.949  0.00  0.00    +0.000 C 
BRANCH  18  19
ATOM     19  C   UNL     1       6.442   4.285  13.843  0.00  0.00    +0.000 A 
ATOM     20  C   UNL     1       7.508   5.146  13.703  0.00  0.00    +0.000 A 
ATOM     21  C   UNL     1       7.928   5.051  12.355  0.00  0.00    +0.000 A 
ATOM     22  C   UNL     1       7.118   4.113  11.770  0.00  0.00    +0.000 A 
ATOM     23  O   UNL     1       6.211   3.635  12.665  0.00  0.00    +0.000 OA
ENDBRANCH  18  19
ENDBRANCH   5  18
TORSDOF 4
ENDMDL
MODEL 6
REMARK VINA RESULT:      -7.0      1.354      1.553
REMARK  Name = 
REMARK  4 active torsions:
REMARK  status: ('A' for Active; 'I' for Inactive)
REMARK    1  A    between atoms: C_2  and  C_11
REMARK    2  A    between atoms: N_3  and  C_4
REMARK    3  A    between atoms: N_15  and  C_16
REMARK    4  A    between atoms: C_16  and  C_17
REMARK                            x       y       z     vdW  Elec       q    Type
REMARK                         _______ _______ _______ _____ _____    ______ ____
ROOT
ATOM      1  C   UNL     1       6.749   4.712  18.382  0.00  0.00    +0.000 C 
ATOM      2  C   UNL     1       7.227   6.138  18.645  0.00  0.00    +0.000 C 
ATOM      3  C   UNL     1       7.384   6.705  17.255  0.00  0.00    +0.000 C 
ATOM      4  O   UNL     1       7.496   7.888  16.979  0.00  0.00    +0.000 OA
ATOM      5  N   UNL     1       7.378   5.650  16.358  0.00  0.00    +0.000 N 
ATOM      6  C   UNL     1       7.331   4.367  17.020  0.00  0.00    +0.000 C 
ENDROOT
BRANCH   1   8
ATOM      7  O   UNL     1       4.547   5.275  17.622  0.00  0.00    +0.000 OA
ATOM      8  C   UNL     1       5.223   4.664  18.449  0.00  0.00    +0.000 C 
ATOM      9  N   UNL     1       4.703   3.869  19.452  0.00  0.00    +0.000 N 
ATOM     10  H   UNL     1       5.272   3.744  20.283  0.00  0.00    +0.000 HD
BRANCH   9  11
ATOM     11  C   UNL     1       3.322   3.647  19.641  0.00  0.00    +0.000 A 
ATOM     12  C   UNL     1       2.560   4.492  20.453  0.00  0.00    +0.000 A 
ATOM     13  C   UNL     1       1.185   4.279  20.589  0.00  0.00    +0.000 A 
ATOM     14  C   UNL     1       0.573   3.206  19.941  0.00  0.00    +0.000 A 
ATOM     15  C   UNL     1       1.328   2.355  19.134  0.00  0.00    +0.000 A 
ATOM     16  C   UNL     1       2.694   2.592  18.963  0.00  0.00    +0.000 A 
ATOM     17 CL   UNL     1       3.607   1.509  17.968  0.00  0.00    +0.000 Cl
ENDBRANCH   9  11
ENDBRANCH   1   8
BRANCH   5  18
ATOM     18  C   UNL     1       7.576   5.802  14.929  0.00  0.00    +0.000 C 
BRANCH  18  19
ATOM     19  C   UNL     1       6.693   4.914  14.137  0.00  0.00    +0.000 A 
ATOM     20  C   UNL     1       5.448   4.374  14.376  0.00  0.00    +0.000 A 
ATOM     21  C   UNL     1       5.194   3.466  13.320  0.00  0.00    +0.000 A 
ATOM     22  C   UNL     1       6.280   3.537  12.488  0.00  0.00    +0.000 A 
ATOM     23  O   UNL     1       7.199   4.418  12.971  0.00  0.00    +0.000 OA
ENDBRANCH  18  19
ENDBRANCH   5  18
TORSDOF 4
ENDMDL
MODEL 7
REMARK VINA RESULT:      -6.9      1.394      1.882
REMARK  Name = 
REMARK  4 active torsions:
REMARK  status: ('A' for Active; 'I' for Inactive)
REMARK    1  A    between atoms: C_2  and  C_11
REMARK    2  A    between atoms: N_3  and  C_4
REMARK    3  A    between atoms: N_15  and  C_16
REMARK    4  A    between atoms: C_16  and  C_17
REMARK                            x       y       z     vdW  Elec       q    Type
REMARK                         _______ _______ _______ _____ _____    ______ ____
ROOT
ATOM      1  C   UNL     1       6.612   4.811  17.733  0.00  0.00    +0.000 C 
ATOM      2  C   UNL     1       6.649   6.225  17.160  0.00  0.00    +0.000 C 
ATOM      3  C   UNL     1       5.765   6.120  15.941  0.00  0.00    +0.000 C 
ATOM      4  O   UNL     1       5.296   7.060  15.321  0.00  0.00    +0.000 OA
ATOM      5  N   UNL     1       5.584   4.777  15.656  0.00  0.00    +0.000 N 
ATOM      6  C   UNL     1       6.360   3.923  16.525  0.00  0.00    +0.000 C 
ENDROOT
BRANCH   1   8
ATOM      7  O   UNL     1       5.589   5.460  19.801  0.00  0.00    +0.000 OA
ATOM      8  C   UNL     1       5.536   4.726  18.815  0.00  0.00    +0.000 C 
ATOM      9  N   UNL     1       4.522   3.820  18.566  0.00  0.00    +0.000 N 
ATOM     10  H   UNL     1       4.751   3.021  17.984  0.00  0.00    +0.000 HD
BRANCH   9  11
ATOM     11  C   UNL     1       3.407   3.637  19.413  0.00  0.00    +0.000 A 
ATOM     12  C   UNL     1       2.235   4.377  19.232  0.00  0.00    +0.000 A 
ATOM     13  C   UNL     1       1.129   4.146  20.054  0.00  0.00    +0.000 A 
ATOM     14  C   UNL     1       1.199   3.200  21.077  0.00  0.00    +0.000 A 
ATOM     15  C   UNL     1       2.367   2.462  21.266  0.00  0.00    +0.000 A 
ATOM     16  C   UNL     1       3.459   2.661  20.419  0.00  0.00    +0.000 A 
ATOM     17 CL   UNL     1       4.900   1.741  20.690  0.00  0.00    +0.000 Cl
ENDBRANCH   9  11
ENDBRANCH   1   8
BRANCH   5  18
ATOM     18  C   UNL     1       4.845   4.286  14.508  0.00  0.00    +0.000 C 
BRANCH  18  19
ATOM     19  C   UNL     1       5.719   4.037  13.337  0.00  0.00    +0.000 A 
ATOM     20  C   UNL     1       5.667   3.127  12.305  0.00  0.00    +0.000 A 
ATOM     21  C   UNL     1       6.876   3.268  11.582  0.00  0.00    +0.000 A 
ATOM     22  C   UNL     1       7.570   4.278  12.196  0.00  0.00    +0.000 A 
ATOM     23  O   UNL     1       6.876   4.758  13.264  0.00  0.00    +0.000 OA
ENDBRANCH  18  19
ENDBRANCH   5  18
TORSDOF 4
ENDMDL
MODEL 8
REMARK VINA RESULT:      -6.9      1.369      1.785
REMARK  Name = 
REMARK  4 active torsions:
REMARK  status: ('A' for Active; 'I' for Inactive)
REMARK    1  A    between atoms: C_2  and  C_11
REMARK    2  A    between atoms: N_3  and  C_4
REMARK    3  A    between atoms: N_15  and  C_16
REMARK    4  A    between atoms: C_16  and  C_17
REMARK                            x       y       z     vdW  Elec       q    Type
REMARK                         _______ _______ _______ _____ _____    ______ ____
ROOT
ATOM      1  C   UNL     1       7.147   4.698  18.400  0.00  0.00    +0.000 C 
ATOM      2  C   UNL     1       7.684   6.098  18.681  0.00  0.00    +0.000 C 
ATOM      3  C   UNL     1       7.450   6.820  17.376  0.00  0.00    +0.000 C 
ATOM      4  O   UNL     1       7.485   8.029  17.217  0.00  0.00    +0.000 OA
ATOM      5  N   UNL     1       7.191   5.871  16.401  0.00  0.00    +0.000 N 
ATOM      6  C   UNL     1       7.325   4.522  16.900  0.00  0.00    +0.000 C 
ENDROOT
BRANCH   1   8
ATOM      7  O   UNL     1       5.249   5.431  19.668  0.00  0.00    +0.000 OA
ATOM      8  C   UNL     1       5.699   4.600  18.880  0.00  0.00    +0.000 C 
ATOM      9  N   UNL     1       4.967   3.564  18.332  0.00  0.00    +0.000 N 
ATOM     10  H   UNL     1       5.482   2.741  18.036  0.00  0.00    +0.000 HD
BRANCH   9  11
ATOM     11  C   UNL     1       3.599   3.340  18.601  0.00  0.00    +0.000 A 
ATOM     12  C   UNL     1       2.605   3.868  17.772  0.00  0.00    +0.000 A 
ATOM     13  C   UNL     1       1.259   3.596  18.032  0.00  0.00    +0.000 A 
ATOM     14  C   UNL     1       0.900   2.823  19.137  0.00  0.00    +0.000 A 
ATOM     15  C   UNL     1       1.886   2.298  19.972  0.00  0.00    +0.000 A 
ATOM     16  C   UNL     1       3.233   2.534  19.689  0.00  0.00    +0.000 A 
ATOM     17 CL   UNL     1       4.432   1.882  20.753  0.00  0.00    +0.000 Cl
ENDBRANCH   9  11
ENDBRANCH   1   8
BRANCH   5  18
ATOM     18  C   UNL     1       6.985   6.186  15.000  0.00  0.00    +0.000 C 
BRANCH  18  19
ATOM     19  C   UNL     1       6.561   5.005  14.212  0.00  0.00    +0.000 A 
ATOM     20  C   UNL     1       7.158   4.292  13.195  0.00  0.00    +0.000 A 
ATOM     21  C   UNL     1       6.191   3.371  12.727  0.00  0.00    +0.000 A 
ATOM     22  C   UNL     1       5.081   3.555  13.509  0.00  0.00    +0.000 A 
ATOM     23  O   UNL     1       5.293   4.544  14.420  0.00  0.00    +0.000 OA
ENDBRANCH  18  19
ENDBRANCH   5  18
TORSDOF 4
ENDMDL
MODEL 9
REMARK VINA RESULT:      -6.9      1.389      1.668
REMARK  Name = 
REMARK  4 active torsions:
REMARK  status: ('A' for Active; 'I' for Inactive)
REMARK    1  A    between atoms: C_2  and  C_11
REMARK    2  A    between atoms: N_3  and  C_4
REMARK    3  A    between atoms: N_15  and  C_16
REMARK    4  A    between atoms: C_16  and  C_17
REMARK                            x       y       z     vdW  Elec       q    Type
REMARK                         _______ _______ _______ _____ _____    ______ ____
ROOT
ATOM      1  C   UNL     1       6.137   5.982  18.554  0.00  0.00    +0.000 C 
ATOM      2  C   UNL     1       5.427   6.970  17.632  0.00  0.00    +0.000 C 
ATOM      3  C   UNL     1       5.833   6.501  16.256  0.00  0.00    +0.000 C 
ATOM      4  O   UNL     1       5.300   6.829  15.209  0.00  0.00    +0.000 OA
ATOM      5  N   UNL     1       6.909   5.641  16.396  0.00  0.00    +0.000 N 
ATOM      6  C   UNL     1       7.360   5.545  17.765  0.00  0.00    +0.000 C 
ENDROOT
BRANCH   1   8
ATOM      7  O   UNL     1       5.615   3.713  19.122  0.00  0.00    +0.000 OA
ATOM      8  C   UNL     1       5.182   4.846  18.919  0.00  0.00    +0.000 C 
ATOM      9  N   UNL     1       3.853   5.210  19.038  0.00  0.00    +0.000 N 
ATOM     10  H   UNL     1       3.543   6.006  18.491  0.00  0.00    +0.000 HD
BRANCH   9  11
ATOM     11  C   UNL     1       2.827   4.320  19.425  0.00  0.00    +0.000 A 
ATOM     12  C   UNL     1       2.372   4.276  20.746  0.00  0.00    +0.000 A 
ATOM     13  C   UNL     1       1.323   3.420  21.096  0.00  0.00    +0.000 A 
ATOM     14  C   UNL     1       0.749   2.584  20.137  0.00  0.00    +0.000 A 
ATOM     15  C   UNL     1       1.203   2.619  18.819  0.00  0.00    +0.000 A 
ATOM     16  C   UNL     1       2.221   3.505  18.459  0.00  0.00    +0.000 A 
ATOM     17 CL   UNL     1       2.773   3.513  16.818  0.00  0.00    +0.000 Cl
ENDBRANCH   9  11
ENDBRANCH   1   8
BRANCH   5  18
ATOM     18  C   UNL     1       7.617   5.043  15.280  0.00  0.00    +0.000 C 
BRANCH  18  19
ATOM     19  C   UNL     1       6.698   4.463  14.272  0.00  0.00    +0.000 A 
ATOM     20  C   UNL     1       5.503   3.786  14.372  0.00  0.00    +0.000 A 
ATOM     21  C   UNL     1       5.185   3.334  13.069  0.00  0.00    +0.000 A 
ATOM     22  C   UNL     1       6.185   3.794  12.253  0.00  0.00    +0.000 A 
ATOM     23  O   UNL     1       7.111   4.487  12.971  0.00  0.00    +0.000 OA
ENDBRANCH  18  19
ENDBRANCH   5  18
TORSDOF 4
ENDMDL
