MODEL 1
REMARK VINA RESULT:      -8.3      0.000      0.000
REMARK  Name = 
REMARK  4 active torsions:
REMARK  status: ('A' for Active; 'I' for Inactive)
REMARK    1  A    between atoms: C_1  and  C_2
REMARK    2  A    between atoms: C_5  and  C_6
REMARK    3  A    between atoms: C_10  and  C_12
REMARK    4  A    between atoms: C_13  and  C_14
REMARK                            x       y       z     vdW  Elec       q    Type
REMARK                         _______ _______ _______ _____ _____    ______ ____
ROOT
ATOM      1  C   UNL     1      -1.004  11.220  22.481  0.00  0.00    +0.000 A 
ATOM      2  C   UNL     1      -0.325  11.092  21.281  0.00  0.00    +0.000 A 
ATOM      3  C   UNL     1       0.215   9.782  21.270  0.00  0.00    +0.000 A 
ATOM      4  N   UNL     1       0.979   9.253  20.246  0.00  0.00    +0.000 N 
ATOM      5  C   UNL     1       1.506   7.982  20.271  0.00  0.00    +0.000 C 
ATOM      6  O   UNL     1       1.392   7.144  21.156  0.00  0.00    +0.000 OA
ATOM      7  N   UNL     1      -0.112   9.135  22.387  0.00  0.00    +0.000 NA
ATOM      8  N   UNL     1      -0.826  10.010  23.096  0.00  0.00    +0.000 N 
ATOM      9  H   UNL     1       1.149   9.859  19.460  0.00  0.00    +0.000 HD
ATOM     10  H   UNL     1      -1.147   9.723  24.014  0.00  0.00    +0.000 HD
ENDROOT
BRANCH   1  15
ATOM     11  C   UNL     1      -3.719  15.632  25.043  0.00  0.00    +0.000 C 
ATOM     12  C   UNL     1      -3.041  14.486  24.353  0.00  0.00    +0.000 A 
ATOM     13  C   UNL     1      -3.700  13.271  24.151  0.00  0.00    +0.000 A 
ATOM     14  C   UNL     1      -3.043  12.204  23.526  0.00  0.00    +0.000 A 
ATOM     15  C   UNL     1      -1.717  12.335  23.094  0.00  0.00    +0.000 A 
ATOM     16  C   UNL     1      -1.069  13.560  23.284  0.00  0.00    +0.000 A 
ATOM     17  C   UNL     1      -1.723  14.626  23.910  0.00  0.00    +0.000 A 
ENDBRANCH   1  15
BRANCH   5  18
ATOM     18  C   UNL     1       2.297   7.659  19.046  0.00  0.00    +0.000 C 
ATOM     19  C   UNL     1       2.904   6.462  18.993  0.00  0.00    +0.000 C 
BRANCH  19  20
ATOM     20  C   UNL     1       3.744   5.956  17.902  0.00  0.00    +0.000 A 
ATOM     21  C   UNL     1       3.734   4.576  17.645  0.00  0.00    +0.000 A 
ATOM     22  C   UNL     1       4.482   4.036  16.598  0.00  0.00    +0.000 A 
ATOM     23  C   UNL     1       5.242   4.879  15.792  0.00  0.00    +0.000 A 
ATOM     24 BR   UNL     1       6.264   4.153  14.377  0.00  0.00    +0.000 Br
ATOM     25  C   UNL     1       5.249   6.254  16.019  0.00  0.00    +0.000 A 
ATOM     26  C   UNL     1       4.499   6.793  17.069  0.00  0.00    +0.000 A 
ENDBRANCH  19  20
ENDBRANCH   5  18
TORSDOF 3
ENDMDL
MODEL 2
REMARK VINA RESULT:      -8.2      3.983     10.887
REMARK  Name = 
REMARK  4 active torsions:
REMARK  status: ('A' for Active; 'I' for Inactive)
REMARK    1  A    between atoms: C_1  and  C_2
REMARK    2  A    between atoms: C_5  and  C_6
REMARK    3  A    between atoms: C_10  and  C_12
REMARK    4  A    between atoms: C_13  and  C_14
REMARK                            x       y       z     vdW  Elec       q    Type
REMARK                         _______ _______ _______ _____ _____    ______ ____
ROOT
ATOM      1  C   UNL     1       2.894   6.881  18.719  0.00  0.00    +0.000 A 
ATOM      2  C   UNL     1       2.240   8.098  18.649  0.00  0.00    +0.000 A 
ATOM      3  C   UNL     1       1.580   8.264  19.892  0.00  0.00    +0.000 A 
ATOM      4  N   UNL     1       0.797   9.353  20.230  0.00  0.00    +0.000 N 
ATOM      5  C   UNL     1       0.153   9.479  21.439  0.00  0.00    +0.000 C 
ATOM      6  O   UNL     1       0.163   8.690  22.376  0.00  0.00    +0.000 OA
ATOM      7  N   UNL     1       1.813   7.221  20.685  0.00  0.00    +0.000 NA
ATOM      8  N   UNL     1       2.586   6.406  19.966  0.00  0.00    +0.000 N 
ATOM      9  H   UNL     1       0.707  10.069  19.528  0.00  0.00    +0.000 HD
ATOM     10  H   UNL     1       2.854   5.521  20.381  0.00  0.00    +0.000 HD
ENDROOT
BRANCH   1  15
ATOM     11  C   UNL     1       5.970   4.008  14.757  0.00  0.00    +0.000 C 
ATOM     12  C   UNL     1       5.187   4.732  15.811  0.00  0.00    +0.000 A 
ATOM     13  C   UNL     1       4.330   4.046  16.676  0.00  0.00    +0.000 A 
ATOM     14  C   UNL     1       3.590   4.742  17.639  0.00  0.00    +0.000 A 
ATOM     15  C   UNL     1       3.692   6.135  17.751  0.00  0.00    +0.000 A 
ATOM     16  C   UNL     1       4.564   6.814  16.894  0.00  0.00    +0.000 A 
ATOM     17  C   UNL     1       5.303   6.120  15.930  0.00  0.00    +0.000 A 
ENDBRANCH   1  15
BRANCH   5  18
ATOM     18  C   UNL     1      -0.632  10.744  21.549  0.00  0.00    +0.000 C 
ATOM     19  C   UNL     1      -0.926  11.192  22.781  0.00  0.00    +0.000 C 
BRANCH  19  20
ATOM     20  C   UNL     1      -1.700  12.393  23.112  0.00  0.00    +0.000 A 
ATOM     21  C   UNL     1      -3.065  12.239  23.405  0.00  0.00    +0.000 A 
ATOM     22  C   UNL     1      -3.849  13.337  23.763  0.00  0.00    +0.000 A 
ATOM     23  C   UNL     1      -3.268  14.599  23.842  0.00  0.00    +0.000 A 
ATOM     24 BR   UNL     1      -4.326  16.090  24.320  0.00  0.00    +0.000 Br
ATOM     25  C   UNL     1      -1.911  14.768  23.575  0.00  0.00    +0.000 A 
ATOM     26  C   UNL     1      -1.127  13.667  23.215  0.00  0.00    +0.000 A 
ENDBRANCH  19  20
ENDBRANCH   5  18
TORSDOF 3
ENDMDL
MODEL 3
REMARK VINA RESULT:      -8.2      4.011     10.949
REMARK  Name = 
REMARK  4 active torsions:
REMARK  status: ('A' for Active; 'I' for Inactive)
REMARK    1  A    between atoms: C_1  and  C_2
REMARK    2  A    between atoms: C_5  and  C_6
REMARK    3  A    between atoms: C_10  and  C_12
REMARK    4  A    between atoms: C_13  and  C_14
REMARK                            x       y       z     vdW  Elec       q    Type
REMARK                         _______ _______ _______ _____ _____    ______ ____
ROOT
ATOM      1  C   UNL     1       2.722   6.985  18.893  0.00  0.00    +0.000 A 
ATOM      2  C   UNL     1       2.162   8.251  18.878  0.00  0.00    +0.000 A 
ATOM      3  C   UNL     1       1.458   8.386  20.100  0.00  0.00    +0.000 A 
ATOM      4  N   UNL     1       0.742   9.507  20.478  0.00  0.00    +0.000 N 
ATOM      5  C   UNL     1       0.052   9.603  21.664  0.00  0.00    +0.000 C 
ATOM      6  O   UNL     1      -0.039   8.757  22.545  0.00  0.00    +0.000 OA
ATOM      7  N   UNL     1       1.577   7.279  20.830  0.00  0.00    +0.000 NA
ATOM      8  N   UNL     1       2.322   6.456  20.091  0.00  0.00    +0.000 N 
ATOM      9  H   UNL     1       0.737  10.272  19.823  0.00  0.00    +0.000 HD
ATOM     10  H   UNL     1       2.505   5.528  20.455  0.00  0.00    +0.000 HD
ENDROOT
BRANCH   1  15
ATOM     11  C   UNL     1       5.920   3.977  15.133  0.00  0.00    +0.000 C 
ATOM     12  C   UNL     1       5.077   4.777  16.080  0.00  0.00    +0.000 A 
ATOM     13  C   UNL     1       5.187   6.169  16.149  0.00  0.00    +0.000 A 
ATOM     14  C   UNL     1       4.408   6.897  17.057  0.00  0.00    +0.000 A 
ATOM     15  C   UNL     1       3.508   6.246  17.911  0.00  0.00    +0.000 A 
ATOM     16  C   UNL     1       3.391   4.855  17.825  0.00  0.00    +0.000 A 
ATOM     17  C   UNL     1       4.170   4.126  16.921  0.00  0.00    +0.000 A 
ENDBRANCH   1  15
BRANCH   5  18
ATOM     18  C   UNL     1      -0.642  10.915  21.826  0.00  0.00    +0.000 C 
ATOM     19  C   UNL     1      -1.282  11.145  22.985  0.00  0.00    +0.000 C 
BRANCH  19  20
ATOM     20  C   UNL     1      -2.042  12.348  23.341  0.00  0.00    +0.000 A 
ATOM     21  C   UNL     1      -1.376  13.583  23.309  0.00  0.00    +0.000 A 
ATOM     22  C   UNL     1      -2.053  14.769  23.601  0.00  0.00    +0.000 A 
ATOM     23  C   UNL     1      -3.407  14.726  23.919  0.00  0.00    +0.000 A 
ATOM     24 BR   UNL     1      -4.327  16.327  24.322  0.00  0.00    +0.000 Br
ATOM     25  C   UNL     1      -4.089  13.511  23.935  0.00  0.00    +0.000 A 
ATOM     26  C   UNL     1      -3.409  12.324  23.643  0.00  0.00    +0.000 A 
ENDBRANCH  19  20
ENDBRANCH   5  18
TORSDOF 3
ENDMDL
MODEL 4
REMARK VINA RESULT:      -8.1      4.010     10.928
REMARK  Name = 
REMARK  4 active torsions:
REMARK  status: ('A' for Active; 'I' for Inactive)
REMARK    1  A    between atoms: C_1  and  C_2
REMARK    2  A    between atoms: C_5  and  C_6
REMARK    3  A    between atoms: C_10  and  C_12
REMARK    4  A    between atoms: C_13  and  C_14
REMARK                            x       y       z     vdW  Elec       q    Type
REMARK                         _______ _______ _______ _____ _____    ______ ____
ROOT
ATOM      1  C   UNL     1       2.818   6.997  18.728  0.00  0.00    +0.000 A 
ATOM      2  C   UNL     1       2.146   8.204  18.650  0.00  0.00    +0.000 A 
ATOM      3  C   UNL     1       1.493   8.374  19.896  0.00  0.00    +0.000 A 
ATOM      4  N   UNL     1       0.697   9.455  20.228  0.00  0.00    +0.000 N 
ATOM      5  C   UNL     1       0.060   9.585  21.441  0.00  0.00    +0.000 C 
ATOM      6  O   UNL     1       0.089   8.806  22.386  0.00  0.00    +0.000 OA
ATOM      7  N   UNL     1       1.746   7.342  20.698  0.00  0.00    +0.000 NA
ATOM      8  N   UNL     1       2.526   6.531  19.982  0.00  0.00    +0.000 N 
ATOM      9  H   UNL     1       0.591  10.163  19.520  0.00  0.00    +0.000 HD
ATOM     10  H   UNL     1       2.809   5.654  20.404  0.00  0.00    +0.000 HD
ENDROOT
BRANCH   1  15
ATOM     11  C   UNL     1       6.069   3.968  15.031  0.00  0.00    +0.000 C 
ATOM     12  C   UNL     1       5.214   4.774  15.962  0.00  0.00    +0.000 A 
ATOM     13  C   UNL     1       5.355   6.161  16.057  0.00  0.00    +0.000 A 
ATOM     14  C   UNL     1       4.564   6.894  16.949  0.00  0.00    +0.000 A 
ATOM     15  C   UNL     1       3.619   6.253  17.762  0.00  0.00    +0.000 A 
ATOM     16  C   UNL     1       3.471   4.866  17.650  0.00  0.00    +0.000 A 
ATOM     17  C   UNL     1       4.262   4.132  16.761  0.00  0.00    +0.000 A 
ENDBRANCH   1  15
BRANCH   5  18
ATOM     18  C   UNL     1      -0.742  10.840  21.543  0.00  0.00    +0.000 C 
ATOM     19  C   UNL     1      -1.002  11.317  22.772  0.00  0.00    +0.000 C 
BRANCH  19  20
ATOM     20  C   UNL     1      -1.785  12.513  23.098  0.00  0.00    +0.000 A 
ATOM     21  C   UNL     1      -3.185  12.410  23.087  0.00  0.00    +0.000 A 
ATOM     22  C   UNL     1      -3.987  13.502  23.423  0.00  0.00    +0.000 A 
ATOM     23  C   UNL     1      -3.390  14.707  23.783  0.00  0.00    +0.000 A 
ATOM     24 BR   UNL     1      -4.471  16.191  24.233  0.00  0.00    +0.000 Br
ATOM     25  C   UNL     1      -2.002  14.822  23.819  0.00  0.00    +0.000 A 
ATOM     26  C   UNL     1      -1.200  13.727  23.482  0.00  0.00    +0.000 A 
ENDBRANCH  19  20
ENDBRANCH   5  18
TORSDOF 3
ENDMDL
MODEL 5
REMARK VINA RESULT:      -7.6      4.382     10.929
REMARK  Name = 
REMARK  4 active torsions:
REMARK  status: ('A' for Active; 'I' for Inactive)
REMARK    1  A    between atoms: C_1  and  C_2
REMARK    2  A    between atoms: C_5  and  C_6
REMARK    3  A    between atoms: C_10  and  C_12
REMARK    4  A    between atoms: C_13  and  C_14
REMARK                            x       y       z     vdW  Elec       q    Type
REMARK                         _______ _______ _______ _____ _____    ______ ____
ROOT
ATOM      1  C   UNL     1       1.956   7.831  19.813  0.00  0.00    +0.000 A 
ATOM      2  C   UNL     1       1.205   8.975  19.608  0.00  0.00    +0.000 A 
ATOM      3  C   UNL     1       0.751   9.384  20.887  0.00  0.00    +0.000 A 
ATOM      4  N   UNL     1      -0.047  10.488  21.124  0.00  0.00    +0.000 N 
ATOM      5  C   UNL     1      -0.489  10.851  22.376  0.00  0.00    +0.000 C 
ATOM      6  O   UNL     1      -0.260  10.289  23.439  0.00  0.00    +0.000 OA
ATOM      7  N   UNL     1       1.195   8.552  21.826  0.00  0.00    +0.000 NA
ATOM      8  N   UNL     1       1.900   7.631  21.167  0.00  0.00    +0.000 N 
ATOM      9  H   UNL     1      -0.310  11.028  20.316  0.00  0.00    +0.000 HD
ATOM     10  H   UNL     1       2.301   6.870  21.703  0.00  0.00    +0.000 HD
ENDROOT
BRANCH   1  15
ATOM     11  C   UNL     1       4.741   4.171  16.311  0.00  0.00    +0.000 C 
ATOM     12  C   UNL     1       4.005   5.138  17.190  0.00  0.00    +0.000 A 
ATOM     13  C   UNL     1       4.202   6.516  17.075  0.00  0.00    +0.000 A 
ATOM     14  C   UNL     1       3.523   7.402  17.920  0.00  0.00    +0.000 A 
ATOM     15  C   UNL     1       2.638   6.924  18.896  0.00  0.00    +0.000 A 
ATOM     16  C   UNL     1       2.432   5.544  18.994  0.00  0.00    +0.000 A 
ATOM     17  C   UNL     1       3.111   4.658  18.152  0.00  0.00    +0.000 A 
ENDBRANCH   1  15
BRANCH   5  18
ATOM     18  C   UNL     1      -1.342  12.077  22.357  0.00  0.00    +0.000 C 
ATOM     19  C   UNL     1      -2.491  12.049  23.052  0.00  0.00    +0.000 C 
BRANCH  19  20
ATOM     20  C   UNL     1      -3.480  13.127  23.148  0.00  0.00    +0.000 A 
ATOM     21  C   UNL     1      -4.626  13.046  22.342  0.00  0.00    +0.000 A 
ATOM     22  C   UNL     1      -5.623  14.022  22.413  0.00  0.00    +0.000 A 
ATOM     23  C   UNL     1      -5.482  15.083  23.303  0.00  0.00    +0.000 A 
ATOM     24 BR   UNL     1      -6.825  16.410  23.399  0.00  0.00    +0.000 Br
ATOM     25  C   UNL     1      -4.361  15.168  24.126  0.00  0.00    +0.000 A 
ATOM     26  C   UNL     1      -3.364  14.190  24.053  0.00  0.00    +0.000 A 
ENDBRANCH  19  20
ENDBRANCH   5  18
TORSDOF 3
ENDMDL
MODEL 6
REMARK VINA RESULT:      -7.6      4.090     11.064
REMARK  Name = 
REMARK  4 active torsions:
REMARK  status: ('A' for Active; 'I' for Inactive)
REMARK    1  A    between atoms: C_1  and  C_2
REMARK    2  A    between atoms: C_5  and  C_6
REMARK    3  A    between atoms: C_10  and  C_12
REMARK    4  A    between atoms: C_13  and  C_14
REMARK                            x       y       z     vdW  Elec       q    Type
REMARK                         _______ _______ _______ _____ _____    ______ ____
ROOT
ATOM      1  C   UNL     1       4.640   4.932  16.876  0.00  0.00    +0.000 A 
ATOM      2  C   UNL     1       3.871   5.994  17.318  0.00  0.00    +0.000 A 
ATOM      3  C   UNL     1       3.356   5.610  18.582  0.00  0.00    +0.000 A 
ATOM      4  N   UNL     1       2.522   6.388  19.363  0.00  0.00    +0.000 N 
ATOM      5  C   UNL     1       2.022   5.981  20.579  0.00  0.00    +0.000 C 
ATOM      6  O   UNL     1       2.222   4.916  21.148  0.00  0.00    +0.000 OA
ATOM      7  N   UNL     1       3.782   4.391  18.906  0.00  0.00    +0.000 NA
ATOM      8  N   UNL     1       4.534   4.003  17.876  0.00  0.00    +0.000 N 
ATOM      9  H   UNL     1       2.279   7.292  18.990  0.00  0.00    +0.000 HD
ATOM     10  H   UNL     1       4.932   3.071  17.906  0.00  0.00    +0.000 HD
ENDROOT
BRANCH   1  15
ATOM     11  C   UNL     1       7.561   4.186  11.944  0.00  0.00    +0.000 C 
ATOM     12  C   UNL     1       6.801   4.343  13.227  0.00  0.00    +0.000 A 
ATOM     13  C   UNL     1       5.531   3.784  13.389  0.00  0.00    +0.000 A 
ATOM     14  C   UNL     1       4.826   3.961  14.586  0.00  0.00    +0.000 A 
ATOM     15  C   UNL     1       5.379   4.701  15.639  0.00  0.00    +0.000 A 
ATOM     16  C   UNL     1       6.658   5.244  15.477  0.00  0.00    +0.000 A 
ATOM     17  C   UNL     1       7.362   5.070  14.281  0.00  0.00    +0.000 A 
ENDBRANCH   1  15
BRANCH   5  18
ATOM     18  C   UNL     1       1.142   7.005  21.216  0.00  0.00    +0.000 C 
ATOM     19  C   UNL     1       1.323   8.289  20.866  0.00  0.00    +0.000 C 
BRANCH  19  20
ATOM     20  C   UNL     1       0.588   9.448  21.384  0.00  0.00    +0.000 A 
ATOM     21  C   UNL     1      -0.170   9.282  22.554  0.00  0.00    +0.000 A 
ATOM     22  C   UNL     1      -0.862  10.355  23.118  0.00  0.00    +0.000 A 
ATOM     23  C   UNL     1      -0.792  11.608  22.518  0.00  0.00    +0.000 A 
ATOM     24 BR   UNL     1      -1.733  13.063  23.274  0.00  0.00    +0.000 Br
ATOM     25  C   UNL     1      -0.028  11.798  21.368  0.00  0.00    +0.000 A 
ATOM     26  C   UNL     1       0.664  10.721  20.804  0.00  0.00    +0.000 A 
ENDBRANCH  19  20
ENDBRANCH   5  18
TORSDOF 3
ENDMDL
MODEL 7
REMARK VINA RESULT:      -7.6      0.614      1.162
REMARK  Name = 
REMARK  4 active torsions:
REMARK  status: ('A' for Active; 'I' for Inactive)
REMARK    1  A    between atoms: C_1  and  C_2
REMARK    2  A    between atoms: C_5  and  C_6
REMARK    3  A    between atoms: C_10  and  C_12
REMARK    4  A    between atoms: C_13  and  C_14
REMARK                            x       y       z     vdW  Elec       q    Type
REMARK                         _______ _______ _______ _____ _____    ______ ____
ROOT
ATOM      1  C   UNL     1      -1.301  11.445  22.137  0.00  0.00    +0.000 A 
ATOM      2  C   UNL     1      -0.726  11.188  20.904  0.00  0.00    +0.000 A 
ATOM      3  C   UNL     1       0.012   9.988  21.054  0.00  0.00    +0.000 A 
ATOM      4  N   UNL     1       0.751   9.387  20.052  0.00  0.00    +0.000 N 
ATOM      5  C   UNL     1       1.474   8.229  20.232  0.00  0.00    +0.000 C 
ATOM      6  O   UNL     1       1.578   7.567  21.257  0.00  0.00    +0.000 OA
ATOM      7  N   UNL     1      -0.101   9.526  22.297  0.00  0.00    +0.000 NA
ATOM      8  N   UNL     1      -0.875  10.411  22.926  0.00  0.00    +0.000 N 
ATOM      9  H   UNL     1       0.748   9.850  19.158  0.00  0.00    +0.000 HD
ATOM     10  H   UNL     1      -1.058  10.261  23.912  0.00  0.00    +0.000 HD
ENDROOT
BRANCH   1  15
ATOM     11  C   UNL     1      -4.531  15.748  24.249  0.00  0.00    +0.000 C 
ATOM     12  C   UNL     1      -3.702  14.642  23.667  0.00  0.00    +0.000 A 
ATOM     13  C   UNL     1      -4.269  13.676  22.831  0.00  0.00    +0.000 A 
ATOM     14  C   UNL     1      -3.484  12.637  22.316  0.00  0.00    +0.000 A 
ATOM     15  C   UNL     1      -2.122  12.546  22.629  0.00  0.00    +0.000 A 
ATOM     16  C   UNL     1      -1.557  13.526  23.453  0.00  0.00    +0.000 A 
ATOM     17  C   UNL     1      -2.340  14.563  23.970  0.00  0.00    +0.000 A 
ENDBRANCH   1  15
BRANCH   5  18
ATOM     18  C   UNL     1       2.188   7.794  18.995  0.00  0.00    +0.000 C 
ATOM     19  C   UNL     1       2.799   6.598  19.015  0.00  0.00    +0.000 C 
BRANCH  19  20
ATOM     20  C   UNL     1       3.571   5.992  17.925  0.00  0.00    +0.000 A 
ATOM     21  C   UNL     1       4.398   6.828  17.158  0.00  0.00    +0.000 A 
ATOM     22  C   UNL     1       5.187   6.307  16.129  0.00  0.00    +0.000 A 
ATOM     23  C   UNL     1       5.159   4.941  15.869  0.00  0.00    +0.000 A 
ATOM     24 BR   UNL     1       6.219   4.231  14.474  0.00  0.00    +0.000 Br
ATOM     25  C   UNL     1       4.360   4.093  16.633  0.00  0.00    +0.000 A 
ATOM     26  C   UNL     1       3.571   4.616  17.663  0.00  0.00    +0.000 A 
ENDBRANCH  19  20
ENDBRANCH   5  18
TORSDOF 3
ENDMDL
MODEL 8
REMARK VINA RESULT:      -7.6      4.368     10.970
REMARK  Name = 
REMARK  4 active torsions:
REMARK  status: ('A' for Active; 'I' for Inactive)
REMARK    1  A    between atoms: C_1  and  C_2
REMARK    2  A    between atoms: C_5  and  C_6
REMARK    3  A    between atoms: C_10  and  C_12
REMARK    4  A    between atoms: C_13  and  C_14
REMARK                            x       y       z     vdW  Elec       q    Type
REMARK                         _______ _______ _______ _____ _____    ______ ____
ROOT
ATOM      1  C   UNL     1       1.982   7.843  19.823  0.00  0.00    +0.000 A 
ATOM      2  C   UNL     1       1.263   9.010  19.633  0.00  0.00    +0.000 A 
ATOM      3  C   UNL     1       0.784   9.391  20.911  0.00  0.00    +0.000 A 
ATOM      4  N   UNL     1       0.005  10.506  21.160  0.00  0.00    +0.000 N 
ATOM      5  C   UNL     1      -0.462  10.842  22.410  0.00  0.00    +0.000 C 
ATOM      6  O   UNL     1      -0.274  10.244  23.462  0.00  0.00    +0.000 OA
ATOM      7  N   UNL     1       1.184   8.522  21.836  0.00  0.00    +0.000 NA
ATOM      8  N   UNL     1       1.885   7.605  21.168  0.00  0.00    +0.000 N 
ATOM      9  H   UNL     1      -0.224  11.076  20.362  0.00  0.00    +0.000 HD
ATOM     10  H   UNL     1       2.255   6.820  21.691  0.00  0.00    +0.000 HD
ENDROOT
BRANCH   1  15
ATOM     11  C   UNL     1       4.784   4.230  16.286  0.00  0.00    +0.000 C 
ATOM     12  C   UNL     1       4.042   5.184  17.174  0.00  0.00    +0.000 A 
ATOM     13  C   UNL     1       4.223   6.566  17.063  0.00  0.00    +0.000 A 
ATOM     14  C   UNL     1       3.540   7.440  17.917  0.00  0.00    +0.000 A 
ATOM     15  C   UNL     1       2.667   6.948  18.896  0.00  0.00    +0.000 A 
ATOM     16  C   UNL     1       2.478   5.565  18.991  0.00  0.00    +0.000 A 
ATOM     17  C   UNL     1       3.161   4.690  18.140  0.00  0.00    +0.000 A 
ENDBRANCH   1  15
BRANCH   5  18
ATOM     18  C   UNL     1      -1.286  12.088  22.406  0.00  0.00    +0.000 C 
ATOM     19  C   UNL     1      -2.382  12.113  23.181  0.00  0.00    +0.000 C 
BRANCH  19  20
ATOM     20  C   UNL     1      -3.338  13.219  23.307  0.00  0.00    +0.000 A 
ATOM     21  C   UNL     1      -3.010  14.282  24.163  0.00  0.00    +0.000 A 
ATOM     22  C   UNL     1      -3.859  15.382  24.299  0.00  0.00    +0.000 A 
ATOM     23  C   UNL     1      -5.043  15.428  23.569  0.00  0.00    +0.000 A 
ATOM     24 BR   UNL     1      -6.201  16.911  23.754  0.00  0.00    +0.000 Br
ATOM     25  C   UNL     1      -5.376  14.392  22.699  0.00  0.00    +0.000 A 
ATOM     26  C   UNL     1      -4.523  13.291  22.565  0.00  0.00    +0.000 A 
ENDBRANCH  19  20
ENDBRANCH   5  18
TORSDOF 3
ENDMDL
MODEL 9
REMARK VINA RESULT:      -7.6      3.945      4.825
REMARK  Name = 
REMARK  4 active torsions:
REMARK  status: ('A' for Active; 'I' for Inactive)
REMARK    1  A    between atoms: C_1  and  C_2
REMARK    2  A    between atoms: C_5  and  C_6
REMARK    3  A    between atoms: C_10  and  C_12
REMARK    4  A    between atoms: C_13  and  C_14
REMARK                            x       y       z     vdW  Elec       q    Type
REMARK                         _______ _______ _______ _____ _____    ______ ____
ROOT
ATOM      1  C   UNL     1       0.750  13.465  19.852  0.00  0.00    +0.000 A 
ATOM      2  C   UNL     1       0.875  12.164  19.399  0.00  0.00    +0.000 A 
ATOM      3  C   UNL     1       0.857  11.340  20.552  0.00  0.00    +0.000 A 
ATOM      4  N   UNL     1       0.970   9.962  20.538  0.00  0.00    +0.000 N 
ATOM      5  C   UNL     1       0.968   9.189  21.676  0.00  0.00    +0.000 C 
ATOM      6  O   UNL     1       0.869   9.568  22.836  0.00  0.00    +0.000 OA
ATOM      7  N   UNL     1       0.725  12.081  21.650  0.00  0.00    +0.000 NA
ATOM      8  N   UNL     1       0.674  13.340  21.214  0.00  0.00    +0.000 N 
ATOM      9  H   UNL     1       1.067   9.534  19.632  0.00  0.00    +0.000 HD
ATOM     10  H   UNL     1       0.609  14.077  21.906  0.00  0.00    +0.000 HD
ENDROOT
BRANCH   1  15
ATOM     11  C   UNL     1       0.852  18.630  17.258  0.00  0.00    +0.000 C 
ATOM     12  C   UNL     1       0.804  17.278  17.905  0.00  0.00    +0.000 A 
ATOM     13  C   UNL     1      -0.411  16.703  18.289  0.00  0.00    +0.000 A 
ATOM     14  C   UNL     1      -0.434  15.449  18.913  0.00  0.00    +0.000 A 
ATOM     15  C   UNL     1       0.755  14.752  19.164  0.00  0.00    +0.000 A 
ATOM     16  C   UNL     1       1.965  15.326  18.761  0.00  0.00    +0.000 A 
ATOM     17  C   UNL     1       1.991  16.578  18.141  0.00  0.00    +0.000 A 
ENDBRANCH   1  15
BRANCH   5  18
ATOM     18  C   UNL     1       1.110   7.731  21.386  0.00  0.00    +0.000 C 
ATOM     19  C   UNL     1       1.956   7.368  20.408  0.00  0.00    +0.000 C 
BRANCH  19  20
ATOM     20  C   UNL     1       2.226   6.002  19.948  0.00  0.00    +0.000 A 
ATOM     21  C   UNL     1       3.182   5.821  18.937  0.00  0.00    +0.000 A 
ATOM     22  C   UNL     1       3.511   4.543  18.480  0.00  0.00    +0.000 A 
ATOM     23  C   UNL     1       2.889   3.433  19.043  0.00  0.00    +0.000 A 
ATOM     24 BR   UNL     1       3.325   1.701  18.425  0.00  0.00    +0.000 Br
ATOM     25  C   UNL     1       1.951   3.591  20.062  0.00  0.00    +0.000 A 
ATOM     26  C   UNL     1       1.623   4.872  20.517  0.00  0.00    +0.000 A 
ENDBRANCH  19  20
ENDBRANCH   5  18
TORSDOF 3
ENDMDL
