MODEL 1
REMARK VINA RESULT:      -8.3      0.000      0.000
REMARK  Name = 
REMARK  3 active torsions:
REMARK  status: ('A' for Active; 'I' for Inactive)
REMARK    1  A    between atoms: C_5  and  C_6
REMARK    2  A    between atoms: N_8  and  C_9
REMARK    3  A    between atoms: C_16  and  C_17
REMARK                            x       y       z     vdW  Elec       q    Type
REMARK                         _______ _______ _______ _____ _____    ______ ____
ROOT
ATOM      1  C   UNL     1       4.114   6.441  17.463  0.00  0.00    +0.000 A 
ATOM      2  C   UNL     1       3.624   7.718  17.596  0.00  0.00    +0.000 A 
ATOM      3  N   UNL     1       2.594   7.654  18.502  0.00  0.00    +0.000 N 
ATOM      4  N   UNL     1       2.396   6.383  18.937  0.00  0.00    +0.000 NA
ATOM      5  C   UNL     1       3.294   5.627  18.282  0.00  0.00    +0.000 A 
ENDROOT
BRANCH   1  10
ATOM      6  N   UNL     1       6.765   4.410  14.076  0.00  0.00    +0.000 N 
ATOM      7  C   UNL     1       6.507   5.199  15.121  0.00  0.00    +0.000 A 
ATOM      8  N   UNL     1       7.281   6.025  15.783  0.00  0.00    +0.000 NA
ATOM      9  N   UNL     1       6.495   6.574  16.780  0.00  0.00    +0.000 NA
ATOM     10  C   UNL     1       5.281   6.076  16.622  0.00  0.00    +0.000 A 
ATOM     11  O   UNL     1       5.231   5.183  15.581  0.00  0.00    +0.000 OA
ATOM     12  H   UNL     1       7.590   4.617  13.526  0.00  0.00    +0.000 HD
ATOM     13  H   UNL     1       5.981   4.033  13.559  0.00  0.00    +0.000 HD
ENDBRANCH   1  10
BRANCH   3  14
ATOM     14  C   UNL     1       1.787   8.730  18.977  0.00  0.00    +0.000 A 
ATOM     15  C   UNL     1       1.521   9.846  18.172  0.00  0.00    +0.000 A 
ATOM     16  C   UNL     1       0.716  10.883  18.656  0.00  0.00    +0.000 A 
ATOM     17  C   UNL     1       0.177  10.814  19.939  0.00  0.00    +0.000 A 
ATOM     18  C   UNL     1       0.441   9.710  20.746  0.00  0.00    +0.000 A 
ATOM     19  C   UNL     1       1.244   8.668  20.269  0.00  0.00    +0.000 A 
ENDBRANCH   3  14
BRANCH   5  20
ATOM     20  C   UNL     1       3.307   4.168  18.456  0.00  0.00    +0.000 A 
ATOM     21  C   UNL     1       2.508   3.337  17.659  0.00  0.00    +0.000 A 
ATOM     22  C   UNL     1       2.570   1.946  17.783  0.00  0.00    +0.000 A 
ATOM     23  C   UNL     1       3.402   1.372  18.740  0.00  0.00    +0.000 A 
ATOM     24  C   UNL     1       4.162   2.187  19.577  0.00  0.00    +0.000 A 
ATOM     25  C   UNL     1       4.115   3.578  19.435  0.00  0.00    +0.000 A 
ENDBRANCH   5  20
TORSDOF 3
ENDMDL
MODEL 2
REMARK VINA RESULT:      -8.3      0.139      1.017
REMARK  Name = 
REMARK  3 active torsions:
REMARK  status: ('A' for Active; 'I' for Inactive)
REMARK    1  A    between atoms: C_5  and  C_6
REMARK    2  A    between atoms: N_8  and  C_9
REMARK    3  A    between atoms: C_16  and  C_17
REMARK                            x       y       z     vdW  Elec       q    Type
REMARK                         _______ _______ _______ _____ _____    ______ ____
ROOT
ATOM      1  C   UNL     1       4.153   6.384  17.374  0.00  0.00    +0.000 A 
ATOM      2  C   UNL     1       3.669   7.665  17.498  0.00  0.00    +0.000 A 
ATOM      3  N   UNL     1       2.666   7.620  18.435  0.00  0.00    +0.000 N 
ATOM      4  N   UNL     1       2.479   6.357  18.899  0.00  0.00    +0.000 NA
ATOM      5  C   UNL     1       3.356   5.587  18.232  0.00  0.00    +0.000 A 
ENDROOT
BRANCH   1  10
ATOM      6  N   UNL     1       6.690   4.318  13.922  0.00  0.00    +0.000 N 
ATOM      7  C   UNL     1       6.470   5.108  14.975  0.00  0.00    +0.000 A 
ATOM      8  N   UNL     1       7.274   5.917  15.622  0.00  0.00    +0.000 NA
ATOM      9  N   UNL     1       6.520   6.476  16.639  0.00  0.00    +0.000 NA
ATOM     10  C   UNL     1       5.294   6.001  16.507  0.00  0.00    +0.000 A 
ATOM     11  O   UNL     1       5.205   5.114  15.464  0.00  0.00    +0.000 OA
ATOM     12  H   UNL     1       7.506   4.512  13.354  0.00  0.00    +0.000 HD
ATOM     13  H   UNL     1       5.888   3.958  13.421  0.00  0.00    +0.000 HD
ENDBRANCH   1  10
BRANCH   3  14
ATOM     14  C   UNL     1       1.876   8.706  18.914  0.00  0.00    +0.000 A 
ATOM     15  C   UNL     1       1.312   8.681  20.197  0.00  0.00    +0.000 A 
ATOM     16  C   UNL     1       0.551   9.764  20.650  0.00  0.00    +0.000 A 
ATOM     17  C   UNL     1       0.348  10.871  19.830  0.00  0.00    +0.000 A 
ATOM     18  C   UNL     1       0.903  10.902  18.552  0.00  0.00    +0.000 A 
ATOM     19  C   UNL     1       1.666   9.823  18.093  0.00  0.00    +0.000 A 
ENDBRANCH   3  14
BRANCH   5  20
ATOM     20  C   UNL     1       3.371   4.132  18.432  0.00  0.00    +0.000 A 
ATOM     21  C   UNL     1       2.618   3.280  17.611  0.00  0.00    +0.000 A 
ATOM     22  C   UNL     1       2.684   1.892  17.763  0.00  0.00    +0.000 A 
ATOM     23  C   UNL     1       3.473   1.342  18.769  0.00  0.00    +0.000 A 
ATOM     24  C   UNL     1       4.185   2.178  19.628  0.00  0.00    +0.000 A 
ATOM     25  C   UNL     1       4.134   3.565  19.460  0.00  0.00    +0.000 A 
ENDBRANCH   5  20
TORSDOF 3
ENDMDL
MODEL 3
REMARK VINA RESULT:      -8.2      0.352      1.064
REMARK  Name = 
REMARK  3 active torsions:
REMARK  status: ('A' for Active; 'I' for Inactive)
REMARK    1  A    between atoms: C_5  and  C_6
REMARK    2  A    between atoms: N_8  and  C_9
REMARK    3  A    between atoms: C_16  and  C_17
REMARK                            x       y       z     vdW  Elec       q    Type
REMARK                         _______ _______ _______ _____ _____    ______ ____
ROOT
ATOM      1  C   UNL     1       4.079   6.598  17.592  0.00  0.00    +0.000 A 
ATOM      2  C   UNL     1       3.516   7.844  17.739  0.00  0.00    +0.000 A 
ATOM      3  N   UNL     1       2.428   7.692  18.562  0.00  0.00    +0.000 N 
ATOM      4  N   UNL     1       2.263   6.394  18.931  0.00  0.00    +0.000 NA
ATOM      5  C   UNL     1       3.244   5.711  18.315  0.00  0.00    +0.000 A 
ENDROOT
BRANCH   1  10
ATOM      6  N   UNL     1       7.028   5.043  14.200  0.00  0.00    +0.000 N 
ATOM      7  C   UNL     1       6.679   5.658  15.332  0.00  0.00    +0.000 A 
ATOM      8  N   UNL     1       7.398   6.324  16.202  0.00  0.00    +0.000 NA
ATOM      9  N   UNL     1       6.523   6.734  17.192  0.00  0.00    +0.000 NA
ATOM     10  C   UNL     1       5.321   6.326  16.827  0.00  0.00    +0.000 A 
ATOM     11  O   UNL     1       5.361   5.623  15.649  0.00  0.00    +0.000 OA
ATOM     12  H   UNL     1       7.914   5.301  13.782  0.00  0.00    +0.000 HD
ATOM     13  H   UNL     1       6.295   4.794  13.548  0.00  0.00    +0.000 HD
ENDBRANCH   1  10
BRANCH   3  14
ATOM     14  C   UNL     1       1.536   8.706  19.019  0.00  0.00    +0.000 A 
ATOM     15  C   UNL     1       0.990   9.644  18.131  0.00  0.00    +0.000 A 
ATOM     16  C   UNL     1       0.107  10.622  18.601  0.00  0.00    +0.000 A 
ATOM     17  C   UNL     1      -0.234  10.672  19.950  0.00  0.00    +0.000 A 
ATOM     18  C   UNL     1       0.308   9.745  20.839  0.00  0.00    +0.000 A 
ATOM     19  C   UNL     1       1.191   8.763  20.377  0.00  0.00    +0.000 A 
ENDBRANCH   3  14
BRANCH   5  20
ATOM     20  C   UNL     1       3.318   4.249  18.431  0.00  0.00    +0.000 A 
ATOM     21  C   UNL     1       4.138   3.639  19.391  0.00  0.00    +0.000 A 
ATOM     22  C   UNL     1       4.158   2.249  19.540  0.00  0.00    +0.000 A 
ATOM     23  C   UNL     1       3.389   1.450  18.699  0.00  0.00    +0.000 A 
ATOM     24  C   UNL     1       2.610   2.039  17.704  0.00  0.00    +0.000 A 
ATOM     25  C   UNL     1       2.575   3.431  17.571  0.00  0.00    +0.000 A 
ENDBRANCH   5  20
TORSDOF 3
ENDMDL
MODEL 4
REMARK VINA RESULT:      -8.2      0.496      1.494
REMARK  Name = 
REMARK  3 active torsions:
REMARK  status: ('A' for Active; 'I' for Inactive)
REMARK    1  A    between atoms: C_5  and  C_6
REMARK    2  A    between atoms: N_8  and  C_9
REMARK    3  A    between atoms: C_16  and  C_17
REMARK                            x       y       z     vdW  Elec       q    Type
REMARK                         _______ _______ _______ _____ _____    ______ ____
ROOT
ATOM      1  C   UNL     1       4.100   6.677  17.688  0.00  0.00    +0.000 A 
ATOM      2  C   UNL     1       3.505   7.908  17.832  0.00  0.00    +0.000 A 
ATOM      3  N   UNL     1       2.380   7.717  18.596  0.00  0.00    +0.000 N 
ATOM      4  N   UNL     1       2.224   6.409  18.929  0.00  0.00    +0.000 NA
ATOM      5  C   UNL     1       3.248   5.758  18.350  0.00  0.00    +0.000 A 
ENDROOT
BRANCH   1  10
ATOM      6  N   UNL     1       7.284   5.053  14.551  0.00  0.00    +0.000 N 
ATOM      7  C   UNL     1       6.844   5.753  15.598  0.00  0.00    +0.000 A 
ATOM      8  N   UNL     1       7.470   6.582  16.398  0.00  0.00    +0.000 NA
ATOM      9  N   UNL     1       6.530   7.011  17.319  0.00  0.00    +0.000 NA
ATOM     10  C   UNL     1       5.384   6.446  16.982  0.00  0.00    +0.000 A 
ATOM     11  O   UNL     1       5.527   5.623  15.893  0.00  0.00    +0.000 OA
ATOM     12  H   UNL     1       8.152   5.349  14.121  0.00  0.00    +0.000 HD
ATOM     13  H   UNL     1       6.598   4.660  13.918  0.00  0.00    +0.000 HD
ENDBRANCH   1  10
BRANCH   3  14
ATOM     14  C   UNL     1       1.446   8.703  19.028  0.00  0.00    +0.000 A 
ATOM     15  C   UNL     1       1.080   8.814  20.377  0.00  0.00    +0.000 A 
ATOM     16  C   UNL     1       0.171   9.799  20.778  0.00  0.00    +0.000 A 
ATOM     17  C   UNL     1      -0.377  10.673  19.842  0.00  0.00    +0.000 A 
ATOM     18  C   UNL     1      -0.021  10.566  18.499  0.00  0.00    +0.000 A 
ATOM     19  C   UNL     1       0.888   9.585  18.090  0.00  0.00    +0.000 A 
ENDBRANCH   3  14
BRANCH   5  20
ATOM     20  C   UNL     1       3.347   4.296  18.439  0.00  0.00    +0.000 A 
ATOM     21  C   UNL     1       4.174   3.682  19.389  0.00  0.00    +0.000 A 
ATOM     22  C   UNL     1       4.217   2.290  19.513  0.00  0.00    +0.000 A 
ATOM     23  C   UNL     1       3.463   1.494  18.655  0.00  0.00    +0.000 A 
ATOM     24  C   UNL     1       2.677   2.089  17.670  0.00  0.00    +0.000 A 
ATOM     25  C   UNL     1       2.619   3.482  17.562  0.00  0.00    +0.000 A 
ENDBRANCH   5  20
TORSDOF 3
ENDMDL
MODEL 5
REMARK VINA RESULT:      -8.1      3.288      5.143
REMARK  Name = 
REMARK  3 active torsions:
REMARK  status: ('A' for Active; 'I' for Inactive)
REMARK    1  A    between atoms: C_5  and  C_6
REMARK    2  A    between atoms: N_8  and  C_9
REMARK    3  A    between atoms: C_16  and  C_17
REMARK                            x       y       z     vdW  Elec       q    Type
REMARK                         _______ _______ _______ _____ _____    ______ ____
ROOT
ATOM      1  C   UNL     1       5.401   4.781  16.411  0.00  0.00    +0.000 A 
ATOM      2  C   UNL     1       4.305   3.993  16.668  0.00  0.00    +0.000 A 
ATOM      3  N   UNL     1       3.814   4.385  17.889  0.00  0.00    +0.000 N 
ATOM      4  N   UNL     1       4.565   5.379  18.430  0.00  0.00    +0.000 NA
ATOM      5  C   UNL     1       5.559   5.605  17.553  0.00  0.00    +0.000 A 
ENDROOT
BRANCH   1  10
ATOM      6  N   UNL     1       6.777   3.671  11.996  0.00  0.00    +0.000 N 
ATOM      7  C   UNL     1       6.848   4.269  13.187  0.00  0.00    +0.000 A 
ATOM      8  N   UNL     1       7.717   5.127  13.664  0.00  0.00    +0.000 NA
ATOM      9  N   UNL     1       7.312   5.405  14.958  0.00  0.00    +0.000 NA
ATOM     10  C   UNL     1       6.195   4.729  15.158  0.00  0.00    +0.000 A 
ATOM     11  O   UNL     1       5.854   3.977  14.062  0.00  0.00    +0.000 OA
ATOM     12  H   UNL     1       7.302   4.083  11.233  0.00  0.00    +0.000 HD
ATOM     13  H   UNL     1       5.903   3.232  11.734  0.00  0.00    +0.000 HD
ENDBRANCH   1  10
BRANCH   3  14
ATOM     14  C   UNL     1       2.673   3.870  18.572  0.00  0.00    +0.000 A 
ATOM     15  C   UNL     1       1.975   2.758  18.080  0.00  0.00    +0.000 A 
ATOM     16  C   UNL     1       0.866   2.263  18.774  0.00  0.00    +0.000 A 
ATOM     17  C   UNL     1       0.448   2.871  19.956  0.00  0.00    +0.000 A 
ATOM     18  C   UNL     1       1.134   3.978  20.448  0.00  0.00    +0.000 A 
ATOM     19  C   UNL     1       2.245   4.479  19.761  0.00  0.00    +0.000 A 
ENDBRANCH   3  14
BRANCH   5  20
ATOM     20  C   UNL     1       6.617   6.576  17.862  0.00  0.00    +0.000 A 
ATOM     21  C   UNL     1       6.655   7.829  17.236  0.00  0.00    +0.000 A 
ATOM     22  C   UNL     1       7.626   8.775  17.578  0.00  0.00    +0.000 A 
ATOM     23  C   UNL     1       8.599   8.459  18.521  0.00  0.00    +0.000 A 
ATOM     24  C   UNL     1       8.607   7.197  19.113  0.00  0.00    +0.000 A 
ATOM     25  C   UNL     1       7.622   6.261  18.785  0.00  0.00    +0.000 A 
ENDBRANCH   5  20
TORSDOF 3
ENDMDL
MODEL 6
REMARK VINA RESULT:      -8.1      2.372      4.044
REMARK  Name = 
REMARK  3 active torsions:
REMARK  status: ('A' for Active; 'I' for Inactive)
REMARK    1  A    between atoms: C_5  and  C_6
REMARK    2  A    between atoms: N_8  and  C_9
REMARK    3  A    between atoms: C_16  and  C_17
REMARK                            x       y       z     vdW  Elec       q    Type
REMARK                         _______ _______ _______ _____ _____    ______ ____
ROOT
ATOM      1  C   UNL     1       3.132   5.614  19.363  0.00  0.00    +0.000 A 
ATOM      2  C   UNL     1       2.221   6.487  19.910  0.00  0.00    +0.000 A 
ATOM      3  N   UNL     1       2.230   7.612  19.122  0.00  0.00    +0.000 N 
ATOM      4  N   UNL     1       3.124   7.498  18.106  0.00  0.00    +0.000 NA
ATOM      5  C   UNL     1       3.708   6.297  18.264  0.00  0.00    +0.000 A 
ENDROOT
BRANCH   1  10
ATOM      6  N   UNL     1       5.229   1.415  20.132  0.00  0.00    +0.000 N 
ATOM      7  C   UNL     1       4.290   2.355  20.254  0.00  0.00    +0.000 A 
ATOM      8  N   UNL     1       3.195   2.385  20.974  0.00  0.00    +0.000 NA
ATOM      9  N   UNL     1       2.590   3.599  20.705  0.00  0.00    +0.000 NA
ATOM     10  C   UNL     1       3.388   4.244  19.873  0.00  0.00    +0.000 A 
ATOM     11  O   UNL     1       4.488   3.493  19.541  0.00  0.00    +0.000 OA
ATOM     12  H   UNL     1       5.280   0.708  20.856  0.00  0.00    +0.000 HD
ATOM     13  H   UNL     1       6.115   1.677  19.717  0.00  0.00    +0.000 HD
ENDBRANCH   1  10
BRANCH   3  14
ATOM     14  C   UNL     1       1.439   8.787  19.279  0.00  0.00    +0.000 A 
ATOM     15  C   UNL     1       1.126   9.602  18.182  0.00  0.00    +0.000 A 
ATOM     16  C   UNL     1       0.337  10.744  18.359  0.00  0.00    +0.000 A 
ATOM     17  C   UNL     1      -0.141  11.079  19.624  0.00  0.00    +0.000 A 
ATOM     18  C   UNL     1       0.170  10.276  20.720  0.00  0.00    +0.000 A 
ATOM     19  C   UNL     1       0.957   9.132  20.551  0.00  0.00    +0.000 A 
ENDBRANCH   3  14
BRANCH   5  20
ATOM     20  C   UNL     1       4.797   5.876  17.373  0.00  0.00    +0.000 A 
ATOM     21  C   UNL     1       6.080   6.430  17.485  0.00  0.00    +0.000 A 
ATOM     22  C   UNL     1       7.130   5.982  16.678  0.00  0.00    +0.000 A 
ATOM     23  C   UNL     1       6.896   5.003  15.717  0.00  0.00    +0.000 A 
ATOM     24  C   UNL     1       5.613   4.481  15.556  0.00  0.00    +0.000 A 
ATOM     25  C   UNL     1       4.570   4.915  16.380  0.00  0.00    +0.000 A 
ENDBRANCH   5  20
TORSDOF 3
ENDMDL
MODEL 7
REMARK VINA RESULT:      -8.1      2.369      3.953
REMARK  Name = 
REMARK  3 active torsions:
REMARK  status: ('A' for Active; 'I' for Inactive)
REMARK    1  A    between atoms: C_5  and  C_6
REMARK    2  A    between atoms: N_8  and  C_9
REMARK    3  A    between atoms: C_16  and  C_17
REMARK                            x       y       z     vdW  Elec       q    Type
REMARK                         _______ _______ _______ _____ _____    ______ ____
ROOT
ATOM      1  C   UNL     1       3.145   5.614  19.375  0.00  0.00    +0.000 A 
ATOM      2  C   UNL     1       2.243   6.496  19.923  0.00  0.00    +0.000 A 
ATOM      3  N   UNL     1       2.257   7.618  19.132  0.00  0.00    +0.000 N 
ATOM      4  N   UNL     1       3.146   7.494  18.112  0.00  0.00    +0.000 NA
ATOM      5  C   UNL     1       3.721   6.289  18.271  0.00  0.00    +0.000 A 
ENDROOT
BRANCH   1  10
ATOM      6  N   UNL     1       5.213   1.402  20.149  0.00  0.00    +0.000 N 
ATOM      7  C   UNL     1       4.281   2.350  20.271  0.00  0.00    +0.000 A 
ATOM      8  N   UNL     1       3.190   2.390  20.996  0.00  0.00    +0.000 NA
ATOM      9  N   UNL     1       2.593   3.608  20.726  0.00  0.00    +0.000 NA
ATOM     10  C   UNL     1       3.393   4.244  19.888  0.00  0.00    +0.000 A 
ATOM     11  O   UNL     1       4.485   3.483  19.554  0.00  0.00    +0.000 OA
ATOM     12  H   UNL     1       5.261   0.697  20.875  0.00  0.00    +0.000 HD
ATOM     13  H   UNL     1       6.098   1.655  19.729  0.00  0.00    +0.000 HD
ENDBRANCH   1  10
BRANCH   3  14
ATOM     14  C   UNL     1       1.476   8.800  19.288  0.00  0.00    +0.000 A 
ATOM     15  C   UNL     1       1.245   9.665  18.209  0.00  0.00    +0.000 A 
ATOM     16  C   UNL     1       0.464  10.813  18.385  0.00  0.00    +0.000 A 
ATOM     17  C   UNL     1      -0.086  11.104  19.630  0.00  0.00    +0.000 A 
ATOM     18  C   UNL     1       0.143  10.252  20.709  0.00  0.00    +0.000 A 
ATOM     19  C   UNL     1       0.921   9.102  20.541  0.00  0.00    +0.000 A 
ENDBRANCH   3  14
BRANCH   5  20
ATOM     20  C   UNL     1       4.803   5.857  17.376  0.00  0.00    +0.000 A 
ATOM     21  C   UNL     1       4.573   4.915  16.364  0.00  0.00    +0.000 A 
ATOM     22  C   UNL     1       5.589   4.553  15.475  0.00  0.00    +0.000 A 
ATOM     23  C   UNL     1       6.861   5.099  15.617  0.00  0.00    +0.000 A 
ATOM     24  C   UNL     1       7.120   5.996  16.652  0.00  0.00    +0.000 A 
ATOM     25  C   UNL     1       6.096   6.373  17.527  0.00  0.00    +0.000 A 
ENDBRANCH   5  20
TORSDOF 3
ENDMDL
MODEL 8
REMARK VINA RESULT:      -8.1      2.374      4.161
REMARK  Name = 
REMARK  3 active torsions:
REMARK  status: ('A' for Active; 'I' for Inactive)
REMARK    1  A    between atoms: C_5  and  C_6
REMARK    2  A    between atoms: N_8  and  C_9
REMARK    3  A    between atoms: C_16  and  C_17
REMARK                            x       y       z     vdW  Elec       q    Type
REMARK                         _______ _______ _______ _____ _____    ______ ____
ROOT
ATOM      1  C   UNL     1       3.136   5.638  19.369  0.00  0.00    +0.000 A 
ATOM      2  C   UNL     1       2.237   6.517  19.923  0.00  0.00    +0.000 A 
ATOM      3  N   UNL     1       2.250   7.644  19.138  0.00  0.00    +0.000 N 
ATOM      4  N   UNL     1       3.136   7.524  18.115  0.00  0.00    +0.000 NA
ATOM      5  C   UNL     1       3.710   6.318  18.266  0.00  0.00    +0.000 A 
ENDROOT
BRANCH   1  10
ATOM      6  N   UNL     1       5.219   1.432  20.141  0.00  0.00    +0.000 N 
ATOM      7  C   UNL     1       4.279   2.373  20.256  0.00  0.00    +0.000 A 
ATOM      8  N   UNL     1       3.175   2.400  20.963  0.00  0.00    +0.000 NA
ATOM      9  N   UNL     1       2.575   3.617  20.693  0.00  0.00    +0.000 NA
ATOM     10  C   UNL     1       3.385   4.265  19.874  0.00  0.00    +0.000 A 
ATOM     11  O   UNL     1       4.487   3.514  19.553  0.00  0.00    +0.000 OA
ATOM     12  H   UNL     1       5.260   0.721  20.862  0.00  0.00    +0.000 HD
ATOM     13  H   UNL     1       6.110   1.695  19.739  0.00  0.00    +0.000 HD
ENDBRANCH   1  10
BRANCH   3  14
ATOM     14  C   UNL     1       1.470   8.825  19.303  0.00  0.00    +0.000 A 
ATOM     15  C   UNL     1       0.892   9.146  20.539  0.00  0.00    +0.000 A 
ATOM     16  C   UNL     1       0.142  10.319  20.680  0.00  0.00    +0.000 A 
ATOM     17  C   UNL     1      -0.038  11.172  19.594  0.00  0.00    +0.000 A 
ATOM     18  C   UNL     1       0.529  10.858  18.361  0.00  0.00    +0.000 A 
ATOM     19  C   UNL     1       1.282   9.688  18.213  0.00  0.00    +0.000 A 
ENDBRANCH   3  14
BRANCH   5  20
ATOM     20  C   UNL     1       4.789   5.890  17.367  0.00  0.00    +0.000 A 
ATOM     21  C   UNL     1       6.073   6.443  17.461  0.00  0.00    +0.000 A 
ATOM     22  C   UNL     1       7.114   5.988  16.646  0.00  0.00    +0.000 A 
ATOM     23  C   UNL     1       6.869   5.002  15.695  0.00  0.00    +0.000 A 
ATOM     24  C   UNL     1       5.584   4.480  15.552  0.00  0.00    +0.000 A 
ATOM     25  C   UNL     1       4.550   4.921  16.384  0.00  0.00    +0.000 A 
ENDBRANCH   5  20
TORSDOF 3
ENDMDL
MODEL 9
REMARK VINA RESULT:      -8.0      2.370      4.074
REMARK  Name = 
REMARK  3 active torsions:
REMARK  status: ('A' for Active; 'I' for Inactive)
REMARK    1  A    between atoms: C_5  and  C_6
REMARK    2  A    between atoms: N_8  and  C_9
REMARK    3  A    between atoms: C_16  and  C_17
REMARK                            x       y       z     vdW  Elec       q    Type
REMARK                         _______ _______ _______ _____ _____    ______ ____
ROOT
ATOM      1  C   UNL     1       3.142   5.633  19.373  0.00  0.00    +0.000 A 
ATOM      2  C   UNL     1       2.246   6.517  19.924  0.00  0.00    +0.000 A 
ATOM      3  N   UNL     1       2.264   7.641  19.135  0.00  0.00    +0.000 N 
ATOM      4  N   UNL     1       3.150   7.514  18.113  0.00  0.00    +0.000 NA
ATOM      5  C   UNL     1       3.719   6.307  18.268  0.00  0.00    +0.000 A 
ENDROOT
BRANCH   1  10
ATOM      6  N   UNL     1       5.201   1.416  20.149  0.00  0.00    +0.000 N 
ATOM      7  C   UNL     1       4.269   2.364  20.267  0.00  0.00    +0.000 A 
ATOM      8  N   UNL     1       3.172   2.402  20.983  0.00  0.00    +0.000 NA
ATOM      9  N   UNL     1       2.578   3.622  20.712  0.00  0.00    +0.000 NA
ATOM     10  C   UNL     1       3.385   4.260  19.883  0.00  0.00    +0.000 A 
ATOM     11  O   UNL     1       4.479   3.500  19.556  0.00  0.00    +0.000 OA
ATOM     12  H   UNL     1       5.243   0.708  20.873  0.00  0.00    +0.000 HD
ATOM     13  H   UNL     1       6.090   1.670  19.738  0.00  0.00    +0.000 HD
ENDBRANCH   1  10
BRANCH   3  14
ATOM     14  C   UNL     1       1.488   8.826  19.295  0.00  0.00    +0.000 A 
ATOM     15  C   UNL     1       0.878   9.133  20.519  0.00  0.00    +0.000 A 
ATOM     16  C   UNL     1       0.132  10.310  20.656  0.00  0.00    +0.000 A 
ATOM     17  C   UNL     1      -0.010  11.180  19.578  0.00  0.00    +0.000 A 
ATOM     18  C   UNL     1       0.590  10.880  18.357  0.00  0.00    +0.000 A 
ATOM     19  C   UNL     1       1.338   9.707  18.213  0.00  0.00    +0.000 A 
ENDBRANCH   3  14
BRANCH   5  20
ATOM     20  C   UNL     1       4.797   5.871  17.371  0.00  0.00    +0.000 A 
ATOM     21  C   UNL     1       4.564   4.923  16.365  0.00  0.00    +0.000 A 
ATOM     22  C   UNL     1       5.576   4.558  15.473  0.00  0.00    +0.000 A 
ATOM     23  C   UNL     1       6.848   5.106  15.606  0.00  0.00    +0.000 A 
ATOM     24  C   UNL     1       7.110   6.009  16.634  0.00  0.00    +0.000 A 
ATOM     25  C   UNL     1       6.091   6.389  17.512  0.00  0.00    +0.000 A 
ENDBRANCH   5  20
TORSDOF 3
ENDMDL
