MODEL 1
REMARK VINA RESULT:      -7.7      0.000      0.000
REMARK  Name = 
REMARK  8 active torsions:
REMARK  status: ('A' for Active; 'I' for Inactive)
REMARK    1  A    between atoms: C_1  and  C_2
REMARK    2  A    between atoms: C_2  and  O_3
REMARK    3  A    between atoms: O_3  and  C_4
REMARK    4  A    between atoms: C_4  and  C_6
REMARK    5  A    between atoms: C_6  and  S_7
REMARK    6  A    between atoms: S_7  and  C_8
REMARK    7  A    between atoms: N_18  and  N_19
REMARK    8  A    between atoms: C_20  and  C_22
REMARK                            x       y       z     vdW  Elec       q    Type
REMARK                         _______ _______ _______ _____ _____    ______ ____
ROOT
ATOM      1  C   UNL     1       2.290   6.285  20.118  0.00  0.00    +0.000 A 
ATOM      2  N   UNL     1       1.518   6.962  20.909  0.00  0.00    +0.000 NA
ATOM      3  C   UNL     1       1.099   8.230  20.517  0.00  0.00    +0.000 A 
ATOM      4  C   UNL     1       0.183   8.903  21.330  0.00  0.00    +0.000 A 
ATOM      5  C   UNL     1      -0.374  10.113  20.922  0.00  0.00    +0.000 A 
ATOM      6  C   UNL     1      -0.005  10.670  19.697  0.00  0.00    +0.000 A 
ATOM      7  C   UNL     1       0.925  10.020  18.884  0.00  0.00    +0.000 A 
ATOM      8  C   UNL     1       1.479   8.801  19.303  0.00  0.00    +0.000 A 
ATOM      9  C   UNL     1       2.408   8.026  18.442  0.00  0.00    +0.000 A 
ATOM     10  O   UNL     1       2.715   8.457  17.327  0.00  0.00    +0.000 OA
ATOM     11  N   UNL     1       2.819   6.787  18.931  0.00  0.00    +0.000 N 
ENDROOT
BRANCH  11  12
ATOM     12  N   UNL     1       3.482   5.971  17.957  0.00  0.00    +0.000 N 
ATOM     13  C   UNL     1       4.829   5.677  18.051  0.00  0.00    +0.000 C 
ATOM     14  O   UNL     1       5.526   5.848  19.044  0.00  0.00    +0.000 OA
ATOM     15  H   UNL     1       3.027   5.989  17.048  0.00  0.00    +0.000 HD
BRANCH  13  16
ATOM     16  C   UNL     1       5.465   5.108  16.830  0.00  0.00    +0.000 A 
ATOM     17  C   UNL     1       4.698   4.533  15.809  0.00  0.00    +0.000 A 
ATOM     18  C   UNL     1       5.310   4.157  14.608  0.00  0.00    +0.000 A 
ATOM     19  C   UNL     1       6.683   4.342  14.426  0.00  0.00    +0.000 A 
ATOM     20  C   UNL     1       7.453   4.889  15.451  0.00  0.00    +0.000 A 
ATOM     21  C   UNL     1       6.846   5.275  16.650  0.00  0.00    +0.000 A 
ENDBRANCH  13  16
ENDBRANCH  11  12
BRANCH   1  22
ATOM     22  S   UNL     1       2.550   4.614  20.600  0.00  0.00    +0.000 S 
BRANCH  22  23
ATOM     23  C   UNL     1       0.893   3.992  20.174  0.00  0.00    +0.000 C 
BRANCH  23  24
ATOM     24  C   UNL     1       0.955   3.051  18.988  0.00  0.00    +0.000 C 
ATOM     25  O   UNL     1       0.192   2.120  18.758  0.00  0.00    +0.000 OA
BRANCH  24  26
ATOM     26  O   UNL     1       2.057   3.339  18.237  0.00  0.00    +0.000 OA
BRANCH  26  28
ATOM     27  C   UNL     1       3.604   1.542  18.516  0.00  0.00    +0.000 C 
ATOM     28  C   UNL     1       2.626   2.209  17.564  0.00  0.00    +0.000 C 
ENDBRANCH  26  28
ENDBRANCH  24  26
ENDBRANCH  23  24
ENDBRANCH  22  23
ENDBRANCH   1  22
TORSDOF 7
ENDMDL
MODEL 2
REMARK VINA RESULT:      -7.7      1.600      2.510
REMARK  Name = 
REMARK  8 active torsions:
REMARK  status: ('A' for Active; 'I' for Inactive)
REMARK    1  A    between atoms: C_1  and  C_2
REMARK    2  A    between atoms: C_2  and  O_3
REMARK    3  A    between atoms: O_3  and  C_4
REMARK    4  A    between atoms: C_4  and  C_6
REMARK    5  A    between atoms: C_6  and  S_7
REMARK    6  A    between atoms: S_7  and  C_8
REMARK    7  A    between atoms: N_18  and  N_19
REMARK    8  A    between atoms: C_20  and  C_22
REMARK                            x       y       z     vdW  Elec       q    Type
REMARK                         _______ _______ _______ _____ _____    ______ ____
ROOT
ATOM      1  C   UNL     1       4.022   5.207  18.721  0.00  0.00    +0.000 A 
ATOM      2  N   UNL     1       3.304   5.769  19.643  0.00  0.00    +0.000 NA
ATOM      3  C   UNL     1       2.741   7.017  19.390  0.00  0.00    +0.000 A 
ATOM      4  C   UNL     1       1.885   7.561  20.351  0.00  0.00    +0.000 A 
ATOM      5  C   UNL     1       1.188   8.739  20.095  0.00  0.00    +0.000 A 
ATOM      6  C   UNL     1       1.355   9.395  18.875  0.00  0.00    +0.000 A 
ATOM      7  C   UNL     1       2.224   8.875  17.915  0.00  0.00    +0.000 A 
ATOM      8  C   UNL     1       2.919   7.686  18.181  0.00  0.00    +0.000 A 
ATOM      9  C   UNL     1       3.791   7.044  17.163  0.00  0.00    +0.000 A 
ATOM     10  O   UNL     1       3.920   7.563  16.051  0.00  0.00    +0.000 OA
ATOM     11  N   UNL     1       4.356   5.820  17.516  0.00  0.00    +0.000 N 
ENDROOT
BRANCH  11  12
ATOM     12  N   UNL     1       4.953   5.121  16.415  0.00  0.00    +0.000 N 
ATOM     13  C   UNL     1       6.198   5.466  15.925  0.00  0.00    +0.000 C 
ATOM     14  O   UNL     1       7.008   6.193  16.489  0.00  0.00    +0.000 OA
ATOM     15  H   UNL     1       4.269   4.683  15.805  0.00  0.00    +0.000 HD
BRANCH  13  16
ATOM     16  C   UNL     1       6.563   4.896  14.598  0.00  0.00    +0.000 A 
ATOM     17  C   UNL     1       5.815   3.867  14.015  0.00  0.00    +0.000 A 
ATOM     18  C   UNL     1       6.086   3.469  12.702  0.00  0.00    +0.000 A 
ATOM     19  C   UNL     1       7.105   4.085  11.972  0.00  0.00    +0.000 A 
ATOM     20  C   UNL     1       7.870   5.092  12.559  0.00  0.00    +0.000 A 
ATOM     21  C   UNL     1       7.598   5.500  13.868  0.00  0.00    +0.000 A 
ENDBRANCH  13  16
ENDBRANCH  11  12
BRANCH   1  22
ATOM     22  S   UNL     1       4.471   3.540  19.055  0.00  0.00    +0.000 S 
BRANCH  22  23
ATOM     23  C   UNL     1       3.391   2.759  17.815  0.00  0.00    +0.000 C 
BRANCH  23  24
ATOM     24  C   UNL     1       1.931   3.017  18.126  0.00  0.00    +0.000 C 
ATOM     25  O   UNL     1       1.183   3.779  17.523  0.00  0.00    +0.000 OA
BRANCH  24  26
ATOM     26  O   UNL     1       1.578   2.330  19.250  0.00  0.00    +0.000 OA
BRANCH  26  28
ATOM     27  C   UNL     1       1.591   2.736  21.603  0.00  0.00    +0.000 C 
ATOM     28  C   UNL     1       0.979   3.138  20.273  0.00  0.00    +0.000 C 
ENDBRANCH  26  28
ENDBRANCH  24  26
ENDBRANCH  23  24
ENDBRANCH  22  23
ENDBRANCH   1  22
TORSDOF 7
ENDMDL
MODEL 3
REMARK VINA RESULT:      -7.6      3.602      5.806
REMARK  Name = 
REMARK  8 active torsions:
REMARK  status: ('A' for Active; 'I' for Inactive)
REMARK    1  A    between atoms: C_1  and  C_2
REMARK    2  A    between atoms: C_2  and  O_3
REMARK    3  A    between atoms: O_3  and  C_4
REMARK    4  A    between atoms: C_4  and  C_6
REMARK    5  A    between atoms: C_6  and  S_7
REMARK    6  A    between atoms: S_7  and  C_8
REMARK    7  A    between atoms: N_18  and  N_19
REMARK    8  A    between atoms: C_20  and  C_22
REMARK                            x       y       z     vdW  Elec       q    Type
REMARK                         _______ _______ _______ _____ _____    ______ ____
ROOT
ATOM      1  C   UNL     1       4.939   4.614  18.676  0.00  0.00    +0.000 A 
ATOM      2  N   UNL     1       4.297   4.598  19.801  0.00  0.00    +0.000 NA
ATOM      3  C   UNL     1       3.014   4.057  19.836  0.00  0.00    +0.000 A 
ATOM      4  C   UNL     1       2.377   3.951  21.075  0.00  0.00    +0.000 A 
ATOM      5  C   UNL     1       1.152   3.296  21.190  0.00  0.00    +0.000 A 
ATOM      6  C   UNL     1       0.546   2.753  20.056  0.00  0.00    +0.000 A 
ATOM      7  C   UNL     1       1.160   2.871  18.809  0.00  0.00    +0.000 A 
ATOM      8  C   UNL     1       2.394   3.530  18.704  0.00  0.00    +0.000 A 
ATOM      9  C   UNL     1       3.132   3.611  17.417  0.00  0.00    +0.000 A 
ATOM     10  O   UNL     1       2.655   3.094  16.403  0.00  0.00    +0.000 OA
ATOM     11  N   UNL     1       4.388   4.212  17.461  0.00  0.00    +0.000 N 
ENDROOT
BRANCH  11  12
ATOM     12  N   UNL     1       5.163   4.020  16.270  0.00  0.00    +0.000 N 
ATOM     13  C   UNL     1       5.295   5.015  15.321  0.00  0.00    +0.000 C 
ATOM     14  O   UNL     1       5.003   6.194  15.481  0.00  0.00    +0.000 OA
ATOM     15  H   UNL     1       5.236   3.043  15.997  0.00  0.00    +0.000 HD
BRANCH  13  16
ATOM     16  C   UNL     1       5.839   4.595  13.998  0.00  0.00    +0.000 A 
ATOM     17  C   UNL     1       7.107   5.003  13.568  0.00  0.00    +0.000 A 
ATOM     18  C   UNL     1       7.652   4.460  12.399  0.00  0.00    +0.000 A 
ATOM     19  C   UNL     1       6.934   3.522  11.654  0.00  0.00    +0.000 A 
ATOM     20  C   UNL     1       5.659   3.135  12.065  0.00  0.00    +0.000 A 
ATOM     21  C   UNL     1       5.113   3.667  13.237  0.00  0.00    +0.000 A 
ENDBRANCH  13  16
ENDBRANCH  11  12
BRANCH   1  22
ATOM     22  S   UNL     1       6.627   5.088  18.802  0.00  0.00    +0.000 S 
BRANCH  22  23
ATOM     23  C   UNL     1       6.417   6.825  18.299  0.00  0.00    +0.000 C 
BRANCH  23  24
ATOM     24  C   UNL     1       7.654   7.340  17.592  0.00  0.00    +0.000 C 
ATOM     25  O   UNL     1       7.993   7.086  16.442  0.00  0.00    +0.000 OA
BRANCH  24  26
ATOM     26  O   UNL     1       8.402   8.076  18.464  0.00  0.00    +0.000 OA
BRANCH  26  28
ATOM     27  C   UNL     1       9.235  10.164  19.267  0.00  0.00    +0.000 C 
ATOM     28  C   UNL     1       8.463   9.475  18.156  0.00  0.00    +0.000 C 
ENDBRANCH  26  28
ENDBRANCH  24  26
ENDBRANCH  23  24
ENDBRANCH  22  23
ENDBRANCH   1  22
TORSDOF 7
ENDMDL
MODEL 4
REMARK VINA RESULT:      -7.4      3.537      5.699
REMARK  Name = 
REMARK  8 active torsions:
REMARK  status: ('A' for Active; 'I' for Inactive)
REMARK    1  A    between atoms: C_1  and  C_2
REMARK    2  A    between atoms: C_2  and  O_3
REMARK    3  A    between atoms: O_3  and  C_4
REMARK    4  A    between atoms: C_4  and  C_6
REMARK    5  A    between atoms: C_6  and  S_7
REMARK    6  A    between atoms: S_7  and  C_8
REMARK    7  A    between atoms: N_18  and  N_19
REMARK    8  A    between atoms: C_20  and  C_22
REMARK                            x       y       z     vdW  Elec       q    Type
REMARK                         _______ _______ _______ _____ _____    ______ ____
ROOT
ATOM      1  C   UNL     1       5.008   4.703  18.607  0.00  0.00    +0.000 A 
ATOM      2  N   UNL     1       4.355   4.771  19.724  0.00  0.00    +0.000 NA
ATOM      3  C   UNL     1       3.070   4.236  19.786  0.00  0.00    +0.000 A 
ATOM      4  C   UNL     1       2.420   4.223  21.022  0.00  0.00    +0.000 A 
ATOM      5  C   UNL     1       1.193   3.580  21.173  0.00  0.00    +0.000 A 
ATOM      6  C   UNL     1       0.597   2.956  20.076  0.00  0.00    +0.000 A 
ATOM      7  C   UNL     1       1.224   2.981  18.830  0.00  0.00    +0.000 A 
ATOM      8  C   UNL     1       2.461   3.629  18.690  0.00  0.00    +0.000 A 
ATOM      9  C   UNL     1       3.211   3.613  17.408  0.00  0.00    +0.000 A 
ATOM     10  O   UNL     1       2.743   3.024  16.430  0.00  0.00    +0.000 OA
ATOM     11  N   UNL     1       4.468   4.214  17.420  0.00  0.00    +0.000 N 
ENDROOT
BRANCH  11  12
ATOM     12  N   UNL     1       5.254   3.933  16.254  0.00  0.00    +0.000 N 
ATOM     13  C   UNL     1       5.347   4.829  15.206  0.00  0.00    +0.000 C 
ATOM     14  O   UNL     1       5.003   6.005  15.244  0.00  0.00    +0.000 OA
ATOM     15  H   UNL     1       5.371   2.937  16.084  0.00  0.00    +0.000 HD
BRANCH  13  16
ATOM     16  C   UNL     1       5.912   4.298  13.934  0.00  0.00    +0.000 A 
ATOM     17  C   UNL     1       5.204   3.382  13.147  0.00  0.00    +0.000 A 
ATOM     18  C   UNL     1       5.690   3.031  11.883  0.00  0.00    +0.000 A 
ATOM     19  C   UNL     1       6.882   3.579  11.406  0.00  0.00    +0.000 A 
ATOM     20  C   UNL     1       7.604   4.471  12.199  0.00  0.00    +0.000 A 
ATOM     21  C   UNL     1       7.119   4.833  13.459  0.00  0.00    +0.000 A 
ENDBRANCH  13  16
ENDBRANCH  11  12
BRANCH   1  22
ATOM     22  S   UNL     1       6.696   5.182  18.715  0.00  0.00    +0.000 S 
BRANCH  22  23
ATOM     23  C   UNL     1       6.469   6.931  18.266  0.00  0.00    +0.000 C 
BRANCH  23  24
ATOM     24  C   UNL     1       7.441   7.344  17.181  0.00  0.00    +0.000 C 
ATOM     25  O   UNL     1       7.953   6.609  16.344  0.00  0.00    +0.000 OA
BRANCH  24  26
ATOM     26  O   UNL     1       7.742   8.668  17.320  0.00  0.00    +0.000 OA
BRANCH  26  28
ATOM     27  C   UNL     1       8.988  10.421  18.354  0.00  0.00    +0.000 C 
ATOM     28  C   UNL     1       8.544   8.974  18.468  0.00  0.00    +0.000 C 
ENDBRANCH  26  28
ENDBRANCH  24  26
ENDBRANCH  23  24
ENDBRANCH  22  23
ENDBRANCH   1  22
TORSDOF 7
ENDMDL
MODEL 5
REMARK VINA RESULT:      -7.2      3.267      5.681
REMARK  Name = 
REMARK  8 active torsions:
REMARK  status: ('A' for Active; 'I' for Inactive)
REMARK    1  A    between atoms: C_1  and  C_2
REMARK    2  A    between atoms: C_2  and  O_3
REMARK    3  A    between atoms: O_3  and  C_4
REMARK    4  A    between atoms: C_4  and  C_6
REMARK    5  A    between atoms: C_6  and  S_7
REMARK    6  A    between atoms: S_7  and  C_8
REMARK    7  A    between atoms: N_18  and  N_19
REMARK    8  A    between atoms: C_20  and  C_22
REMARK                            x       y       z     vdW  Elec       q    Type
REMARK                         _______ _______ _______ _____ _____    ______ ____
ROOT
ATOM      1  C   UNL     1       3.860   5.560  17.825  0.00  0.00    +0.000 A 
ATOM      2  N   UNL     1       3.436   5.709  19.041  0.00  0.00    +0.000 NA
ATOM      3  C   UNL     1       2.827   4.632  19.678  0.00  0.00    +0.000 A 
ATOM      4  C   UNL     1       2.471   4.776  21.022  0.00  0.00    +0.000 A 
ATOM      5  C   UNL     1       1.984   3.691  21.748  0.00  0.00    +0.000 A 
ATOM      6  C   UNL     1       1.833   2.451  21.127  0.00  0.00    +0.000 A 
ATOM      7  C   UNL     1       2.163   2.298  19.780  0.00  0.00    +0.000 A 
ATOM      8  C   UNL     1       2.655   3.396  19.058  0.00  0.00    +0.000 A 
ATOM      9  C   UNL     1       3.101   3.269  17.647  0.00  0.00    +0.000 A 
ATOM     10  O   UNL     1       3.036   2.175  17.079  0.00  0.00    +0.000 OA
ATOM     11  N   UNL     1       3.655   4.409  17.067  0.00  0.00    +0.000 N 
ENDROOT
BRANCH  11  12
ATOM     12  N   UNL     1       4.312   4.161  15.817  0.00  0.00    +0.000 N 
ATOM     13  C   UNL     1       5.677   3.962  15.741  0.00  0.00    +0.000 C 
ATOM     14  O   UNL     1       6.416   3.731  16.690  0.00  0.00    +0.000 OA
ATOM     15  H   UNL     1       3.807   4.542  15.021  0.00  0.00    +0.000 HD
BRANCH  13  16
ATOM     16  C   UNL     1       6.277   4.041  14.379  0.00  0.00    +0.000 A 
ATOM     17  C   UNL     1       5.732   3.338  13.299  0.00  0.00    +0.000 A 
ATOM     18  C   UNL     1       6.219   3.562  12.007  0.00  0.00    +0.000 A 
ATOM     19  C   UNL     1       7.254   4.474  11.790  0.00  0.00    +0.000 A 
ATOM     20  C   UNL     1       7.818   5.156  12.867  0.00  0.00    +0.000 A 
ATOM     21  C   UNL     1       7.329   4.943  14.160  0.00  0.00    +0.000 A 
ENDBRANCH  13  16
ENDBRANCH  11  12
BRANCH   1  22
ATOM     22  S   UNL     1       4.826   6.896  17.216  0.00  0.00    +0.000 S 
BRANCH  22  23
ATOM     23  C   UNL     1       6.310   6.585  18.224  0.00  0.00    +0.000 C 
BRANCH  23  24
ATOM     24  C   UNL     1       7.553   7.118  17.540  0.00  0.00    +0.000 C 
ATOM     25  O   UNL     1       7.932   6.846  16.407  0.00  0.00    +0.000 OA
BRANCH  24  26
ATOM     26  O   UNL     1       8.253   7.897  18.415  0.00  0.00    +0.000 OA
BRANCH  26  28
ATOM     27  C   UNL     1       9.199  10.000  19.031  0.00  0.00    +0.000 C 
ATOM     28  C   UNL     1       8.193   9.302  18.133  0.00  0.00    +0.000 C 
ENDBRANCH  26  28
ENDBRANCH  24  26
ENDBRANCH  23  24
ENDBRANCH  22  23
ENDBRANCH   1  22
TORSDOF 7
ENDMDL
MODEL 6
REMARK VINA RESULT:      -7.1      0.879      1.038
REMARK  Name = 
REMARK  8 active torsions:
REMARK  status: ('A' for Active; 'I' for Inactive)
REMARK    1  A    between atoms: C_1  and  C_2
REMARK    2  A    between atoms: C_2  and  O_3
REMARK    3  A    between atoms: O_3  and  C_4
REMARK    4  A    between atoms: C_4  and  C_6
REMARK    5  A    between atoms: C_6  and  S_7
REMARK    6  A    between atoms: S_7  and  C_8
REMARK    7  A    between atoms: N_18  and  N_19
REMARK    8  A    between atoms: C_20  and  C_22
REMARK                            x       y       z     vdW  Elec       q    Type
REMARK                         _______ _______ _______ _____ _____    ______ ____
ROOT
ATOM      1  C   UNL     1       2.036   6.582  20.252  0.00  0.00    +0.000 A 
ATOM      2  N   UNL     1       1.358   7.298  21.093  0.00  0.00    +0.000 NA
ATOM      3  C   UNL     1       0.955   8.577  20.716  0.00  0.00    +0.000 A 
ATOM      4  C   UNL     1       0.137   9.295  21.591  0.00  0.00    +0.000 A 
ATOM      5  C   UNL     1      -0.407  10.520  21.211  0.00  0.00    +0.000 A 
ATOM      6  C   UNL     1      -0.120  11.047  19.951  0.00  0.00    +0.000 A 
ATOM      7  C   UNL     1       0.715  10.351  19.075  0.00  0.00    +0.000 A 
ATOM      8  C   UNL     1       1.255   9.116  19.467  0.00  0.00    +0.000 A 
ATOM      9  C   UNL     1       2.080   8.295  18.544  0.00  0.00    +0.000 A 
ATOM     10  O   UNL     1       2.309   8.700  17.401  0.00  0.00    +0.000 OA
ATOM     11  N   UNL     1       2.483   7.048  19.018  0.00  0.00    +0.000 N 
ENDROOT
BRANCH  11  12
ATOM     12  N   UNL     1       3.032   6.195  18.005  0.00  0.00    +0.000 N 
ATOM     13  C   UNL     1       4.374   5.865  17.981  0.00  0.00    +0.000 C 
ATOM     14  O   UNL     1       5.164   6.037  18.902  0.00  0.00    +0.000 OA
ATOM     15  H   UNL     1       2.495   6.206  17.141  0.00  0.00    +0.000 HD
BRANCH  13  16
ATOM     16  C   UNL     1       4.878   5.254  16.720  0.00  0.00    +0.000 A 
ATOM     17  C   UNL     1       5.298   6.044  15.643  0.00  0.00    +0.000 A 
ATOM     18  C   UNL     1       5.917   5.445  14.541  0.00  0.00    +0.000 A 
ATOM     19  C   UNL     1       6.109   4.062  14.503  0.00  0.00    +0.000 A 
ATOM     20  C   UNL     1       5.668   3.269  15.562  0.00  0.00    +0.000 A 
ATOM     21  C   UNL     1       5.057   3.864  16.670  0.00  0.00    +0.000 A 
ENDBRANCH  13  16
ENDBRANCH  11  12
BRANCH   1  22
ATOM     22  S   UNL     1       2.272   4.909  20.737  0.00  0.00    +0.000 S 
BRANCH  22  23
ATOM     23  C   UNL     1       0.743   4.240  20.009  0.00  0.00    +0.000 C 
BRANCH  23  24
ATOM     24  C   UNL     1       0.988   2.881  19.385  0.00  0.00    +0.000 C 
ATOM     25  O   UNL     1       0.292   2.334  18.536  0.00  0.00    +0.000 OA
BRANCH  24  26
ATOM     26  O   UNL     1       2.070   2.298  19.977  0.00  0.00    +0.000 OA
BRANCH  26  28
ATOM     27  C   UNL     1       4.432   2.041  19.748  0.00  0.00    +0.000 C 
ATOM     28  C   UNL     1       3.088   1.876  19.061  0.00  0.00    +0.000 C 
ENDBRANCH  26  28
ENDBRANCH  24  26
ENDBRANCH  23  24
ENDBRANCH  22  23
ENDBRANCH   1  22
TORSDOF 7
ENDMDL
MODEL 7
REMARK VINA RESULT:      -7.0      1.681      2.498
REMARK  Name = 
REMARK  8 active torsions:
REMARK  status: ('A' for Active; 'I' for Inactive)
REMARK    1  A    between atoms: C_1  and  C_2
REMARK    2  A    between atoms: C_2  and  O_3
REMARK    3  A    between atoms: O_3  and  C_4
REMARK    4  A    between atoms: C_4  and  C_6
REMARK    5  A    between atoms: C_6  and  S_7
REMARK    6  A    between atoms: S_7  and  C_8
REMARK    7  A    between atoms: N_18  and  N_19
REMARK    8  A    between atoms: C_20  and  C_22
REMARK                            x       y       z     vdW  Elec       q    Type
REMARK                         _______ _______ _______ _____ _____    ______ ____
ROOT
ATOM      1  C   UNL     1       4.268   5.320  18.849  0.00  0.00    +0.000 A 
ATOM      2  N   UNL     1       3.555   5.871  19.780  0.00  0.00    +0.000 NA
ATOM      3  C   UNL     1       2.852   7.037  19.490  0.00  0.00    +0.000 A 
ATOM      4  C   UNL     1       2.005   7.558  20.471  0.00  0.00    +0.000 A 
ATOM      5  C   UNL     1       1.176   8.642  20.191  0.00  0.00    +0.000 A 
ATOM      6  C   UNL     1       1.200   9.226  18.923  0.00  0.00    +0.000 A 
ATOM      7  C   UNL     1       2.056   8.729  17.940  0.00  0.00    +0.000 A 
ATOM      8  C   UNL     1       2.885   7.636  18.232  0.00  0.00    +0.000 A 
ATOM      9  C   UNL     1       3.754   7.015  17.199  0.00  0.00    +0.000 A 
ATOM     10  O   UNL     1       3.761   7.466  16.050  0.00  0.00    +0.000 OA
ATOM     11  N   UNL     1       4.462   5.879  17.587  0.00  0.00    +0.000 N 
ENDROOT
BRANCH  11  12
ATOM     12  N   UNL     1       5.060   5.168  16.495  0.00  0.00    +0.000 N 
ATOM     13  C   UNL     1       6.264   5.562  15.943  0.00  0.00    +0.000 C 
ATOM     14  O   UNL     1       7.049   6.357  16.446  0.00  0.00    +0.000 OA
ATOM     15  H   UNL     1       4.381   4.666  15.929  0.00  0.00    +0.000 HD
BRANCH  13  16
ATOM     16  C   UNL     1       6.614   4.958  14.627  0.00  0.00    +0.000 A 
ATOM     17  C   UNL     1       5.852   3.921  14.075  0.00  0.00    +0.000 A 
ATOM     18  C   UNL     1       6.109   3.490  12.769  0.00  0.00    +0.000 A 
ATOM     19  C   UNL     1       7.128   4.078  12.018  0.00  0.00    +0.000 A 
ATOM     20  C   UNL     1       7.907   5.092  12.575  0.00  0.00    +0.000 A 
ATOM     21  C   UNL     1       7.649   5.534  13.876  0.00  0.00    +0.000 A 
ENDBRANCH  13  16
ENDBRANCH  11  12
BRANCH   1  22
ATOM     22  S   UNL     1       4.905   3.733  19.254  0.00  0.00    +0.000 S 
BRANCH  22  23
ATOM     23  C   UNL     1       3.346   3.005  19.851  0.00  0.00    +0.000 C 
BRANCH  23  24
ATOM     24  C   UNL     1       2.844   1.941  18.897  0.00  0.00    +0.000 C 
ATOM     25  O   UNL     1       3.526   1.107  18.312  0.00  0.00    +0.000 OA
BRANCH  24  26
ATOM     26  O   UNL     1       1.501   2.097  18.709  0.00  0.00    +0.000 OA
BRANCH  26  28
ATOM     27  C   UNL     1       1.246   4.149  17.516  0.00  0.00    +0.000 C 
ATOM     28  C   UNL     1       1.039   3.448  18.846  0.00  0.00    +0.000 C 
ENDBRANCH  26  28
ENDBRANCH  24  26
ENDBRANCH  23  24
ENDBRANCH  22  23
ENDBRANCH   1  22
TORSDOF 7
ENDMDL
MODEL 8
REMARK VINA RESULT:      -6.9      0.889      1.387
REMARK  Name = 
REMARK  8 active torsions:
REMARK  status: ('A' for Active; 'I' for Inactive)
REMARK    1  A    between atoms: C_1  and  C_2
REMARK    2  A    between atoms: C_2  and  O_3
REMARK    3  A    between atoms: O_3  and  C_4
REMARK    4  A    between atoms: C_4  and  C_6
REMARK    5  A    between atoms: C_6  and  S_7
REMARK    6  A    between atoms: S_7  and  C_8
REMARK    7  A    between atoms: N_18  and  N_19
REMARK    8  A    between atoms: C_20  and  C_22
REMARK                            x       y       z     vdW  Elec       q    Type
REMARK                         _______ _______ _______ _____ _____    ______ ____
ROOT
ATOM      1  C   UNL     1       2.462   6.691  19.902  0.00  0.00    +0.000 A 
ATOM      2  N   UNL     1       1.701   7.357  20.714  0.00  0.00    +0.000 NA
ATOM      3  C   UNL     1       1.166   8.571  20.292  0.00  0.00    +0.000 A 
ATOM      4  C   UNL     1       0.265   9.223  21.138  0.00  0.00    +0.000 A 
ATOM      5  C   UNL     1      -0.405  10.369  20.713  0.00  0.00    +0.000 A 
ATOM      6  C   UNL     1      -0.165  10.882  19.438  0.00  0.00    +0.000 A 
ATOM      7  C   UNL     1       0.749  10.253  18.591  0.00  0.00    +0.000 A 
ATOM      8  C   UNL     1       1.416   9.098  19.027  0.00  0.00    +0.000 A 
ATOM      9  C   UNL     1       2.335   8.343  18.138  0.00  0.00    +0.000 A 
ATOM     10  O   UNL     1       2.530   8.732  16.983  0.00  0.00    +0.000 OA
ATOM     11  N   UNL     1       2.866   7.163  18.656  0.00  0.00    +0.000 N 
ENDROOT
BRANCH  11  12
ATOM     12  N   UNL     1       3.515   6.342  17.675  0.00  0.00    +0.000 N 
ATOM     13  C   UNL     1       4.876   6.107  17.710  0.00  0.00    +0.000 C 
ATOM     14  O   UNL     1       5.614   6.342  18.659  0.00  0.00    +0.000 OA
ATOM     15  H   UNL     1       3.014   6.308  16.791  0.00  0.00    +0.000 HD
BRANCH  13  16
ATOM     16  C   UNL     1       5.474   5.523  16.476  0.00  0.00    +0.000 A 
ATOM     17  C   UNL     1       6.825   5.710  16.160  0.00  0.00    +0.000 A 
ATOM     18  C   UNL     1       7.390   5.015  15.086  0.00  0.00    +0.000 A 
ATOM     19  C   UNL     1       6.613   4.143  14.321  0.00  0.00    +0.000 A 
ATOM     20  C   UNL     1       5.261   3.975  14.616  0.00  0.00    +0.000 A 
ATOM     21  C   UNL     1       4.692   4.660  15.694  0.00  0.00    +0.000 A 
ENDBRANCH  13  16
ENDBRANCH  11  12
BRANCH   1  22
ATOM     22  S   UNL     1       2.873   5.071  20.445  0.00  0.00    +0.000 S 
BRANCH  22  23
ATOM     23  C   UNL     1       1.176   4.419  20.532  0.00  0.00    +0.000 C 
BRANCH  23  24
ATOM     24  C   UNL     1       1.180   2.930  20.813  0.00  0.00    +0.000 C 
ATOM     25  O   UNL     1       1.354   2.396  21.903  0.00  0.00    +0.000 OA
BRANCH  24  26
ATOM     26  O   UNL     1       1.043   2.246  19.640  0.00  0.00    +0.000 OA
BRANCH  26  28
ATOM     27  C   UNL     1       2.405   2.417  17.687  0.00  0.00    +0.000 C 
ATOM     28  C   UNL     1       2.280   1.800  19.069  0.00  0.00    +0.000 C 
ENDBRANCH  26  28
ENDBRANCH  24  26
ENDBRANCH  23  24
ENDBRANCH  22  23
ENDBRANCH   1  22
TORSDOF 7
ENDMDL
MODEL 9
REMARK VINA RESULT:      -6.8      3.536      8.168
REMARK  Name = 
REMARK  8 active torsions:
REMARK  status: ('A' for Active; 'I' for Inactive)
REMARK    1  A    between atoms: C_1  and  C_2
REMARK    2  A    between atoms: C_2  and  O_3
REMARK    3  A    between atoms: O_3  and  C_4
REMARK    4  A    between atoms: C_4  and  C_6
REMARK    5  A    between atoms: C_6  and  S_7
REMARK    6  A    between atoms: S_7  and  C_8
REMARK    7  A    between atoms: N_18  and  N_19
REMARK    8  A    between atoms: C_20  and  C_22
REMARK                            x       y       z     vdW  Elec       q    Type
REMARK                         _______ _______ _______ _____ _____    ______ ____
ROOT
ATOM      1  C   UNL     1       6.810   5.489  16.939  0.00  0.00    +0.000 A 
ATOM      2  N   UNL     1       7.565   5.601  15.891  0.00  0.00    +0.000 NA
ATOM      3  C   UNL     1       7.164   4.991  14.705  0.00  0.00    +0.000 A 
ATOM      4  C   UNL     1       7.933   5.209  13.559  0.00  0.00    +0.000 A 
ATOM      5  C   UNL     1       7.508   4.738  12.318  0.00  0.00    +0.000 A 
ATOM      6  C   UNL     1       6.311   4.028  12.218  0.00  0.00    +0.000 A 
ATOM      7  C   UNL     1       5.544   3.784  13.357  0.00  0.00    +0.000 A 
ATOM      8  C   UNL     1       5.979   4.265  14.602  0.00  0.00    +0.000 A 
ATOM      9  C   UNL     1       5.161   4.106  15.831  0.00  0.00    +0.000 A 
ATOM     10  O   UNL     1       4.069   3.534  15.773  0.00  0.00    +0.000 OA
ATOM     11  N   UNL     1       5.659   4.706  16.987  0.00  0.00    +0.000 N 
ENDROOT
BRANCH  11  12
ATOM     12  N   UNL     1       4.713   4.760  18.064  0.00  0.00    +0.000 N 
ATOM     13  C   UNL     1       4.660   3.779  19.034  0.00  0.00    +0.000 C 
ATOM     14  O   UNL     1       5.520   2.929  19.234  0.00  0.00    +0.000 OA
ATOM     15  H   UNL     1       3.880   5.295  17.833  0.00  0.00    +0.000 HD
BRANCH  13  16
ATOM     16  C   UNL     1       3.445   3.772  19.896  0.00  0.00    +0.000 A 
ATOM     17  C   UNL     1       2.436   4.729  19.742  0.00  0.00    +0.000 A 
ATOM     18  C   UNL     1       1.238   4.598  20.454  0.00  0.00    +0.000 A 
ATOM     19  C   UNL     1       1.048   3.523  21.325  0.00  0.00    +0.000 A 
ATOM     20  C   UNL     1       2.062   2.583  21.502  0.00  0.00    +0.000 A 
ATOM     21  C   UNL     1       3.257   2.704  20.787  0.00  0.00    +0.000 A 
ENDBRANCH  13  16
ENDBRANCH  11  12
BRANCH   1  22
ATOM     22  S   UNL     1       7.288   6.497  18.297  0.00  0.00    +0.000 S 
BRANCH  22  23
ATOM     23  C   UNL     1       7.519   8.044  17.365  0.00  0.00    +0.000 C 
BRANCH  23  24
ATOM     24  C   UNL     1       8.366   9.028  18.146  0.00  0.00    +0.000 C 
ATOM     25  O   UNL     1       8.973   8.799  19.187  0.00  0.00    +0.000 OA
BRANCH  24  26
ATOM     26  O   UNL     1       8.289  10.258  17.561  0.00  0.00    +0.000 OA
BRANCH  26  28
ATOM     27  C   UNL     1      10.318  11.504  17.733  0.00  0.00    +0.000 C 
ATOM     28  C   UNL     1       8.925  11.306  18.304  0.00  0.00    +0.000 C 
ENDBRANCH  26  28
ENDBRANCH  24  26
ENDBRANCH  23  24
ENDBRANCH  22  23
ENDBRANCH   1  22
TORSDOF 7
ENDMDL
