MODEL 1
REMARK VINA RESULT:      -7.4      0.000      0.000
REMARK  Name = 
REMARK  10 active torsions:
REMARK  status: ('A' for Active; 'I' for Inactive)
REMARK    1  A    between atoms: C_1  and  C_2
REMARK    2  A    between atoms: C_2  and  O_3
REMARK    3  A    between atoms: O_3  and  C_4
REMARK    4  A    between atoms: C_4  and  C_6
REMARK    5  A    between atoms: C_6  and  C_7
REMARK    6  A    between atoms: C_9  and  N_10
REMARK    7  A    between atoms: N_10  and  C_11
REMARK    8  A    between atoms: C_14  and  O_15
REMARK    9  A    between atoms: O_15  and  C_16
REMARK   10  A    between atoms: N_21  and  C_22
REMARK                            x       y       z     vdW  Elec       q    Type
REMARK                         _______ _______ _______ _____ _____    ______ ____
ROOT
ATOM      1  C   UNL     1       2.682   4.555  18.478  0.00  0.00    +0.000 C 
ATOM      2  C   UNL     1       1.481   4.227  17.571  0.00  0.00    +0.000 C 
ATOM      3  C   UNL     1       2.138   5.453  19.563  0.00  0.00    +0.000 C 
ATOM      4  C   UNL     1       2.535   6.721  19.451  0.00  0.00    +0.000 C 
ATOM      5  C   UNL     1       3.506   6.764  18.313  0.00  0.00    +0.000 C 
ATOM      6  O   UNL     1       4.045   7.788  17.935  0.00  0.00    +0.000 OA
ATOM      7  N   UNL     1       3.649   5.447  17.850  0.00  0.00    +0.000 N 
ENDROOT
BRANCH   7   8
ATOM      8  C   UNL     1       4.776   4.989  17.107  0.00  0.00    +0.000 A 
ATOM      9  C   UNL     1       4.624   4.575  15.773  0.00  0.00    +0.000 A 
ATOM     10  C   UNL     1       5.725   4.184  15.005  0.00  0.00    +0.000 A 
ATOM     11  C   UNL     1       6.999   4.178  15.563  0.00  0.00    +0.000 A 
ATOM     12  C   UNL     1       7.170   4.587  16.882  0.00  0.00    +0.000 A 
ATOM     13  C   UNL     1       6.069   5.006  17.641  0.00  0.00    +0.000 A 
ENDBRANCH   7   8
BRANCH   1  14
ATOM     14  C   UNL     1       3.325   3.313  19.153  0.00  0.00    +0.000 C 
ATOM     15  O   UNL     1       3.696   2.307  18.562  0.00  0.00    +0.000 OA
BRANCH  14  16
ATOM     16  O   UNL     1       3.403   3.479  20.511  0.00  0.00    +0.000 OA
BRANCH  16  18
ATOM     17  C   UNL     1       1.472   2.599  21.677  0.00  0.00    +0.000 C 
ATOM     18  C   UNL     1       2.931   2.389  21.317  0.00  0.00    +0.000 C 
ENDBRANCH  16  18
ENDBRANCH  14  16
ENDBRANCH   1  14
BRANCH   4  19
ATOM     19  N   UNL     1       2.217   7.839  20.191  0.00  0.00    +0.000 N 
ATOM     20  H   UNL     1       2.104   7.604  21.182  0.00  0.00    +0.000 HD
BRANCH  19  21
ATOM     21  C   UNL     1       1.202   8.755  19.808  0.00  0.00    +0.000 A 
ATOM     22  C   UNL     1       1.042   9.201  18.491  0.00  0.00    +0.000 A 
ATOM     23  C   UNL     1       0.057  10.134  18.162  0.00  0.00    +0.000 A 
ATOM     24  C   UNL     1      -0.792  10.643  19.138  0.00  0.00    +0.000 A 
ATOM     25  C   UNL     1      -0.625  10.241  20.463  0.00  0.00    +0.000 A 
ATOM     26  C   UNL     1       0.368   9.307  20.795  0.00  0.00    +0.000 A 
BRANCH  24  27
ATOM     27  O   UNL     1      -1.706  11.557  18.693  0.00  0.00    +0.000 OA
ATOM     28  C   UNL     1      -2.353  12.319  19.704  0.00  0.00    +0.000 C 
ENDBRANCH  24  27
ENDBRANCH  19  21
ENDBRANCH   4  19
TORSDOF 7
ENDMDL
MODEL 2
REMARK VINA RESULT:      -7.3      0.421      1.015
REMARK  Name = 
REMARK  10 active torsions:
REMARK  status: ('A' for Active; 'I' for Inactive)
REMARK    1  A    between atoms: C_1  and  C_2
REMARK    2  A    between atoms: C_2  and  O_3
REMARK    3  A    between atoms: O_3  and  C_4
REMARK    4  A    between atoms: C_4  and  C_6
REMARK    5  A    between atoms: C_6  and  C_7
REMARK    6  A    between atoms: C_9  and  N_10
REMARK    7  A    between atoms: N_10  and  C_11
REMARK    8  A    between atoms: C_14  and  O_15
REMARK    9  A    between atoms: O_15  and  C_16
REMARK   10  A    between atoms: N_21  and  C_22
REMARK                            x       y       z     vdW  Elec       q    Type
REMARK                         _______ _______ _______ _____ _____    ______ ____
ROOT
ATOM      1  C   UNL     1       2.665   4.583  18.414  0.00  0.00    +0.000 C 
ATOM      2  C   UNL     1       1.465   4.280  17.497  0.00  0.00    +0.000 C 
ATOM      3  C   UNL     1       2.121   5.453  19.521  0.00  0.00    +0.000 C 
ATOM      4  C   UNL     1       2.520   6.722  19.442  0.00  0.00    +0.000 C 
ATOM      5  C   UNL     1       3.492   6.794  18.308  0.00  0.00    +0.000 C 
ATOM      6  O   UNL     1       4.032   7.827  17.957  0.00  0.00    +0.000 OA
ATOM      7  N   UNL     1       3.634   5.490  17.810  0.00  0.00    +0.000 N 
ENDROOT
BRANCH   7   8
ATOM      8  C   UNL     1       4.761   5.049  17.057  0.00  0.00    +0.000 A 
ATOM      9  C   UNL     1       6.046   5.074  17.625  0.00  0.00    +0.000 A 
ATOM     10  C   UNL     1       7.157   4.586  16.928  0.00  0.00    +0.000 A 
ATOM     11  C   UNL     1       7.006   4.083  15.640  0.00  0.00    +0.000 A 
ATOM     12  C   UNL     1       5.742   4.049  15.062  0.00  0.00    +0.000 A 
ATOM     13  C   UNL     1       4.626   4.512  15.772  0.00  0.00    +0.000 A 
ENDBRANCH   7   8
BRANCH   1  14
ATOM     14  C   UNL     1       3.306   3.323  19.057  0.00  0.00    +0.000 C 
ATOM     15  O   UNL     1       3.595   2.297  18.452  0.00  0.00    +0.000 OA
BRANCH  14  16
ATOM     16  O   UNL     1       3.486   3.497  20.404  0.00  0.00    +0.000 OA
BRANCH  16  18
ATOM     17  C   UNL     1       1.566   2.639  21.604  0.00  0.00    +0.000 C 
ATOM     18  C   UNL     1       3.028   2.435  21.254  0.00  0.00    +0.000 C 
ENDBRANCH  16  18
ENDBRANCH  14  16
ENDBRANCH   1  14
BRANCH   4  19
ATOM     19  N   UNL     1       2.202   7.821  20.212  0.00  0.00    +0.000 N 
ATOM     20  H   UNL     1       2.084   7.560  21.195  0.00  0.00    +0.000 HD
BRANCH  19  21
ATOM     21  C   UNL     1       1.193   8.751  19.849  0.00  0.00    +0.000 A 
ATOM     22  C   UNL     1       1.054   9.250  18.548  0.00  0.00    +0.000 A 
ATOM     23  C   UNL     1       0.074  10.195  18.241  0.00  0.00    +0.000 A 
ATOM     24  C   UNL     1      -0.792  10.663  19.223  0.00  0.00    +0.000 A 
ATOM     25  C   UNL     1      -0.648  10.208  20.532  0.00  0.00    +0.000 A 
ATOM     26  C   UNL     1       0.341   9.262  20.843  0.00  0.00    +0.000 A 
BRANCH  24  27
ATOM     27  O   UNL     1      -1.700  11.594  18.799  0.00  0.00    +0.000 OA
ATOM     28  C   UNL     1      -2.763  11.093  17.999  0.00  0.00    +0.000 C 
ENDBRANCH  24  27
ENDBRANCH  19  21
ENDBRANCH   4  19
TORSDOF 7
ENDMDL
MODEL 3
REMARK VINA RESULT:      -7.1      1.539      1.883
REMARK  Name = 
REMARK  10 active torsions:
REMARK  status: ('A' for Active; 'I' for Inactive)
REMARK    1  A    between atoms: C_1  and  C_2
REMARK    2  A    between atoms: C_2  and  O_3
REMARK    3  A    between atoms: O_3  and  C_4
REMARK    4  A    between atoms: C_4  and  C_6
REMARK    5  A    between atoms: C_6  and  C_7
REMARK    6  A    between atoms: C_9  and  N_10
REMARK    7  A    between atoms: N_10  and  C_11
REMARK    8  A    between atoms: C_14  and  O_15
REMARK    9  A    between atoms: O_15  and  C_16
REMARK   10  A    between atoms: N_21  and  C_22
REMARK                            x       y       z     vdW  Elec       q    Type
REMARK                         _______ _______ _______ _____ _____    ______ ____
ROOT
ATOM      1  C   UNL     1       2.696   5.239  18.527  0.00  0.00    +0.000 C 
ATOM      2  C   UNL     1       1.698   4.429  17.680  0.00  0.00    +0.000 C 
ATOM      3  C   UNL     1       1.906   6.399  19.086  0.00  0.00    +0.000 C 
ATOM      4  C   UNL     1       2.219   7.569  18.531  0.00  0.00    +0.000 C 
ATOM      5  C   UNL     1       3.365   7.309  17.606  0.00  0.00    +0.000 C 
ATOM      6  O   UNL     1       3.881   8.176  16.924  0.00  0.00    +0.000 OA
ATOM      7  N   UNL     1       3.686   5.949  17.727  0.00  0.00    +0.000 N 
ENDROOT
BRANCH   7   8
ATOM      8  C   UNL     1       4.956   5.402  17.379  0.00  0.00    +0.000 A 
ATOM      9  C   UNL     1       5.072   4.517  16.294  0.00  0.00    +0.000 A 
ATOM     10  C   UNL     1       6.316   4.019  15.894  0.00  0.00    +0.000 A 
ATOM     11  C   UNL     1       7.467   4.381  16.586  0.00  0.00    +0.000 A 
ATOM     12  C   UNL     1       7.373   5.258  17.661  0.00  0.00    +0.000 A 
ATOM     13  C   UNL     1       6.128   5.779  18.042  0.00  0.00    +0.000 A 
ENDBRANCH   7   8
BRANCH   1  14
ATOM     14  C   UNL     1       3.305   4.449  19.717  0.00  0.00    +0.000 C 
ATOM     15  O   UNL     1       4.224   3.644  19.627  0.00  0.00    +0.000 OA
BRANCH  14  16
ATOM     16  O   UNL     1       2.663   4.753  20.889  0.00  0.00    +0.000 OA
BRANCH  16  18
ATOM     17  C   UNL     1       1.143   2.873  21.023  0.00  0.00    +0.000 C 
ATOM     18  C   UNL     1       2.259   3.644  21.704  0.00  0.00    +0.000 C 
ENDBRANCH  16  18
ENDBRANCH  14  16
ENDBRANCH   1  14
BRANCH   4  19
ATOM     19  N   UNL     1       1.694   8.830  18.719  0.00  0.00    +0.000 N 
ATOM     20  H   UNL     1       2.369   9.553  18.453  0.00  0.00    +0.000 HD
BRANCH  19  21
ATOM     21  C   UNL     1       1.034   9.220  19.914  0.00  0.00    +0.000 A 
ATOM     22  C   UNL     1      -0.025  10.136  19.931  0.00  0.00    +0.000 A 
ATOM     23  C   UNL     1      -0.620  10.525  21.133  0.00  0.00    +0.000 A 
ATOM     24  C   UNL     1      -0.175  10.008  22.345  0.00  0.00    +0.000 A 
ATOM     25  C   UNL     1       0.903   9.124  22.353  0.00  0.00    +0.000 A 
ATOM     26  C   UNL     1       1.505   8.736  21.146  0.00  0.00    +0.000 A 
BRANCH  24  27
ATOM     27  O   UNL     1      -0.831  10.475  23.449  0.00  0.00    +0.000 OA
ATOM     28  C   UNL     1      -1.715  11.564  23.222  0.00  0.00    +0.000 C 
ENDBRANCH  24  27
ENDBRANCH  19  21
ENDBRANCH   4  19
TORSDOF 7
ENDMDL
MODEL 4
REMARK VINA RESULT:      -6.8      2.716      8.959
REMARK  Name = 
REMARK  10 active torsions:
REMARK  status: ('A' for Active; 'I' for Inactive)
REMARK    1  A    between atoms: C_1  and  C_2
REMARK    2  A    between atoms: C_2  and  O_3
REMARK    3  A    between atoms: O_3  and  C_4
REMARK    4  A    between atoms: C_4  and  C_6
REMARK    5  A    between atoms: C_6  and  C_7
REMARK    6  A    between atoms: C_9  and  N_10
REMARK    7  A    between atoms: N_10  and  C_11
REMARK    8  A    between atoms: C_14  and  O_15
REMARK    9  A    between atoms: O_15  and  C_16
REMARK   10  A    between atoms: N_21  and  C_22
REMARK                            x       y       z     vdW  Elec       q    Type
REMARK                         _______ _______ _______ _____ _____    ______ ____
ROOT
ATOM      1  C   UNL     1       0.157  10.688  19.264  0.00  0.00    +0.000 C 
ATOM      2  C   UNL     1      -0.807  10.256  18.143  0.00  0.00    +0.000 C 
ATOM      3  C   UNL     1       1.250   9.647  19.283  0.00  0.00    +0.000 C 
ATOM      4  C   UNL     1       1.197   8.843  20.345  0.00  0.00    +0.000 C 
ATOM      5  C   UNL     1       0.101   9.364  21.220  0.00  0.00    +0.000 C 
ATOM      6  O   UNL     1      -0.221   8.839  22.270  0.00  0.00    +0.000 OA
ATOM      7  N   UNL     1      -0.401  10.518  20.599  0.00  0.00    +0.000 N 
ENDROOT
BRANCH   7   8
ATOM      8  C   UNL     1      -1.115  11.540  21.291  0.00  0.00    +0.000 A 
ATOM      9  C   UNL     1      -2.410  11.899  20.883  0.00  0.00    +0.000 A 
ATOM     10  C   UNL     1      -3.154  12.852  21.586  0.00  0.00    +0.000 A 
ATOM     11  C   UNL     1      -2.607  13.482  22.699  0.00  0.00    +0.000 A 
ATOM     12  C   UNL     1      -1.326  13.138  23.119  0.00  0.00    +0.000 A 
ATOM     13  C   UNL     1      -0.594  12.162  22.431  0.00  0.00    +0.000 A 
ENDBRANCH   7   8
BRANCH   1  14
ATOM     14  C   UNL     1       0.814  12.077  19.034  0.00  0.00    +0.000 C 
ATOM     15  O   UNL     1       1.964  12.367  19.340  0.00  0.00    +0.000 OA
BRANCH  14  16
ATOM     16  O   UNL     1      -0.073  12.950  18.461  0.00  0.00    +0.000 OA
BRANCH  16  18
ATOM     17  C   UNL     1      -0.692  14.958  19.665  0.00  0.00    +0.000 C 
ATOM     18  C   UNL     1       0.216  14.348  18.614  0.00  0.00    +0.000 C 
ENDBRANCH  16  18
ENDBRANCH  14  16
ENDBRANCH   1  14
BRANCH   4  19
ATOM     19  N   UNL     1       1.963   7.751  20.694  0.00  0.00    +0.000 N 
ATOM     20  H   UNL     1       2.937   8.021  20.852  0.00  0.00    +0.000 HD
BRANCH  19  21
ATOM     21  C   UNL     1       1.926   6.523  19.980  0.00  0.00    +0.000 A 
ATOM     22  C   UNL     1       2.367   6.401  18.658  0.00  0.00    +0.000 A 
ATOM     23  C   UNL     1       2.275   5.185  17.978  0.00  0.00    +0.000 A 
ATOM     24  C   UNL     1       1.743   4.062  18.602  0.00  0.00    +0.000 A 
ATOM     25  C   UNL     1       1.264   4.171  19.907  0.00  0.00    +0.000 A 
ATOM     26  C   UNL     1       1.351   5.395  20.589  0.00  0.00    +0.000 A 
BRANCH  24  27
ATOM     27  O   UNL     1       1.698   2.936  17.828  0.00  0.00    +0.000 OA
ATOM     28  C   UNL     1       2.835   2.087  17.916  0.00  0.00    +0.000 C 
ENDBRANCH  24  27
ENDBRANCH  19  21
ENDBRANCH   4  19
TORSDOF 7
ENDMDL
MODEL 5
REMARK VINA RESULT:      -6.8      1.537      2.125
REMARK  Name = 
REMARK  10 active torsions:
REMARK  status: ('A' for Active; 'I' for Inactive)
REMARK    1  A    between atoms: C_1  and  C_2
REMARK    2  A    between atoms: C_2  and  O_3
REMARK    3  A    between atoms: O_3  and  C_4
REMARK    4  A    between atoms: C_4  and  C_6
REMARK    5  A    between atoms: C_6  and  C_7
REMARK    6  A    between atoms: C_9  and  N_10
REMARK    7  A    between atoms: N_10  and  C_11
REMARK    8  A    between atoms: C_14  and  O_15
REMARK    9  A    between atoms: O_15  and  C_16
REMARK   10  A    between atoms: N_21  and  C_22
REMARK                            x       y       z     vdW  Elec       q    Type
REMARK                         _______ _______ _______ _____ _____    ______ ____
ROOT
ATOM      1  C   UNL     1       2.733   5.312  18.502  0.00  0.00    +0.000 C 
ATOM      2  C   UNL     1       1.716   4.501  17.678  0.00  0.00    +0.000 C 
ATOM      3  C   UNL     1       1.960   6.479  19.068  0.00  0.00    +0.000 C 
ATOM      4  C   UNL     1       2.267   7.644  18.500  0.00  0.00    +0.000 C 
ATOM      5  C   UNL     1       3.394   7.373  17.555  0.00  0.00    +0.000 C 
ATOM      6  O   UNL     1       3.901   8.233  16.858  0.00  0.00    +0.000 OA
ATOM      7  N   UNL     1       3.711   6.012  17.678  0.00  0.00    +0.000 N 
ENDROOT
BRANCH   7   8
ATOM      8  C   UNL     1       4.971   5.458  17.309  0.00  0.00    +0.000 A 
ATOM      9  C   UNL     1       6.133   5.807  18.018  0.00  0.00    +0.000 A 
ATOM     10  C   UNL     1       7.369   5.226  17.716  0.00  0.00    +0.000 A 
ATOM     11  C   UNL     1       7.470   4.298  16.685  0.00  0.00    +0.000 A 
ATOM     12  C   UNL     1       6.331   3.938  15.973  0.00  0.00    +0.000 A 
ATOM     13  C   UNL     1       5.088   4.500  16.296  0.00  0.00    +0.000 A 
ENDBRANCH   7   8
BRANCH   1  14
ATOM     14  C   UNL     1       3.362   4.527  19.685  0.00  0.00    +0.000 C 
ATOM     15  O   UNL     1       4.301   3.746  19.588  0.00  0.00    +0.000 OA
BRANCH  14  16
ATOM     16  O   UNL     1       2.711   4.803  20.859  0.00  0.00    +0.000 OA
BRANCH  16  18
ATOM     17  C   UNL     1       1.234   2.887  20.957  0.00  0.00    +0.000 C 
ATOM     18  C   UNL     1       2.324   3.676  21.658  0.00  0.00    +0.000 C 
ENDBRANCH  16  18
ENDBRANCH  14  16
ENDBRANCH   1  14
BRANCH   4  19
ATOM     19  N   UNL     1       1.751   8.909  18.690  0.00  0.00    +0.000 N 
ATOM     20  H   UNL     1       2.447   9.626  18.469  0.00  0.00    +0.000 HD
BRANCH  19  21
ATOM     21  C   UNL     1       1.043   9.285  19.862  0.00  0.00    +0.000 A 
ATOM     22  C   UNL     1       1.319   8.740  21.122  0.00  0.00    +0.000 A 
ATOM     23  C   UNL     1       0.572   9.106  22.243  0.00  0.00    +0.000 A 
ATOM     24  C   UNL     1      -0.465  10.026  22.135  0.00  0.00    +0.000 A 
ATOM     25  C   UNL     1      -0.781  10.552  20.883  0.00  0.00    +0.000 A 
ATOM     26  C   UNL     1      -0.034  10.181  19.755  0.00  0.00    +0.000 A 
BRANCH  24  27
ATOM     27  O   UNL     1      -1.126  10.293  23.301  0.00  0.00    +0.000 OA
ATOM     28  C   UNL     1      -1.824  11.531  23.339  0.00  0.00    +0.000 C 
ENDBRANCH  24  27
ENDBRANCH  19  21
ENDBRANCH   4  19
TORSDOF 7
ENDMDL
MODEL 6
REMARK VINA RESULT:      -6.8      1.674      2.123
REMARK  Name = 
REMARK  10 active torsions:
REMARK  status: ('A' for Active; 'I' for Inactive)
REMARK    1  A    between atoms: C_1  and  C_2
REMARK    2  A    between atoms: C_2  and  O_3
REMARK    3  A    between atoms: O_3  and  C_4
REMARK    4  A    between atoms: C_4  and  C_6
REMARK    5  A    between atoms: C_6  and  C_7
REMARK    6  A    between atoms: C_9  and  N_10
REMARK    7  A    between atoms: N_10  and  C_11
REMARK    8  A    between atoms: C_14  and  O_15
REMARK    9  A    between atoms: O_15  and  C_16
REMARK   10  A    between atoms: N_21  and  C_22
REMARK                            x       y       z     vdW  Elec       q    Type
REMARK                         _______ _______ _______ _____ _____    ______ ____
ROOT
ATOM      1  C   UNL     1       2.771   5.351  18.499  0.00  0.00    +0.000 C 
ATOM      2  C   UNL     1       1.655   4.486  17.884  0.00  0.00    +0.000 C 
ATOM      3  C   UNL     1       2.068   6.523  19.140  0.00  0.00    +0.000 C 
ATOM      4  C   UNL     1       2.247   7.671  18.487  0.00  0.00    +0.000 C 
ATOM      5  C   UNL     1       3.212   7.385  17.380  0.00  0.00    +0.000 C 
ATOM      6  O   UNL     1       3.575   8.226  16.578  0.00  0.00    +0.000 OA
ATOM      7  N   UNL     1       3.582   6.037  17.500  0.00  0.00    +0.000 N 
ENDROOT
BRANCH   7   8
ATOM      8  C   UNL     1       4.780   5.493  16.951  0.00  0.00    +0.000 A 
ATOM      9  C   UNL     1       4.735   4.327  16.169  0.00  0.00    +0.000 A 
ATOM     10  C   UNL     1       5.887   3.813  15.566  0.00  0.00    +0.000 A 
ATOM     11  C   UNL     1       7.112   4.444  15.751  0.00  0.00    +0.000 A 
ATOM     12  C   UNL     1       7.177   5.602  16.520  0.00  0.00    +0.000 A 
ATOM     13  C   UNL     1       6.016   6.131  17.100  0.00  0.00    +0.000 A 
ENDBRANCH   7   8
BRANCH   1  14
ATOM     14  C   UNL     1       3.605   4.628  19.591  0.00  0.00    +0.000 C 
ATOM     15  O   UNL     1       4.600   5.091  20.135  0.00  0.00    +0.000 OA
BRANCH  14  16
ATOM     16  O   UNL     1       3.094   3.384  19.854  0.00  0.00    +0.000 OA
BRANCH  16  18
ATOM     17  C   UNL     1       3.664   1.511  18.430  0.00  0.00    +0.000 C 
ATOM     18  C   UNL     1       3.993   2.277  19.697  0.00  0.00    +0.000 C 
ENDBRANCH  16  18
ENDBRANCH  14  16
ENDBRANCH   1  14
BRANCH   4  19
ATOM     19  N   UNL     1       1.735   8.931  18.711  0.00  0.00    +0.000 N 
ATOM     20  H   UNL     1       2.423   9.654  18.483  0.00  0.00    +0.000 HD
BRANCH  19  21
ATOM     21  C   UNL     1       1.061   9.287  19.909  0.00  0.00    +0.000 A 
ATOM     22  C   UNL     1       0.046  10.250  19.950  0.00  0.00    +0.000 A 
ATOM     23  C   UNL     1      -0.564  10.601  21.156  0.00  0.00    +0.000 A 
ATOM     24  C   UNL     1      -0.178   9.998  22.348  0.00  0.00    +0.000 A 
ATOM     25  C   UNL     1       0.856   9.064  22.335  0.00  0.00    +0.000 A 
ATOM     26  C   UNL     1       1.474   8.714  21.124  0.00  0.00    +0.000 A 
BRANCH  24  27
ATOM     27  O   UNL     1      -0.843  10.435  23.460  0.00  0.00    +0.000 OA
ATOM     28  C   UNL     1      -1.777  11.484  23.242  0.00  0.00    +0.000 C 
ENDBRANCH  24  27
ENDBRANCH  19  21
ENDBRANCH   4  19
TORSDOF 7
ENDMDL
MODEL 7
REMARK VINA RESULT:      -6.7      1.547      2.120
REMARK  Name = 
REMARK  10 active torsions:
REMARK  status: ('A' for Active; 'I' for Inactive)
REMARK    1  A    between atoms: C_1  and  C_2
REMARK    2  A    between atoms: C_2  and  O_3
REMARK    3  A    between atoms: O_3  and  C_4
REMARK    4  A    between atoms: C_4  and  C_6
REMARK    5  A    between atoms: C_6  and  C_7
REMARK    6  A    between atoms: C_9  and  N_10
REMARK    7  A    between atoms: N_10  and  C_11
REMARK    8  A    between atoms: C_14  and  O_15
REMARK    9  A    between atoms: O_15  and  C_16
REMARK   10  A    between atoms: N_21  and  C_22
REMARK                            x       y       z     vdW  Elec       q    Type
REMARK                         _______ _______ _______ _____ _____    ______ ____
ROOT
ATOM      1  C   UNL     1       2.738   5.263  18.375  0.00  0.00    +0.000 C 
ATOM      2  C   UNL     1       1.677   4.404  17.661  0.00  0.00    +0.000 C 
ATOM      3  C   UNL     1       1.986   6.437  18.955  0.00  0.00    +0.000 C 
ATOM      4  C   UNL     1       2.227   7.585  18.324  0.00  0.00    +0.000 C 
ATOM      5  C   UNL     1       3.285   7.298  17.306  0.00  0.00    +0.000 C 
ATOM      6  O   UNL     1       3.720   8.140  16.542  0.00  0.00    +0.000 OA
ATOM      7  N   UNL     1       3.637   5.948  17.454  0.00  0.00    +0.000 N 
ENDROOT
BRANCH   7   8
ATOM      8  C   UNL     1       4.876   5.401  17.010  0.00  0.00    +0.000 A 
ATOM      9  C   UNL     1       6.086   5.840  17.575  0.00  0.00    +0.000 A 
ATOM     10  C   UNL     1       7.308   5.271  17.202  0.00  0.00    +0.000 A 
ATOM     11  C   UNL     1       7.346   4.266  16.242  0.00  0.00    +0.000 A 
ATOM     12  C   UNL     1       6.159   3.817  15.673  0.00  0.00    +0.000 A 
ATOM     13  C   UNL     1       4.932   4.368  16.069  0.00  0.00    +0.000 A 
ENDBRANCH   7   8
BRANCH   1  14
ATOM     14  C   UNL     1       3.469   4.533  19.534  0.00  0.00    +0.000 C 
ATOM     15  O   UNL     1       4.267   5.059  20.301  0.00  0.00    +0.000 OA
BRANCH  14  16
ATOM     16  O   UNL     1       3.123   3.208  19.575  0.00  0.00    +0.000 OA
BRANCH  16  18
ATOM     17  C   UNL     1       1.400   2.999  21.263  0.00  0.00    +0.000 C 
ATOM     18  C   UNL     1       2.826   2.663  20.869  0.00  0.00    +0.000 C 
ENDBRANCH  16  18
ENDBRANCH  14  16
ENDBRANCH   1  14
BRANCH   4  19
ATOM     19  N   UNL     1       1.702   8.847  18.507  0.00  0.00    +0.000 N 
ATOM     20  H   UNL     1       2.341   9.565  18.155  0.00  0.00    +0.000 HD
BRANCH  19  21
ATOM     21  C   UNL     1       1.142   9.278  19.739  0.00  0.00    +0.000 A 
ATOM     22  C   UNL     1       0.366  10.437  19.854  0.00  0.00    +0.000 A 
ATOM     23  C   UNL     1      -0.132  10.849  21.092  0.00  0.00    +0.000 A 
ATOM     24  C   UNL     1       0.130  10.113  22.242  0.00  0.00    +0.000 A 
ATOM     25  C   UNL     1       0.932   8.977  22.155  0.00  0.00    +0.000 A 
ATOM     26  C   UNL     1       1.438   8.565  20.913  0.00  0.00    +0.000 A 
BRANCH  24  27
ATOM     27  O   UNL     1      -0.404  10.626  23.391  0.00  0.00    +0.000 OA
ATOM     28  C   UNL     1      -1.671  11.255  23.251  0.00  0.00    +0.000 C 
ENDBRANCH  24  27
ENDBRANCH  19  21
ENDBRANCH   4  19
TORSDOF 7
ENDMDL
MODEL 8
REMARK VINA RESULT:      -6.7      1.186      1.794
REMARK  Name = 
REMARK  10 active torsions:
REMARK  status: ('A' for Active; 'I' for Inactive)
REMARK    1  A    between atoms: C_1  and  C_2
REMARK    2  A    between atoms: C_2  and  O_3
REMARK    3  A    between atoms: O_3  and  C_4
REMARK    4  A    between atoms: C_4  and  C_6
REMARK    5  A    between atoms: C_6  and  C_7
REMARK    6  A    between atoms: C_9  and  N_10
REMARK    7  A    between atoms: N_10  and  C_11
REMARK    8  A    between atoms: C_14  and  O_15
REMARK    9  A    between atoms: O_15  and  C_16
REMARK   10  A    between atoms: N_21  and  C_22
REMARK                            x       y       z     vdW  Elec       q    Type
REMARK                         _______ _______ _______ _____ _____    ______ ____
ROOT
ATOM      1  C   UNL     1       2.778   5.363  18.700  0.00  0.00    +0.000 C 
ATOM      2  C   UNL     1       1.572   4.641  18.071  0.00  0.00    +0.000 C 
ATOM      3  C   UNL     1       2.192   6.436  19.586  0.00  0.00    +0.000 C 
ATOM      4  C   UNL     1       2.358   7.669  19.108  0.00  0.00    +0.000 C 
ATOM      5  C   UNL     1       3.201   7.538  17.879  0.00  0.00    +0.000 C 
ATOM      6  O   UNL     1       3.523   8.487  17.187  0.00  0.00    +0.000 OA
ATOM      7  N   UNL     1       3.520   6.178  17.746  0.00  0.00    +0.000 N 
ENDROOT
BRANCH   7   8
ATOM      8  C   UNL     1       4.636   5.697  17.001  0.00  0.00    +0.000 A 
ATOM      9  C   UNL     1       5.902   6.284  17.162  0.00  0.00    +0.000 A 
ATOM     10  C   UNL     1       7.023   5.787  16.490  0.00  0.00    +0.000 A 
ATOM     11  C   UNL     1       6.895   4.704  15.627  0.00  0.00    +0.000 A 
ATOM     12  C   UNL     1       5.651   4.108  15.456  0.00  0.00    +0.000 A 
ATOM     13  C   UNL     1       4.533   4.590  16.152  0.00  0.00    +0.000 A 
ENDBRANCH   7   8
BRANCH   1  14
ATOM     14  C   UNL     1       3.679   4.450  19.575  0.00  0.00    +0.000 C 
ATOM     15  O   UNL     1       4.767   4.772  20.036  0.00  0.00    +0.000 OA
BRANCH  14  16
ATOM     16  O   UNL     1       3.106   3.217  19.748  0.00  0.00    +0.000 OA
BRANCH  16  18
ATOM     17  C   UNL     1       1.333   2.735  21.326  0.00  0.00    +0.000 C 
ATOM     18  C   UNL     1       2.831   2.823  21.101  0.00  0.00    +0.000 C 
ENDBRANCH  16  18
ENDBRANCH  14  16
ENDBRANCH   1  14
BRANCH   4  19
ATOM     19  N   UNL     1       1.926   8.890  19.579  0.00  0.00    +0.000 N 
ATOM     20  H   UNL     1       2.003   8.938  20.599  0.00  0.00    +0.000 HD
BRANCH  19  21
ATOM     21  C   UNL     1       0.702   9.484  19.172  0.00  0.00    +0.000 A 
ATOM     22  C   UNL     1      -0.101  10.236  20.037  0.00  0.00    +0.000 A 
ATOM     23  C   UNL     1      -1.318  10.769  19.609  0.00  0.00    +0.000 A 
ATOM     24  C   UNL     1      -1.761  10.567  18.307  0.00  0.00    +0.000 A 
ATOM     25  C   UNL     1      -0.996   9.789  17.439  0.00  0.00    +0.000 A 
ATOM     26  C   UNL     1       0.225   9.248  17.871  0.00  0.00    +0.000 A 
BRANCH  24  27
ATOM     27  O   UNL     1      -2.972  11.130  18.013  0.00  0.00    +0.000 OA
ATOM     28  C   UNL     1      -3.347  11.094  16.642  0.00  0.00    +0.000 C 
ENDBRANCH  24  27
ENDBRANCH  19  21
ENDBRANCH   4  19
TORSDOF 7
ENDMDL
MODEL 9
REMARK VINA RESULT:      -6.6      2.635      9.143
REMARK  Name = 
REMARK  10 active torsions:
REMARK  status: ('A' for Active; 'I' for Inactive)
REMARK    1  A    between atoms: C_1  and  C_2
REMARK    2  A    between atoms: C_2  and  O_3
REMARK    3  A    between atoms: O_3  and  C_4
REMARK    4  A    between atoms: C_4  and  C_6
REMARK    5  A    between atoms: C_6  and  C_7
REMARK    6  A    between atoms: C_9  and  N_10
REMARK    7  A    between atoms: N_10  and  C_11
REMARK    8  A    between atoms: C_14  and  O_15
REMARK    9  A    between atoms: O_15  and  C_16
REMARK   10  A    between atoms: N_21  and  C_22
REMARK                            x       y       z     vdW  Elec       q    Type
REMARK                         _______ _______ _______ _____ _____    ______ ____
ROOT
ATOM      1  C   UNL     1       0.021  10.877  19.491  0.00  0.00    +0.000 C 
ATOM      2  C   UNL     1      -0.928  10.452  18.355  0.00  0.00    +0.000 C 
ATOM      3  C   UNL     1       1.089   9.811  19.548  0.00  0.00    +0.000 C 
ATOM      4  C   UNL     1       0.994   9.022  20.617  0.00  0.00    +0.000 C 
ATOM      5  C   UNL     1      -0.108   9.579  21.461  0.00  0.00    +0.000 C 
ATOM      6  O   UNL     1      -0.465   9.074  22.510  0.00  0.00    +0.000 OA
ATOM      7  N   UNL     1      -0.570  10.736  20.816  0.00  0.00    +0.000 N 
ENDROOT
BRANCH   7   8
ATOM      8  C   UNL     1      -1.275  11.783  21.479  0.00  0.00    +0.000 A 
ATOM      9  C   UNL     1      -2.563  12.149  21.054  0.00  0.00    +0.000 A 
ATOM     10  C   UNL     1      -3.299  13.127  21.730  0.00  0.00    +0.000 A 
ATOM     11  C   UNL     1      -2.752  13.774  22.833  0.00  0.00    +0.000 A 
ATOM     12  C   UNL     1      -1.479  13.424  23.270  0.00  0.00    +0.000 A 
ATOM     13  C   UNL     1      -0.754  12.423  22.609  0.00  0.00    +0.000 A 
ENDBRANCH   7   8
BRANCH   1  14
ATOM     14  C   UNL     1       0.714  12.247  19.260  0.00  0.00    +0.000 C 
ATOM     15  O   UNL     1       1.854  12.525  19.614  0.00  0.00    +0.000 OA
BRANCH  14  16
ATOM     16  O   UNL     1      -0.127  13.121  18.623  0.00  0.00    +0.000 OA
BRANCH  16  18
ATOM     17  C   UNL     1      -0.797  15.147  19.769  0.00  0.00    +0.000 C 
ATOM     18  C   UNL     1       0.165  14.518  18.778  0.00  0.00    +0.000 C 
ENDBRANCH  16  18
ENDBRANCH  14  16
ENDBRANCH   1  14
BRANCH   4  19
ATOM     19  N   UNL     1       1.727   7.917  20.996  0.00  0.00    +0.000 N 
ATOM     20  H   UNL     1       2.630   8.193  21.390  0.00  0.00    +0.000 HD
BRANCH  19  21
ATOM     21  C   UNL     1       1.906   6.786  20.156  0.00  0.00    +0.000 A 
ATOM     22  C   UNL     1       1.542   5.491  20.541  0.00  0.00    +0.000 A 
ATOM     23  C   UNL     1       1.773   4.399  19.702  0.00  0.00    +0.000 A 
ATOM     24  C   UNL     1       2.371   4.574  18.459  0.00  0.00    +0.000 A 
ATOM     25  C   UNL     1       2.776   5.850  18.072  0.00  0.00    +0.000 A 
ATOM     26  C   UNL     1       2.549   6.948  18.917  0.00  0.00    +0.000 A 
BRANCH  24  27
ATOM     27  O   UNL     1       2.553   3.428  17.737  0.00  0.00    +0.000 OA
ATOM     28  C   UNL     1       2.190   2.223  18.399  0.00  0.00    +0.000 C 
ENDBRANCH  24  27
ENDBRANCH  19  21
ENDBRANCH   4  19
TORSDOF 7
ENDMDL
