MODEL 1
REMARK VINA RESULT:      -7.8      0.000      0.000
REMARK  Name = 
REMARK  6 active torsions:
REMARK  status: ('A' for Active; 'I' for Inactive)
REMARK    1  A    between atoms: C_1  and  C_2
REMARK    2  A    between atoms: C_2  and  O_3
REMARK    3  A    between atoms: O_3  and  C_4
REMARK    4  A    between atoms: C_4  and  C_6
REMARK    5  A    between atoms: C_7  and  C_8
REMARK    6  A    between atoms: C_13  and  C_14
REMARK                            x       y       z     vdW  Elec       q    Type
REMARK                         _______ _______ _______ _____ _____    ______ ____
ROOT
ATOM      1  C   UNL     1       3.038   4.481  18.686  0.00  0.00    +0.000 C 
ATOM      2  C   UNL     1       4.017   3.691  18.186  0.00  0.00    +0.000 C 
ATOM      3  C   UNL     1       3.886   2.452  17.341  0.00  0.00    +0.000 C 
ATOM      4  N   UNL     1       5.333   4.006  18.473  0.00  0.00    +0.000 N 
ATOM      5  C   UNL     1       5.749   5.129  19.114  0.00  0.00    +0.000 C 
ATOM      6  S   UNL     1       7.359   5.451  19.347  0.00  0.00    +0.000 S 
ATOM      7  N   UNL     1       4.790   5.990  19.514  0.00  0.00    +0.000 N 
ATOM      8  C   UNL     1       3.368   5.677  19.551  0.00  0.00    +0.000 C 
ATOM      9  H   UNL     1       6.070   3.391  18.144  0.00  0.00    +0.000 HD
ATOM     10  H   UNL     1       5.105   6.833  19.981  0.00  0.00    +0.000 HD
ENDROOT
BRANCH   8  11
ATOM     11  C   UNL     1       2.617   6.965  19.251  0.00  0.00    +0.000 A 
ATOM     12  C   UNL     1       2.727   7.608  18.006  0.00  0.00    +0.000 A 
ATOM     13  C   UNL     1       2.097   8.836  17.785  0.00  0.00    +0.000 A 
ATOM     14  C   UNL     1       1.359   9.434  18.802  0.00  0.00    +0.000 A 
ATOM     15  C   UNL     1       1.205   8.785  20.030  0.00  0.00    +0.000 A 
ATOM     16  C   UNL     1       1.838   7.565  20.256  0.00  0.00    +0.000 A 
ATOM     17  O   UNL     1       0.473   9.296  21.070  0.00  0.00    +0.000 OA
ATOM     18  C   UNL     1      -0.346  10.392  20.649  0.00  0.00    +0.000 C 
ATOM     19  C   UNL     1       0.433  11.332  19.743  0.00  0.00    +0.000 C 
ATOM     20  O   UNL     1       0.815  10.664  18.534  0.00  0.00    +0.000 OA
ENDBRANCH   8  11
BRANCH   1  21
ATOM     21  C   UNL     1       1.603   4.138  18.494  0.00  0.00    +0.000 C 
ATOM     22  O   UNL     1       1.042   4.072  17.409  0.00  0.00    +0.000 OA
BRANCH  21  23
ATOM     23  O   UNL     1       0.990   3.886  19.676  0.00  0.00    +0.000 OA
BRANCH  23  25
ATOM     24  C   UNL     1       1.678   2.719  21.716  0.00  0.00    +0.000 C 
ATOM     25  C   UNL     1       1.286   2.602  20.252  0.00  0.00    +0.000 C 
ENDBRANCH  23  25
ENDBRANCH  21  23
ENDBRANCH   1  21
TORSDOF 4
ENDMDL
MODEL 2
REMARK VINA RESULT:      -7.5      2.703      3.994
REMARK  Name = 
REMARK  6 active torsions:
REMARK  status: ('A' for Active; 'I' for Inactive)
REMARK    1  A    between atoms: C_1  and  C_2
REMARK    2  A    between atoms: C_2  and  O_3
REMARK    3  A    between atoms: O_3  and  C_4
REMARK    4  A    between atoms: C_4  and  C_6
REMARK    5  A    between atoms: C_7  and  C_8
REMARK    6  A    between atoms: C_13  and  C_14
REMARK                            x       y       z     vdW  Elec       q    Type
REMARK                         _______ _______ _______ _____ _____    ______ ____
ROOT
ATOM      1  C   UNL     1       5.294   5.614  17.702  0.00  0.00    +0.000 C 
ATOM      2  C   UNL     1       6.186   4.730  18.205  0.00  0.00    +0.000 C 
ATOM      3  C   UNL     1       7.689   4.744  18.096  0.00  0.00    +0.000 C 
ATOM      4  N   UNL     1       5.711   3.638  18.910  0.00  0.00    +0.000 N 
ATOM      5  C   UNL     1       4.415   3.434  19.260  0.00  0.00    +0.000 C 
ATOM      6  S   UNL     1       3.955   2.125  20.169  0.00  0.00    +0.000 S 
ATOM      7  N   UNL     1       3.526   4.372  18.869  0.00  0.00    +0.000 N 
ATOM      8  C   UNL     1       3.807   5.412  17.889  0.00  0.00    +0.000 C 
ATOM      9  H   UNL     1       6.370   2.945  19.247  0.00  0.00    +0.000 HD
ATOM     10  H   UNL     1       2.561   4.223  19.143  0.00  0.00    +0.000 HD
ENDROOT
BRANCH   8  11
ATOM     11  C   UNL     1       2.997   6.636  18.290  0.00  0.00    +0.000 A 
ATOM     12  C   UNL     1       2.803   7.712  17.408  0.00  0.00    +0.000 A 
ATOM     13  C   UNL     1       2.131   8.863  17.830  0.00  0.00    +0.000 A 
ATOM     14  C   UNL     1       1.651   8.950  19.134  0.00  0.00    +0.000 A 
ATOM     15  C   UNL     1       1.798   7.871  20.007  0.00  0.00    +0.000 A 
ATOM     16  C   UNL     1       2.475   6.726  19.592  0.00  0.00    +0.000 A 
ATOM     17  O   UNL     1       1.329   7.870  21.297  0.00  0.00    +0.000 OA
ATOM     18  C   UNL     1       0.426   8.956  21.528  0.00  0.00    +0.000 C 
ATOM     19  C   UNL     1       0.962  10.244  20.922  0.00  0.00    +0.000 C 
ATOM     20  O   UNL     1       1.050  10.129  19.496  0.00  0.00    +0.000 OA
ENDBRANCH   8  11
BRANCH   1  21
ATOM     21  C   UNL     1       5.739   6.753  16.854  0.00  0.00    +0.000 C 
ATOM     22  O   UNL     1       5.608   6.810  15.639  0.00  0.00    +0.000 OA
BRANCH  21  23
ATOM     23  O   UNL     1       6.298   7.738  17.598  0.00  0.00    +0.000 OA
BRANCH  23  25
ATOM     24  C   UNL     1       8.189   9.238  18.019  0.00  0.00    +0.000 C 
ATOM     25  C   UNL     1       7.699   7.958  17.360  0.00  0.00    +0.000 C 
ENDBRANCH  23  25
ENDBRANCH  21  23
ENDBRANCH   1  21
TORSDOF 4
ENDMDL
MODEL 3
REMARK VINA RESULT:      -7.5      2.641      3.780
REMARK  Name = 
REMARK  6 active torsions:
REMARK  status: ('A' for Active; 'I' for Inactive)
REMARK    1  A    between atoms: C_1  and  C_2
REMARK    2  A    between atoms: C_2  and  O_3
REMARK    3  A    between atoms: O_3  and  C_4
REMARK    4  A    between atoms: C_4  and  C_6
REMARK    5  A    between atoms: C_7  and  C_8
REMARK    6  A    between atoms: C_13  and  C_14
REMARK                            x       y       z     vdW  Elec       q    Type
REMARK                         _______ _______ _______ _____ _____    ______ ____
ROOT
ATOM      1  C   UNL     1       5.316   5.556  17.676  0.00  0.00    +0.000 C 
ATOM      2  C   UNL     1       6.230   4.704  18.196  0.00  0.00    +0.000 C 
ATOM      3  C   UNL     1       7.729   4.726  18.047  0.00  0.00    +0.000 C 
ATOM      4  N   UNL     1       5.784   3.642  18.963  0.00  0.00    +0.000 N 
ATOM      5  C   UNL     1       4.500   3.444  19.356  0.00  0.00    +0.000 C 
ATOM      6  S   UNL     1       4.076   2.175  20.337  0.00  0.00    +0.000 S 
ATOM      7  N   UNL     1       3.592   4.354  18.946  0.00  0.00    +0.000 N 
ATOM      8  C   UNL     1       3.837   5.350  17.912  0.00  0.00    +0.000 C 
ATOM      9  H   UNL     1       6.459   2.971  19.315  0.00  0.00    +0.000 HD
ATOM     10  H   UNL     1       2.636   4.210  19.252  0.00  0.00    +0.000 HD
ENDROOT
BRANCH   8  11
ATOM     11  C   UNL     1       3.025   6.585  18.277  0.00  0.00    +0.000 A 
ATOM     12  C   UNL     1       2.849   7.644  17.371  0.00  0.00    +0.000 A 
ATOM     13  C   UNL     1       2.175   8.805  17.760  0.00  0.00    +0.000 A 
ATOM     14  C   UNL     1       1.676   8.920  19.055  0.00  0.00    +0.000 A 
ATOM     15  C   UNL     1       1.806   7.857  19.952  0.00  0.00    +0.000 A 
ATOM     16  C   UNL     1       2.485   6.702  19.569  0.00  0.00    +0.000 A 
ATOM     17  O   UNL     1       1.319   7.883  21.234  0.00  0.00    +0.000 OA
ATOM     18  C   UNL     1       0.416   8.977  21.431  0.00  0.00    +0.000 C 
ATOM     19  C   UNL     1       0.966  10.250  20.807  0.00  0.00    +0.000 C 
ATOM     20  O   UNL     1       1.075  10.107  19.386  0.00  0.00    +0.000 OA
ENDBRANCH   8  11
BRANCH   1  21
ATOM     21  C   UNL     1       5.728   6.658  16.765  0.00  0.00    +0.000 C 
ATOM     22  O   UNL     1       6.303   7.678  17.119  0.00  0.00    +0.000 OA
BRANCH  21  23
ATOM     23  O   UNL     1       5.403   6.386  15.477  0.00  0.00    +0.000 OA
BRANCH  23  25
ATOM     24  C   UNL     1       5.530   4.239  14.304  0.00  0.00    +0.000 C 
ATOM     25  C   UNL     1       6.280   5.461  14.812  0.00  0.00    +0.000 C 
ENDBRANCH  23  25
ENDBRANCH  21  23
ENDBRANCH   1  21
TORSDOF 4
ENDMDL
MODEL 4
REMARK VINA RESULT:      -7.2      2.759      4.136
REMARK  Name = 
REMARK  6 active torsions:
REMARK  status: ('A' for Active; 'I' for Inactive)
REMARK    1  A    between atoms: C_1  and  C_2
REMARK    2  A    between atoms: C_2  and  O_3
REMARK    3  A    between atoms: O_3  and  C_4
REMARK    4  A    between atoms: C_4  and  C_6
REMARK    5  A    between atoms: C_7  and  C_8
REMARK    6  A    between atoms: C_13  and  C_14
REMARK                            x       y       z     vdW  Elec       q    Type
REMARK                         _______ _______ _______ _____ _____    ______ ____
ROOT
ATOM      1  C   UNL     1       4.821   5.485  17.116  0.00  0.00    +0.000 C 
ATOM      2  C   UNL     1       5.609   4.387  17.193  0.00  0.00    +0.000 C 
ATOM      3  C   UNL     1       7.074   4.254  16.869  0.00  0.00    +0.000 C 
ATOM      4  N   UNL     1       5.041   3.193  17.602  0.00  0.00    +0.000 N 
ATOM      5  C   UNL     1       3.773   3.046  18.066  0.00  0.00    +0.000 C 
ATOM      6  S   UNL     1       3.208   1.581  18.601  0.00  0.00    +0.000 S 
ATOM      7  N   UNL     1       3.010   4.158  18.110  0.00  0.00    +0.000 N 
ATOM      8  C   UNL     1       3.349   5.414  17.455  0.00  0.00    +0.000 C 
ATOM      9  H   UNL     1       5.613   2.355  17.615  0.00  0.00    +0.000 HD
ATOM     10  H   UNL     1       2.068   4.047  18.468  0.00  0.00    +0.000 HD
ENDROOT
BRANCH   8  11
ATOM     11  C   UNL     1       2.793   6.535  18.319  0.00  0.00    +0.000 A 
ATOM     12  C   UNL     1       2.542   6.353  19.690  0.00  0.00    +0.000 A 
ATOM     13  C   UNL     1       1.948   7.369  20.443  0.00  0.00    +0.000 A 
ATOM     14  C   UNL     1       1.596   8.572  19.836  0.00  0.00    +0.000 A 
ATOM     15  C   UNL     1       1.880   8.783  18.485  0.00  0.00    +0.000 A 
ATOM     16  C   UNL     1       2.464   7.769  17.729  0.00  0.00    +0.000 A 
ATOM     17  O   UNL     1       1.590   9.948  17.822  0.00  0.00    +0.000 OA
ATOM     18  C   UNL     1       1.256  11.001  18.733  0.00  0.00    +0.000 C 
ATOM     19  C   UNL     1       0.319  10.499  19.820  0.00  0.00    +0.000 C 
ATOM     20  O   UNL     1       0.968   9.504  20.621  0.00  0.00    +0.000 OA
ENDBRANCH   8  11
BRANCH   1  21
ATOM     21  C   UNL     1       5.352   6.772  16.589  0.00  0.00    +0.000 C 
ATOM     22  O   UNL     1       5.219   7.161  15.437  0.00  0.00    +0.000 OA
BRANCH  21  23
ATOM     23  O   UNL     1       5.992   7.478  17.553  0.00  0.00    +0.000 OA
BRANCH  23  25
ATOM     24  C   UNL     1       7.981   8.887  17.796  0.00  0.00    +0.000 C 
ATOM     25  C   UNL     1       7.423   7.522  17.424  0.00  0.00    +0.000 C 
ENDBRANCH  23  25
ENDBRANCH  21  23
ENDBRANCH   1  21
TORSDOF 4
ENDMDL
MODEL 5
REMARK VINA RESULT:      -7.0      3.602      6.061
REMARK  Name = 
REMARK  6 active torsions:
REMARK  status: ('A' for Active; 'I' for Inactive)
REMARK    1  A    between atoms: C_1  and  C_2
REMARK    2  A    between atoms: C_2  and  O_3
REMARK    3  A    between atoms: O_3  and  C_4
REMARK    4  A    between atoms: C_4  and  C_6
REMARK    5  A    between atoms: C_7  and  C_8
REMARK    6  A    between atoms: C_13  and  C_14
REMARK                            x       y       z     vdW  Elec       q    Type
REMARK                         _______ _______ _______ _____ _____    ______ ____
ROOT
ATOM      1  C   UNL     1       3.230   4.329  19.261  0.00  0.00    +0.000 C 
ATOM      2  C   UNL     1       2.737   4.804  20.428  0.00  0.00    +0.000 C 
ATOM      3  C   UNL     1       2.640   4.110  21.761  0.00  0.00    +0.000 C 
ATOM      4  N   UNL     1       2.225   6.089  20.455  0.00  0.00    +0.000 N 
ATOM      5  C   UNL     1       2.288   6.981  19.433  0.00  0.00    +0.000 C 
ATOM      6  S   UNL     1       1.706   8.526  19.589  0.00  0.00    +0.000 S 
ATOM      7  N   UNL     1       2.887   6.562  18.298  0.00  0.00    +0.000 N 
ATOM      8  C   UNL     1       3.212   5.172  18.006  0.00  0.00    +0.000 C 
ATOM      9  H   UNL     1       1.809   6.435  21.313  0.00  0.00    +0.000 HD
ATOM     10  H   UNL     1       2.944   7.234  17.541  0.00  0.00    +0.000 HD
ENDROOT
BRANCH   8  11
ATOM     11  C   UNL     1       4.481   5.176  17.167  0.00  0.00    +0.000 A 
ATOM     12  C   UNL     1       5.649   5.826  17.601  0.00  0.00    +0.000 A 
ATOM     13  C   UNL     1       6.773   5.890  16.774  0.00  0.00    +0.000 A 
ATOM     14  C   UNL     1       6.741   5.312  15.508  0.00  0.00    +0.000 A 
ATOM     15  C   UNL     1       5.603   4.625  15.081  0.00  0.00    +0.000 A 
ATOM     16  C   UNL     1       4.477   4.566  15.900  0.00  0.00    +0.000 A 
ATOM     17  O   UNL     1       5.504   4.007  13.861  0.00  0.00    +0.000 OA
ATOM     18  C   UNL     1       6.781   3.889  13.226  0.00  0.00    +0.000 C 
ATOM     19  C   UNL     1       7.570   5.183  13.353  0.00  0.00    +0.000 C 
ATOM     20  O   UNL     1       7.860   5.461  14.729  0.00  0.00    +0.000 OA
ENDBRANCH   8  11
BRANCH   1  21
ATOM     21  C   UNL     1       3.704   2.923  19.146  0.00  0.00    +0.000 C 
ATOM     22  O   UNL     1       4.731   2.490  19.650  0.00  0.00    +0.000 OA
BRANCH  21  23
ATOM     23  O   UNL     1       2.844   2.166  18.422  0.00  0.00    +0.000 OA
BRANCH  23  25
ATOM     24  C   UNL     1       0.431   2.488  18.699  0.00  0.00    +0.000 C 
ATOM     25  C   UNL     1       1.674   1.727  19.134  0.00  0.00    +0.000 C 
ENDBRANCH  23  25
ENDBRANCH  21  23
ENDBRANCH   1  21
TORSDOF 4
ENDMDL
MODEL 6
REMARK VINA RESULT:      -6.9      0.988      1.684
REMARK  Name = 
REMARK  6 active torsions:
REMARK  status: ('A' for Active; 'I' for Inactive)
REMARK    1  A    between atoms: C_1  and  C_2
REMARK    2  A    between atoms: C_2  and  O_3
REMARK    3  A    between atoms: O_3  and  C_4
REMARK    4  A    between atoms: C_4  and  C_6
REMARK    5  A    between atoms: C_7  and  C_8
REMARK    6  A    between atoms: C_13  and  C_14
REMARK                            x       y       z     vdW  Elec       q    Type
REMARK                         _______ _______ _______ _____ _____    ______ ____
ROOT
ATOM      1  C   UNL     1       3.399   4.322  18.286  0.00  0.00    +0.000 C 
ATOM      2  C   UNL     1       4.380   3.852  17.480  0.00  0.00    +0.000 C 
ATOM      3  C   UNL     1       4.262   2.942  16.286  0.00  0.00    +0.000 C 
ATOM      4  N   UNL     1       5.688   4.211  17.753  0.00  0.00    +0.000 N 
ATOM      5  C   UNL     1       6.075   5.111  18.694  0.00  0.00    +0.000 C 
ATOM      6  S   UNL     1       7.668   5.527  18.896  0.00  0.00    +0.000 S 
ATOM      7  N   UNL     1       5.096   5.681  19.427  0.00  0.00    +0.000 N 
ATOM      8  C   UNL     1       3.719   5.208  19.469  0.00  0.00    +0.000 C 
ATOM      9  H   UNL     1       6.434   3.824  17.184  0.00  0.00    +0.000 HD
ATOM     10  H   UNL     1       5.387   6.361  20.120  0.00  0.00    +0.000 HD
ENDROOT
BRANCH   8  11
ATOM     11  C   UNL     1       2.832   6.428  19.668  0.00  0.00    +0.000 A 
ATOM     12  C   UNL     1       1.989   6.551  20.785  0.00  0.00    +0.000 A 
ATOM     13  C   UNL     1       1.119   7.639  20.900  0.00  0.00    +0.000 A 
ATOM     14  C   UNL     1       1.079   8.608  19.901  0.00  0.00    +0.000 A 
ATOM     15  C   UNL     1       1.942   8.521  18.807  0.00  0.00    +0.000 A 
ATOM     16  C   UNL     1       2.805   7.434  18.685  0.00  0.00    +0.000 A 
ATOM     17  O   UNL     1       1.981   9.448  17.797  0.00  0.00    +0.000 OA
ATOM     18  C   UNL     1       1.272  10.640  18.151  0.00  0.00    +0.000 C 
ATOM     19  C   UNL     1      -0.054  10.304  18.813  0.00  0.00    +0.000 C 
ATOM     20  O   UNL     1       0.163   9.617  20.052  0.00  0.00    +0.000 OA
ENDBRANCH   8  11
BRANCH   1  21
ATOM     21  C   UNL     1       1.986   3.892  18.102  0.00  0.00    +0.000 C 
ATOM     22  O   UNL     1       1.192   4.419  17.335  0.00  0.00    +0.000 OA
BRANCH  21  23
ATOM     23  O   UNL     1       1.685   2.825  18.881  0.00  0.00    +0.000 OA
BRANCH  23  25
ATOM     24  C   UNL     1       1.454   2.870  21.319  0.00  0.00    +0.000 C 
ATOM     25  C   UNL     1       0.790   3.102  19.971  0.00  0.00    +0.000 C 
ENDBRANCH  23  25
ENDBRANCH  21  23
ENDBRANCH   1  21
TORSDOF 4
ENDMDL
MODEL 7
REMARK VINA RESULT:      -6.9      2.615      3.966
REMARK  Name = 
REMARK  6 active torsions:
REMARK  status: ('A' for Active; 'I' for Inactive)
REMARK    1  A    between atoms: C_1  and  C_2
REMARK    2  A    between atoms: C_2  and  O_3
REMARK    3  A    between atoms: O_3  and  C_4
REMARK    4  A    between atoms: C_4  and  C_6
REMARK    5  A    between atoms: C_7  and  C_8
REMARK    6  A    between atoms: C_13  and  C_14
REMARK                            x       y       z     vdW  Elec       q    Type
REMARK                         _______ _______ _______ _____ _____    ______ ____
ROOT
ATOM      1  C   UNL     1       5.265   5.509  17.782  0.00  0.00    +0.000 C 
ATOM      2  C   UNL     1       6.202   4.603  18.145  0.00  0.00    +0.000 C 
ATOM      3  C   UNL     1       7.679   4.606  17.851  0.00  0.00    +0.000 C 
ATOM      4  N   UNL     1       5.804   3.494  18.871  0.00  0.00    +0.000 N 
ATOM      5  C   UNL     1       4.559   3.291  19.374  0.00  0.00    +0.000 C 
ATOM      6  S   UNL     1       4.199   1.960  20.295  0.00  0.00    +0.000 S 
ATOM      7  N   UNL     1       3.640   4.247  19.123  0.00  0.00    +0.000 N 
ATOM      8  C   UNL     1       3.810   5.314  18.146  0.00  0.00    +0.000 C 
ATOM      9  H   UNL     1       6.492   2.786  19.105  0.00  0.00    +0.000 HD
ATOM     10  H   UNL     1       2.715   4.099  19.510  0.00  0.00    +0.000 HD
ENDROOT
BRANCH   8  11
ATOM     11  C   UNL     1       3.071   6.532  18.679  0.00  0.00    +0.000 A 
ATOM     12  C   UNL     1       2.494   6.541  19.960  0.00  0.00    +0.000 A 
ATOM     13  C   UNL     1       1.745   7.638  20.393  0.00  0.00    +0.000 A 
ATOM     14  C   UNL     1       1.561   8.733  19.551  0.00  0.00    +0.000 A 
ATOM     15  C   UNL     1       2.166   8.756  18.292  0.00  0.00    +0.000 A 
ATOM     16  C   UNL     1       2.906   7.660  17.855  0.00  0.00    +0.000 A 
ATOM     17  O   UNL     1       2.054   9.806  17.418  0.00  0.00    +0.000 OA
ATOM     18  C   UNL     1       1.520  10.969  18.058  0.00  0.00    +0.000 C 
ATOM     19  C   UNL     1       0.343  10.603  18.949  0.00  0.00    +0.000 C 
ATOM     20  O   UNL     1       0.770   9.750  20.019  0.00  0.00    +0.000 OA
ENDBRANCH   8  11
BRANCH   1  21
ATOM     21  C   UNL     1       5.616   6.669  16.918  0.00  0.00    +0.000 C 
ATOM     22  O   UNL     1       6.208   7.669  17.300  0.00  0.00    +0.000 OA
BRANCH  21  23
ATOM     23  O   UNL     1       5.213   6.476  15.639  0.00  0.00    +0.000 OA
BRANCH  23  25
ATOM     24  C   UNL     1       5.504   4.353  14.450  0.00  0.00    +0.000 C 
ATOM     25  C   UNL     1       6.110   5.695  14.830  0.00  0.00    +0.000 C 
ENDBRANCH  23  25
ENDBRANCH  21  23
ENDBRANCH   1  21
TORSDOF 4
ENDMDL
MODEL 8
REMARK VINA RESULT:      -6.7      1.139      1.701
REMARK  Name = 
REMARK  6 active torsions:
REMARK  status: ('A' for Active; 'I' for Inactive)
REMARK    1  A    between atoms: C_1  and  C_2
REMARK    2  A    between atoms: C_2  and  O_3
REMARK    3  A    between atoms: O_3  and  C_4
REMARK    4  A    between atoms: C_4  and  C_6
REMARK    5  A    between atoms: C_7  and  C_8
REMARK    6  A    between atoms: C_13  and  C_14
REMARK                            x       y       z     vdW  Elec       q    Type
REMARK                         _______ _______ _______ _____ _____    ______ ____
ROOT
ATOM      1  C   UNL     1       3.509   4.173  19.788  0.00  0.00    +0.000 C 
ATOM      2  C   UNL     1       4.192   3.125  19.270  0.00  0.00    +0.000 C 
ATOM      3  C   UNL     1       3.816   1.667  19.265  0.00  0.00    +0.000 C 
ATOM      4  N   UNL     1       5.414   3.365  18.667  0.00  0.00    +0.000 N 
ATOM      5  C   UNL     1       5.943   4.593  18.428  0.00  0.00    +0.000 C 
ATOM      6  S   UNL     1       7.387   4.778  17.632  0.00  0.00    +0.000 S 
ATOM      7  N   UNL     1       5.216   5.656  18.831  0.00  0.00    +0.000 N 
ATOM      8  C   UNL     1       4.069   5.576  19.725  0.00  0.00    +0.000 C 
ATOM      9  H   UNL     1       5.955   2.580  18.321  0.00  0.00    +0.000 HD
ATOM     10  H   UNL     1       5.608   6.571  18.639  0.00  0.00    +0.000 HD
ENDROOT
BRANCH   8  11
ATOM     11  C   UNL     1       3.104   6.679  19.317  0.00  0.00    +0.000 A 
ATOM     12  C   UNL     1       3.034   7.143  17.992  0.00  0.00    +0.000 A 
ATOM     13  C   UNL     1       2.203   8.217  17.661  0.00  0.00    +0.000 A 
ATOM     14  C   UNL     1       1.441   8.838  18.646  0.00  0.00    +0.000 A 
ATOM     15  C   UNL     1       1.468   8.359  19.958  0.00  0.00    +0.000 A 
ATOM     16  C   UNL     1       2.301   7.295  20.293  0.00  0.00    +0.000 A 
ATOM     17  O   UNL     1       0.727   8.900  20.977  0.00  0.00    +0.000 OA
ATOM     18  C   UNL     1      -0.282   9.787  20.481  0.00  0.00    +0.000 C 
ATOM     19  C   UNL     1       0.281  10.692  19.397  0.00  0.00    +0.000 C 
ATOM     20  O   UNL     1       0.691   9.920  18.261  0.00  0.00    +0.000 OA
ENDBRANCH   8  11
BRANCH   1  21
ATOM     21  C   UNL     1       2.238   3.965  20.534  0.00  0.00    +0.000 C 
ATOM     22  O   UNL     1       2.166   3.624  21.706  0.00  0.00    +0.000 OA
BRANCH  21  23
ATOM     23  O   UNL     1       1.158   4.217  19.755  0.00  0.00    +0.000 OA
BRANCH  23  25
ATOM     24  C   UNL     1       1.224   4.076  17.310  0.00  0.00    +0.000 C 
ATOM     25  C   UNL     1       1.007   3.342  18.624  0.00  0.00    +0.000 C 
ENDBRANCH  23  25
ENDBRANCH  21  23
ENDBRANCH   1  21
TORSDOF 4
ENDMDL
MODEL 9
REMARK VINA RESULT:      -6.6      3.663      5.767
REMARK  Name = 
REMARK  6 active torsions:
REMARK  status: ('A' for Active; 'I' for Inactive)
REMARK    1  A    between atoms: C_1  and  C_2
REMARK    2  A    between atoms: C_2  and  O_3
REMARK    3  A    between atoms: O_3  and  C_4
REMARK    4  A    between atoms: C_4  and  C_6
REMARK    5  A    between atoms: C_7  and  C_8
REMARK    6  A    between atoms: C_13  and  C_14
REMARK                            x       y       z     vdW  Elec       q    Type
REMARK                         _______ _______ _______ _____ _____    ______ ____
ROOT
ATOM      1  C   UNL     1       2.193   3.956  19.059  0.00  0.00    +0.000 C 
ATOM      2  C   UNL     1       1.630   4.047  20.286  0.00  0.00    +0.000 C 
ATOM      3  C   UNL     1       1.166   2.938  21.194  0.00  0.00    +0.000 C 
ATOM      4  N   UNL     1       1.410   5.304  20.821  0.00  0.00    +0.000 N 
ATOM      5  C   UNL     1       1.831   6.474  20.275  0.00  0.00    +0.000 C 
ATOM      6  S   UNL     1       1.579   7.928  21.033  0.00  0.00    +0.000 S 
ATOM      7  N   UNL     1       2.504   6.391  19.108  0.00  0.00    +0.000 N 
ATOM      8  C   UNL     1       2.565   5.196  18.278  0.00  0.00    +0.000 C 
ATOM      9  H   UNL     1       0.942   5.382  21.718  0.00  0.00    +0.000 HD
ATOM     10  H   UNL     1       2.828   7.265  18.710  0.00  0.00    +0.000 HD
ENDROOT
BRANCH   8  11
ATOM     11  C   UNL     1       3.925   5.192  17.597  0.00  0.00    +0.000 A 
ATOM     12  C   UNL     1       5.051   5.780  18.198  0.00  0.00    +0.000 A 
ATOM     13  C   UNL     1       6.269   5.841  17.515  0.00  0.00    +0.000 A 
ATOM     14  C   UNL     1       6.372   5.323  16.226  0.00  0.00    +0.000 A 
ATOM     15  C   UNL     1       5.272   4.697  15.634  0.00  0.00    +0.000 A 
ATOM     16  C   UNL     1       4.055   4.641  16.310  0.00  0.00    +0.000 A 
ATOM     17  O   UNL     1       5.302   4.139  14.381  0.00  0.00    +0.000 OA
ATOM     18  C   UNL     1       6.643   4.005  13.898  0.00  0.00    +0.000 C 
ATOM     19  C   UNL     1       7.448   5.262  14.181  0.00  0.00    +0.000 C 
ATOM     20  O   UNL     1       7.580   5.467  15.594  0.00  0.00    +0.000 OA
ENDBRANCH   8  11
BRANCH   1  21
ATOM     21  C   UNL     1       2.365   2.637  18.391  0.00  0.00    +0.000 C 
ATOM     22  O   UNL     1       1.945   2.361  17.276  0.00  0.00    +0.000 OA
BRANCH  21  23
ATOM     23  O   UNL     1       3.063   1.773  19.168  0.00  0.00    +0.000 OA
BRANCH  23  25
ATOM     24  C   UNL     1       4.861   1.742  20.832  0.00  0.00    +0.000 C 
ATOM     25  C   UNL     1       4.421   2.161  19.438  0.00  0.00    +0.000 C 
ENDBRANCH  23  25
ENDBRANCH  21  23
ENDBRANCH   1  21
TORSDOF 4
ENDMDL
