MODEL 1
REMARK VINA RESULT:      -6.4      0.000      0.000
REMARK  Name = 
REMARK  7 active torsions:
REMARK  status: ('A' for Active; 'I' for Inactive)
REMARK    1  A    between atoms: C_1  and  O_2
REMARK    2  A    between atoms: O_2  and  C_3
REMARK    3  A    between atoms: C_3  and  C_5
REMARK    4  A    between atoms: C_5  and  S_6
REMARK    5  A    between atoms: S_6  and  C_7
REMARK    6  A    between atoms: C_13  and  C_14
REMARK    7  A    between atoms: C_15  and  C_16
REMARK                            x       y       z     vdW  Elec       q    Type
REMARK                         _______ _______ _______ _____ _____    ______ ____
ROOT
ATOM      1  C   UNL     1       4.131   5.214  17.599  0.00  0.00    +0.000 A 
ATOM      2  N   UNL     1       4.116   6.491  17.162  0.00  0.00    +0.000 NA
ATOM      3  C   UNL     1       3.365   7.375  17.830  0.00  0.00    +0.000 A 
ATOM      4  N   UNL     1       2.616   7.148  18.905  0.00  0.00    +0.000 NA
ATOM      5  C   UNL     1       2.663   5.869  19.313  0.00  0.00    +0.000 A 
ATOM      6  S   UNL     1       1.758   5.383  20.664  0.00  0.00    +0.000 S 
ATOM      7  C   UNL     1       2.305   3.773  20.545  0.00  0.00    +0.000 A 
ATOM      8  C   UNL     1       1.826   2.763  21.539  0.00  0.00    +0.000 C 
ATOM      9  C   UNL     1       3.181   3.592  19.481  0.00  0.00    +0.000 A 
ATOM     10  C   UNL     1       3.826   2.277  19.160  0.00  0.00    +0.000 C 
ATOM     11  C   UNL     1       3.388   4.834  18.737  0.00  0.00    +0.000 A 
ENDROOT
BRANCH   1  12
ATOM     12  S   UNL     1       5.024   4.016  16.653  0.00  0.00    +0.000 S 
BRANCH  12  13
ATOM     13  C   UNL     1       6.591   4.896  16.343  0.00  0.00    +0.000 C 
BRANCH  13  14
ATOM     14  C   UNL     1       6.987   4.741  14.888  0.00  0.00    +0.000 C 
ATOM     15  O   UNL     1       7.749   5.470  14.266  0.00  0.00    +0.000 OA
BRANCH  14  17
ATOM     16  C   UNL     1       6.286   3.713  12.904  0.00  0.00    +0.000 C 
ATOM     17  O   UNL     1       6.325   3.679  14.333  0.00  0.00    +0.000 OA
ENDBRANCH  14  17
ENDBRANCH  13  14
ENDBRANCH  12  13
ENDBRANCH   1  12
TORSDOF 4
ENDMDL
MODEL 2
REMARK VINA RESULT:      -6.4      2.085      3.431
REMARK  Name = 
REMARK  7 active torsions:
REMARK  status: ('A' for Active; 'I' for Inactive)
REMARK    1  A    between atoms: C_1  and  O_2
REMARK    2  A    between atoms: O_2  and  C_3
REMARK    3  A    between atoms: C_3  and  C_5
REMARK    4  A    between atoms: C_5  and  S_6
REMARK    5  A    between atoms: S_6  and  C_7
REMARK    6  A    between atoms: C_13  and  C_14
REMARK    7  A    between atoms: C_15  and  C_16
REMARK                            x       y       z     vdW  Elec       q    Type
REMARK                         _______ _______ _______ _____ _____    ______ ____
ROOT
ATOM      1  C   UNL     1       3.834   3.668  17.549  0.00  0.00    +0.000 A 
ATOM      2  N   UNL     1       3.795   2.329  17.716  0.00  0.00    +0.000 NA
ATOM      3  C   UNL     1       3.152   1.848  18.787  0.00  0.00    +0.000 A 
ATOM      4  N   UNL     1       2.526   2.543  19.732  0.00  0.00    +0.000 NA
ATOM      5  C   UNL     1       2.581   3.870  19.527  0.00  0.00    +0.000 A 
ATOM      6  S   UNL     1       1.849   4.923  20.638  0.00  0.00    +0.000 S 
ATOM      7  C   UNL     1       2.318   6.302  19.752  0.00  0.00    +0.000 A 
ATOM      8  C   UNL     1       1.938   7.658  20.256  0.00  0.00    +0.000 C 
ATOM      9  C   UNL     1       3.031   5.973  18.605  0.00  0.00    +0.000 A 
ATOM     10  C   UNL     1       3.546   6.994  17.634  0.00  0.00    +0.000 C 
ATOM     11  C   UNL     1       3.201   4.527  18.473  0.00  0.00    +0.000 A 
ENDROOT
BRANCH   1  12
ATOM     12  S   UNL     1       4.780   4.316  16.204  0.00  0.00    +0.000 S 
BRANCH  12  13
ATOM     13  C   UNL     1       6.375   4.663  17.017  0.00  0.00    +0.000 C 
BRANCH  13  14
ATOM     14  C   UNL     1       7.226   5.546  16.126  0.00  0.00    +0.000 C 
ATOM     15  O   UNL     1       7.540   5.312  14.967  0.00  0.00    +0.000 OA
BRANCH  14  17
ATOM     16  C   UNL     1       7.538   6.498  18.243  0.00  0.00    +0.000 C 
ATOM     17  O   UNL     1       7.649   6.645  16.824  0.00  0.00    +0.000 OA
ENDBRANCH  14  17
ENDBRANCH  13  14
ENDBRANCH  12  13
ENDBRANCH   1  12
TORSDOF 4
ENDMDL
MODEL 3
REMARK VINA RESULT:      -6.3      0.956      1.583
REMARK  Name = 
REMARK  7 active torsions:
REMARK  status: ('A' for Active; 'I' for Inactive)
REMARK    1  A    between atoms: C_1  and  O_2
REMARK    2  A    between atoms: O_2  and  C_3
REMARK    3  A    between atoms: C_3  and  C_5
REMARK    4  A    between atoms: C_5  and  S_6
REMARK    5  A    between atoms: S_6  and  C_7
REMARK    6  A    between atoms: C_13  and  C_14
REMARK    7  A    between atoms: C_15  and  C_16
REMARK                            x       y       z     vdW  Elec       q    Type
REMARK                         _______ _______ _______ _____ _____    ______ ____
ROOT
ATOM      1  C   UNL     1       4.015   5.166  17.706  0.00  0.00    +0.000 A 
ATOM      2  N   UNL     1       3.991   6.450  17.290  0.00  0.00    +0.000 NA
ATOM      3  C   UNL     1       3.233   7.317  17.972  0.00  0.00    +0.000 A 
ATOM      4  N   UNL     1       2.484   7.066  19.041  0.00  0.00    +0.000 NA
ATOM      5  C   UNL     1       2.540   5.781  19.428  0.00  0.00    +0.000 A 
ATOM      6  S   UNL     1       1.636   5.266  20.770  0.00  0.00    +0.000 S 
ATOM      7  C   UNL     1       2.195   3.662  20.624  0.00  0.00    +0.000 A 
ATOM      8  C   UNL     1       1.721   2.632  21.599  0.00  0.00    +0.000 C 
ATOM      9  C   UNL     1       3.074   3.505  19.558  0.00  0.00    +0.000 A 
ATOM     10  C   UNL     1       3.729   2.201  19.216  0.00  0.00    +0.000 C 
ATOM     11  C   UNL     1       3.273   4.761  18.836  0.00  0.00    +0.000 A 
ENDROOT
BRANCH   1  12
ATOM     12  S   UNL     1       4.918   3.990  16.741  0.00  0.00    +0.000 S 
BRANCH  12  13
ATOM     13  C   UNL     1       5.493   5.026  15.355  0.00  0.00    +0.000 C 
BRANCH  13  14
ATOM     14  C   UNL     1       6.984   5.273  15.481  0.00  0.00    +0.000 C 
ATOM     15  O   UNL     1       7.779   5.375  14.557  0.00  0.00    +0.000 OA
BRANCH  14  17
ATOM     16  C   UNL     1       7.478   6.648  17.312  0.00  0.00    +0.000 C 
ATOM     17  O   UNL     1       7.339   5.318  16.803  0.00  0.00    +0.000 OA
ENDBRANCH  14  17
ENDBRANCH  13  14
ENDBRANCH  12  13
ENDBRANCH   1  12
TORSDOF 4
ENDMDL
MODEL 4
REMARK VINA RESULT:      -6.3      2.086      2.572
REMARK  Name = 
REMARK  7 active torsions:
REMARK  status: ('A' for Active; 'I' for Inactive)
REMARK    1  A    between atoms: C_1  and  O_2
REMARK    2  A    between atoms: O_2  and  C_3
REMARK    3  A    between atoms: C_3  and  C_5
REMARK    4  A    between atoms: C_5  and  S_6
REMARK    5  A    between atoms: S_6  and  C_7
REMARK    6  A    between atoms: C_13  and  C_14
REMARK    7  A    between atoms: C_15  and  C_16
REMARK                            x       y       z     vdW  Elec       q    Type
REMARK                         _______ _______ _______ _____ _____    ______ ____
ROOT
ATOM      1  C   UNL     1       4.263   5.786  17.710  0.00  0.00    +0.000 A 
ATOM      2  N   UNL     1       4.055   7.039  17.253  0.00  0.00    +0.000 NA
ATOM      3  C   UNL     1       3.132   7.788  17.870  0.00  0.00    +0.000 A 
ATOM      4  N   UNL     1       2.376   7.444  18.908  0.00  0.00    +0.000 NA
ATOM      5  C   UNL     1       2.617   6.194  19.337  0.00  0.00    +0.000 A 
ATOM      6  S   UNL     1       1.737   5.570  20.648  0.00  0.00    +0.000 S 
ATOM      7  C   UNL     1       2.553   4.075  20.580  0.00  0.00    +0.000 A 
ATOM      8  C   UNL     1       2.200   3.005  21.563  0.00  0.00    +0.000 C 
ATOM      9  C   UNL     1       3.502   4.039  19.565  0.00  0.00    +0.000 A 
ATOM     10  C   UNL     1       4.376   2.850  19.296  0.00  0.00    +0.000 C 
ATOM     11  C   UNL     1       3.536   5.293  18.814  0.00  0.00    +0.000 A 
ENDROOT
BRANCH   1  12
ATOM     12  S   UNL     1       5.393   4.751  16.828  0.00  0.00    +0.000 S 
BRANCH  12  13
ATOM     13  C   UNL     1       6.902   5.775  16.835  0.00  0.00    +0.000 C 
BRANCH  13  14
ATOM     14  C   UNL     1       7.561   5.710  18.198  0.00  0.00    +0.000 C 
ATOM     15  O   UNL     1       7.641   4.722  18.915  0.00  0.00    +0.000 OA
BRANCH  14  17
ATOM     16  C   UNL     1       7.723   7.967  17.593  0.00  0.00    +0.000 C 
ATOM     17  O   UNL     1       8.025   6.949  18.552  0.00  0.00    +0.000 OA
ENDBRANCH  14  17
ENDBRANCH  13  14
ENDBRANCH  12  13
ENDBRANCH   1  12
TORSDOF 4
ENDMDL
MODEL 5
REMARK VINA RESULT:      -6.3      1.734      2.350
REMARK  Name = 
REMARK  7 active torsions:
REMARK  status: ('A' for Active; 'I' for Inactive)
REMARK    1  A    between atoms: C_1  and  O_2
REMARK    2  A    between atoms: O_2  and  C_3
REMARK    3  A    between atoms: C_3  and  C_5
REMARK    4  A    between atoms: C_5  and  S_6
REMARK    5  A    between atoms: S_6  and  C_7
REMARK    6  A    between atoms: C_13  and  C_14
REMARK    7  A    between atoms: C_15  and  C_16
REMARK                            x       y       z     vdW  Elec       q    Type
REMARK                         _______ _______ _______ _____ _____    ______ ____
ROOT
ATOM      1  C   UNL     1       4.167   5.542  17.660  0.00  0.00    +0.000 A 
ATOM      2  N   UNL     1       4.021   6.816  17.237  0.00  0.00    +0.000 NA
ATOM      3  C   UNL     1       3.174   7.607  17.907  0.00  0.00    +0.000 A 
ATOM      4  N   UNL     1       2.442   7.288  18.970  0.00  0.00    +0.000 NA
ATOM      5  C   UNL     1       2.620   6.016  19.364  0.00  0.00    +0.000 A 
ATOM      6  S   UNL     1       1.758   5.419  20.699  0.00  0.00    +0.000 S 
ATOM      7  C   UNL     1       2.473   3.878  20.566  0.00  0.00    +0.000 A 
ATOM      8  C   UNL     1       2.094   2.810  21.542  0.00  0.00    +0.000 C 
ATOM      9  C   UNL     1       3.375   3.805  19.511  0.00  0.00    +0.000 A 
ATOM     10  C   UNL     1       4.159   2.570  19.181  0.00  0.00    +0.000 C 
ATOM     11  C   UNL     1       3.457   5.071  18.784  0.00  0.00    +0.000 A 
ENDROOT
BRANCH   1  12
ATOM     12  S   UNL     1       5.191   4.458  16.710  0.00  0.00    +0.000 S 
BRANCH  12  13
ATOM     13  C   UNL     1       6.785   4.609  17.583  0.00  0.00    +0.000 C 
BRANCH  13  14
ATOM     14  C   UNL     1       7.392   5.972  17.315  0.00  0.00    +0.000 C 
ATOM     15  O   UNL     1       7.459   6.530  16.228  0.00  0.00    +0.000 OA
BRANCH  14  17
ATOM     16  C   UNL     1       7.623   5.699  19.629  0.00  0.00    +0.000 C 
ATOM     17  O   UNL     1       7.912   6.488  18.471  0.00  0.00    +0.000 OA
ENDBRANCH  14  17
ENDBRANCH  13  14
ENDBRANCH  12  13
ENDBRANCH   1  12
TORSDOF 4
ENDMDL
MODEL 6
REMARK VINA RESULT:      -6.1      1.621      2.845
REMARK  Name = 
REMARK  7 active torsions:
REMARK  status: ('A' for Active; 'I' for Inactive)
REMARK    1  A    between atoms: C_1  and  O_2
REMARK    2  A    between atoms: O_2  and  C_3
REMARK    3  A    between atoms: C_3  and  C_5
REMARK    4  A    between atoms: C_5  and  S_6
REMARK    5  A    between atoms: S_6  and  C_7
REMARK    6  A    between atoms: C_13  and  C_14
REMARK    7  A    between atoms: C_15  and  C_16
REMARK                            x       y       z     vdW  Elec       q    Type
REMARK                         _______ _______ _______ _____ _____    ______ ____
ROOT
ATOM      1  C   UNL     1       4.085   4.474  17.574  0.00  0.00    +0.000 A 
ATOM      2  N   UNL     1       4.262   3.138  17.640  0.00  0.00    +0.000 NA
ATOM      3  C   UNL     1       3.701   2.479  18.661  0.00  0.00    +0.000 A 
ATOM      4  N   UNL     1       2.966   2.990  19.644  0.00  0.00    +0.000 NA
ATOM      5  C   UNL     1       2.806   4.320  19.539  0.00  0.00    +0.000 A 
ATOM      6  S   UNL     1       1.908   5.155  20.713  0.00  0.00    +0.000 S 
ATOM      7  C   UNL     1       2.151   6.654  19.940  0.00  0.00    +0.000 A 
ATOM      8  C   UNL     1       1.555   7.889  20.537  0.00  0.00    +0.000 C 
ATOM      9  C   UNL     1       2.914   6.533  18.784  0.00  0.00    +0.000 A 
ATOM     10  C   UNL     1       3.262   7.694  17.901  0.00  0.00    +0.000 C 
ATOM     11  C   UNL     1       3.316   5.147  18.548  0.00  0.00    +0.000 A 
ENDROOT
BRANCH   1  12
ATOM     12  S   UNL     1       4.920   5.367  16.296  0.00  0.00    +0.000 S 
BRANCH  12  13
ATOM     13  C   UNL     1       6.350   4.282  15.973  0.00  0.00    +0.000 C 
BRANCH  13  14
ATOM     14  C   UNL     1       6.849   4.498  14.558  0.00  0.00    +0.000 C 
ATOM     15  O   UNL     1       7.680   5.324  14.204  0.00  0.00    +0.000 OA
BRANCH  14  17
ATOM     16  C   UNL     1       6.607   3.799  12.336  0.00  0.00    +0.000 C 
ATOM     17  O   UNL     1       6.194   3.658  13.698  0.00  0.00    +0.000 OA
ENDBRANCH  14  17
ENDBRANCH  13  14
ENDBRANCH  12  13
ENDBRANCH   1  12
TORSDOF 4
ENDMDL
MODEL 7
REMARK VINA RESULT:      -6.1      1.792      2.383
REMARK  Name = 
REMARK  7 active torsions:
REMARK  status: ('A' for Active; 'I' for Inactive)
REMARK    1  A    between atoms: C_1  and  O_2
REMARK    2  A    between atoms: O_2  and  C_3
REMARK    3  A    between atoms: C_3  and  C_5
REMARK    4  A    between atoms: C_5  and  S_6
REMARK    5  A    between atoms: S_6  and  C_7
REMARK    6  A    between atoms: C_13  and  C_14
REMARK    7  A    between atoms: C_15  and  C_16
REMARK                            x       y       z     vdW  Elec       q    Type
REMARK                         _______ _______ _______ _____ _____    ______ ____
ROOT
ATOM      1  C   UNL     1       3.838   6.409  17.710  0.00  0.00    +0.000 A 
ATOM      2  N   UNL     1       3.459   7.686  17.491  0.00  0.00    +0.000 NA
ATOM      3  C   UNL     1       2.554   8.223  18.318  0.00  0.00    +0.000 A 
ATOM      4  N   UNL     1       1.968   7.641  19.360  0.00  0.00    +0.000 NA
ATOM      5  C   UNL     1       2.376   6.375  19.549  0.00  0.00    +0.000 A 
ATOM      6  S   UNL     1       1.727   5.463  20.825  0.00  0.00    +0.000 S 
ATOM      7  C   UNL     1       2.665   4.097  20.425  0.00  0.00    +0.000 A 
ATOM      8  C   UNL     1       2.537   2.856  21.249  0.00  0.00    +0.000 C 
ATOM      9  C   UNL     1       3.480   4.324  19.322  0.00  0.00    +0.000 A 
ATOM     10  C   UNL     1       4.421   3.296  18.768  0.00  0.00    +0.000 C 
ATOM     11  C   UNL     1       3.303   5.674  18.789  0.00  0.00    +0.000 A 
ENDROOT
BRANCH   1  12
ATOM     12  S   UNL     1       4.943   5.654  16.553  0.00  0.00    +0.000 S 
BRANCH  12  13
ATOM     13  C   UNL     1       6.564   6.151  17.225  0.00  0.00    +0.000 C 
BRANCH  13  14
ATOM     14  C   UNL     1       7.488   4.949  17.279  0.00  0.00    +0.000 C 
ATOM     15  O   UNL     1       7.929   4.335  16.317  0.00  0.00    +0.000 OA
BRANCH  14  17
ATOM     16  C   UNL     1       7.495   5.670  19.508  0.00  0.00    +0.000 C 
ATOM     17  O   UNL     1       7.730   4.605  18.582  0.00  0.00    +0.000 OA
ENDBRANCH  14  17
ENDBRANCH  13  14
ENDBRANCH  12  13
ENDBRANCH   1  12
TORSDOF 4
ENDMDL
MODEL 8
REMARK VINA RESULT:      -6.1      1.899      3.066
REMARK  Name = 
REMARK  7 active torsions:
REMARK  status: ('A' for Active; 'I' for Inactive)
REMARK    1  A    between atoms: C_1  and  O_2
REMARK    2  A    between atoms: O_2  and  C_3
REMARK    3  A    between atoms: C_3  and  C_5
REMARK    4  A    between atoms: C_5  and  S_6
REMARK    5  A    between atoms: S_6  and  C_7
REMARK    6  A    between atoms: C_13  and  C_14
REMARK    7  A    between atoms: C_15  and  C_16
REMARK                            x       y       z     vdW  Elec       q    Type
REMARK                         _______ _______ _______ _____ _____    ______ ____
ROOT
ATOM      1  C   UNL     1       3.754   4.032  17.575  0.00  0.00    +0.000 A 
ATOM      2  N   UNL     1       3.844   2.688  17.653  0.00  0.00    +0.000 NA
ATOM      3  C   UNL     1       3.308   2.083  18.720  0.00  0.00    +0.000 A 
ATOM      4  N   UNL     1       2.675   2.656  19.739  0.00  0.00    +0.000 NA
ATOM      5  C   UNL     1       2.599   3.992  19.622  0.00  0.00    +0.000 A 
ATOM      6  S   UNL     1       1.838   4.902  20.836  0.00  0.00    +0.000 S 
ATOM      7  C   UNL     1       2.131   6.371  20.022  0.00  0.00    +0.000 A 
ATOM      8  C   UNL     1       1.660   7.652  20.634  0.00  0.00    +0.000 C 
ATOM      9  C   UNL     1       2.806   6.182  18.822  0.00  0.00    +0.000 A 
ATOM     10  C   UNL     1       3.173   7.305  17.898  0.00  0.00    +0.000 C 
ATOM     11  C   UNL     1       3.098   4.769  18.585  0.00  0.00    +0.000 A 
ENDROOT
BRANCH   1  12
ATOM     12  S   UNL     1       4.562   4.849  16.231  0.00  0.00    +0.000 S 
BRANCH  12  13
ATOM     13  C   UNL     1       5.971   3.732  15.925  0.00  0.00    +0.000 C 
BRANCH  13  14
ATOM     14  C   UNL     1       7.274   4.473  16.157  0.00  0.00    +0.000 C 
ATOM     15  O   UNL     1       8.093   4.234  17.034  0.00  0.00    +0.000 OA
BRANCH  14  17
ATOM     16  C   UNL     1       7.373   5.078  13.897  0.00  0.00    +0.000 C 
ATOM     17  O   UNL     1       7.391   5.503  15.263  0.00  0.00    +0.000 OA
ENDBRANCH  14  17
ENDBRANCH  13  14
ENDBRANCH  12  13
ENDBRANCH   1  12
TORSDOF 4
ENDMDL
MODEL 9
REMARK VINA RESULT:      -6.0      1.808      3.009
REMARK  Name = 
REMARK  7 active torsions:
REMARK  status: ('A' for Active; 'I' for Inactive)
REMARK    1  A    between atoms: C_1  and  O_2
REMARK    2  A    between atoms: O_2  and  C_3
REMARK    3  A    between atoms: C_3  and  C_5
REMARK    4  A    between atoms: C_5  and  S_6
REMARK    5  A    between atoms: S_6  and  C_7
REMARK    6  A    between atoms: C_13  and  C_14
REMARK    7  A    between atoms: C_15  and  C_16
REMARK                            x       y       z     vdW  Elec       q    Type
REMARK                         _______ _______ _______ _____ _____    ______ ____
ROOT
ATOM      1  C   UNL     1       4.081   5.032  17.592  0.00  0.00    +0.000 A 
ATOM      2  N   UNL     1       4.440   3.731  17.546  0.00  0.00    +0.000 NA
ATOM      3  C   UNL     1       4.000   2.924  18.520  0.00  0.00    +0.000 A 
ATOM      4  N   UNL     1       3.229   3.251  19.552  0.00  0.00    +0.000 NA
ATOM      5  C   UNL     1       2.888   4.551  19.558  0.00  0.00    +0.000 A 
ATOM      6  S   UNL     1       1.916   5.160  20.809  0.00  0.00    +0.000 S 
ATOM      7  C   UNL     1       1.934   6.735  20.156  0.00  0.00    +0.000 A 
ATOM      8  C   UNL     1       1.192   7.826  20.861  0.00  0.00    +0.000 C 
ATOM      9  C   UNL     1       2.675   6.810  18.982  0.00  0.00    +0.000 A 
ATOM     10  C   UNL     1       2.839   8.073  18.192  0.00  0.00    +0.000 C 
ATOM     11  C   UNL     1       3.255   5.515  18.629  0.00  0.00    +0.000 A 
ENDROOT
BRANCH   1  12
ATOM     12  S   UNL     1       4.754   6.128  16.378  0.00  0.00    +0.000 S 
BRANCH  12  13
ATOM     13  C   UNL     1       6.473   6.303  16.962  0.00  0.00    +0.000 C 
BRANCH  13  14
ATOM     14  C   UNL     1       7.350   5.257  16.300  0.00  0.00    +0.000 C 
ATOM     15  O   UNL     1       7.929   4.339  16.865  0.00  0.00    +0.000 OA
BRANCH  14  17
ATOM     16  C   UNL     1       6.892   4.481  14.138  0.00  0.00    +0.000 C 
ATOM     17  O   UNL     1       7.449   5.512  14.959  0.00  0.00    +0.000 OA
ENDBRANCH  14  17
ENDBRANCH  13  14
ENDBRANCH  12  13
ENDBRANCH   1  12
TORSDOF 4
ENDMDL
