MODEL 1
REMARK VINA RESULT:      -6.3      0.000      0.000
REMARK  Name = 
REMARK  9 active torsions:
REMARK  status: ('A' for Active; 'I' for Inactive)
REMARK    1  A    between atoms: C_1  and  C_2
REMARK    2  A    between atoms: C_2  and  O_3
REMARK    3  A    between atoms: O_3  and  C_4
REMARK    4  A    between atoms: C_4  and  C_6
REMARK    5  A    between atoms: N_10  and  C_11
REMARK    6  A    between atoms: C_11  and  C_12
REMARK    7  A    between atoms: C_13  and  N_14
REMARK    8  A    between atoms: C_15  and  C_17
REMARK    9  A    between atoms: C_17  and  C_18
REMARK                            x       y       z     vdW  Elec       q    Type
REMARK                         _______ _______ _______ _____ _____    ______ ____
ROOT
ATOM      1  C   UNL     1       6.084   4.746  18.059  0.00  0.00    +0.000 A 
ATOM      2  S   UNL     1       5.307   5.274  19.522  0.00  0.00    +0.000 S 
ATOM      3  C   UNL     1       3.745   4.685  18.962  0.00  0.00    +0.000 A 
ATOM      4  S   UNL     1       2.372   4.761  19.905  0.00  0.00    +0.000 S 
ATOM      5  N   UNL     1       3.897   4.176  17.666  0.00  0.00    +0.000 N 
ATOM      6  C   UNL     1       5.218   4.188  17.192  0.00  0.00    +0.000 A 
ENDROOT
BRANCH   6   7
ATOM      7  N   UNL     1       5.509   3.675  15.953  0.00  0.00    +0.000 N 
ATOM      8  C   UNL     1       5.762   4.429  14.816  0.00  0.00    +0.000 C 
ATOM      9  O   UNL     1       5.816   5.653  14.790  0.00  0.00    +0.000 OA
ATOM     10  H   UNL     1       5.845   2.722  15.920  0.00  0.00    +0.000 HD
BRANCH   8  11
ATOM     11  C   UNL     1       6.084   3.542  13.621  0.00  0.00    +0.000 C 
ATOM     12  C   UNL     1       5.064   3.630  12.502  0.00  0.00    +0.000 C 
ENDBRANCH   8  11
ENDBRANCH   6   7
BRANCH   1  13
ATOM     13  C   UNL     1       7.529   5.023  17.860  0.00  0.00    +0.000 C 
ATOM     14  O   UNL     1       8.332   4.229  17.391  0.00  0.00    +0.000 OA
BRANCH  13  15
ATOM     15  O   UNL     1       7.814   6.275  18.299  0.00  0.00    +0.000 OA
BRANCH  15  17
ATOM     16  C   UNL     1       8.155   8.595  17.952  0.00  0.00    +0.000 C 
ATOM     17  C   UNL     1       7.492   7.345  17.405  0.00  0.00    +0.000 C 
ENDBRANCH  15  17
ENDBRANCH  13  15
ENDBRANCH   1  13
BRANCH   5  18
ATOM     18  C   UNL     1       2.809   3.481  16.966  0.00  0.00    +0.000 C 
ATOM     19  C   UNL     1       2.528   2.099  17.545  0.00  0.00    +0.000 C 
ENDBRANCH   5  18
TORSDOF 6
ENDMDL
MODEL 2
REMARK VINA RESULT:      -6.0      2.812      4.041
REMARK  Name = 
REMARK  9 active torsions:
REMARK  status: ('A' for Active; 'I' for Inactive)
REMARK    1  A    between atoms: C_1  and  C_2
REMARK    2  A    between atoms: C_2  and  O_3
REMARK    3  A    between atoms: O_3  and  C_4
REMARK    4  A    between atoms: C_4  and  C_6
REMARK    5  A    between atoms: N_10  and  C_11
REMARK    6  A    between atoms: C_11  and  C_12
REMARK    7  A    between atoms: C_13  and  N_14
REMARK    8  A    between atoms: C_15  and  C_17
REMARK    9  A    between atoms: C_17  and  C_18
REMARK                            x       y       z     vdW  Elec       q    Type
REMARK                         _______ _______ _______ _____ _____    ______ ____
ROOT
ATOM      1  C   UNL     1       3.235   5.754  18.957  0.00  0.00    +0.000 A 
ATOM      2  S   UNL     1       1.933   5.507  20.083  0.00  0.00    +0.000 S 
ATOM      3  C   UNL     1       2.437   3.846  20.377  0.00  0.00    +0.000 A 
ATOM      4  S   UNL     1       1.673   2.864  21.486  0.00  0.00    +0.000 S 
ATOM      5  N   UNL     1       3.532   3.558  19.552  0.00  0.00    +0.000 N 
ATOM      6  C   UNL     1       3.984   4.647  18.791  0.00  0.00    +0.000 A 
ENDROOT
BRANCH   6   7
ATOM      7  N   UNL     1       5.079   4.509  17.974  0.00  0.00    +0.000 N 
ATOM      8  C   UNL     1       6.385   4.811  18.332  0.00  0.00    +0.000 C 
ATOM      9  O   UNL     1       6.732   5.183  19.447  0.00  0.00    +0.000 OA
ATOM     10  H   UNL     1       4.983   3.890  17.182  0.00  0.00    +0.000 HD
BRANCH   8  11
ATOM     11  C   UNL     1       7.356   4.509  17.199  0.00  0.00    +0.000 C 
ATOM     12  C   UNL     1       6.719   4.549  15.823  0.00  0.00    +0.000 C 
ENDBRANCH   8  11
ENDBRANCH   6   7
BRANCH   1  13
ATOM     13  C   UNL     1       3.347   7.052  18.244  0.00  0.00    +0.000 C 
ATOM     14  O   UNL     1       4.191   7.310  17.397  0.00  0.00    +0.000 OA
BRANCH  13  15
ATOM     15  O   UNL     1       2.389   7.900  18.697  0.00  0.00    +0.000 OA
BRANCH  15  17
ATOM     16  C   UNL     1       0.866   9.701  18.465  0.00  0.00    +0.000 C 
ATOM     17  C   UNL     1       2.029   8.970  17.820  0.00  0.00    +0.000 C 
ENDBRANCH  15  17
ENDBRANCH  13  15
ENDBRANCH   1  13
BRANCH   5  18
ATOM     18  C   UNL     1       4.278   2.298  19.654  0.00  0.00    +0.000 C 
ATOM     19  C   UNL     1       3.807   1.254  18.648  0.00  0.00    +0.000 C 
ENDBRANCH   5  18
TORSDOF 6
ENDMDL
MODEL 3
REMARK VINA RESULT:      -5.9      1.768      4.491
REMARK  Name = 
REMARK  9 active torsions:
REMARK  status: ('A' for Active; 'I' for Inactive)
REMARK    1  A    between atoms: C_1  and  C_2
REMARK    2  A    between atoms: C_2  and  O_3
REMARK    3  A    between atoms: O_3  and  C_4
REMARK    4  A    between atoms: C_4  and  C_6
REMARK    5  A    between atoms: N_10  and  C_11
REMARK    6  A    between atoms: C_11  and  C_12
REMARK    7  A    between atoms: C_13  and  N_14
REMARK    8  A    between atoms: C_15  and  C_17
REMARK    9  A    between atoms: C_17  and  C_18
REMARK                            x       y       z     vdW  Elec       q    Type
REMARK                         _______ _______ _______ _____ _____    ______ ____
ROOT
ATOM      1  C   UNL     1       5.530   4.452  16.303  0.00  0.00    +0.000 A 
ATOM      2  S   UNL     1       4.278   3.245  16.260  0.00  0.00    +0.000 S 
ATOM      3  C   UNL     1       3.644   3.779  17.815  0.00  0.00    +0.000 A 
ATOM      4  S   UNL     1       2.280   3.109  18.499  0.00  0.00    +0.000 S 
ATOM      5  N   UNL     1       4.462   4.806  18.303  0.00  0.00    +0.000 N 
ATOM      6  C   UNL     1       5.490   5.191  17.429  0.00  0.00    +0.000 A 
ENDROOT
BRANCH   6   7
ATOM      7  N   UNL     1       6.335   6.217  17.768  0.00  0.00    +0.000 N 
ATOM      8  C   UNL     1       7.519   6.075  18.479  0.00  0.00    +0.000 C 
ATOM      9  O   UNL     1       7.988   5.003  18.842  0.00  0.00    +0.000 OA
ATOM     10  H   UNL     1       6.255   7.071  17.234  0.00  0.00    +0.000 HD
BRANCH   8  11
ATOM     11  C   UNL     1       8.227   7.412  18.652  0.00  0.00    +0.000 C 
ATOM     12  C   UNL     1       7.800   8.464  17.646  0.00  0.00    +0.000 C 
ENDBRANCH   8  11
ENDBRANCH   6   7
BRANCH   1  13
ATOM     13  C   UNL     1       6.532   4.501  15.209  0.00  0.00    +0.000 C 
ATOM     14  O   UNL     1       7.477   5.277  15.165  0.00  0.00    +0.000 OA
BRANCH  13  15
ATOM     15  O   UNL     1       6.221   3.574  14.268  0.00  0.00    +0.000 OA
BRANCH  15  17
ATOM     16  C   UNL     1       5.572   3.113  12.035  0.00  0.00    +0.000 C 
ATOM     17  C   UNL     1       6.501   3.932  12.913  0.00  0.00    +0.000 C 
ENDBRANCH  15  17
ENDBRANCH  13  15
ENDBRANCH   1  13
BRANCH   5  18
ATOM     18  C   UNL     1       4.127   5.563  19.515  0.00  0.00    +0.000 C 
ATOM     19  C   UNL     1       2.976   6.539  19.297  0.00  0.00    +0.000 C 
ENDBRANCH   5  18
TORSDOF 6
ENDMDL
MODEL 4
REMARK VINA RESULT:      -5.7      1.920      4.537
REMARK  Name = 
REMARK  9 active torsions:
REMARK  status: ('A' for Active; 'I' for Inactive)
REMARK    1  A    between atoms: C_1  and  C_2
REMARK    2  A    between atoms: C_2  and  O_3
REMARK    3  A    between atoms: O_3  and  C_4
REMARK    4  A    between atoms: C_4  and  C_6
REMARK    5  A    between atoms: N_10  and  C_11
REMARK    6  A    between atoms: C_11  and  C_12
REMARK    7  A    between atoms: C_13  and  N_14
REMARK    8  A    between atoms: C_15  and  C_17
REMARK    9  A    between atoms: C_17  and  C_18
REMARK                            x       y       z     vdW  Elec       q    Type
REMARK                         _______ _______ _______ _____ _____    ______ ____
ROOT
ATOM      1  C   UNL     1       5.403   4.726  16.526  0.00  0.00    +0.000 A 
ATOM      2  S   UNL     1       4.163   3.568  16.905  0.00  0.00    +0.000 S 
ATOM      3  C   UNL     1       3.334   4.723  17.945  0.00  0.00    +0.000 A 
ATOM      4  S   UNL     1       1.889   4.369  18.697  0.00  0.00    +0.000 S 
ATOM      5  N   UNL     1       4.086   5.904  17.990  0.00  0.00    +0.000 N 
ATOM      6  C   UNL     1       5.221   5.898  17.164  0.00  0.00    +0.000 A 
ENDROOT
BRANCH   6   7
ATOM      7  N   UNL     1       6.019   7.012  17.082  0.00  0.00    +0.000 N 
ATOM      8  C   UNL     1       7.150   7.242  17.853  0.00  0.00    +0.000 C 
ATOM      9  O   UNL     1       7.613   6.447  18.663  0.00  0.00    +0.000 OA
ATOM     10  H   UNL     1       5.961   7.554  16.232  0.00  0.00    +0.000 HD
BRANCH   8  11
ATOM     11  C   UNL     1       7.818   8.559  17.480  0.00  0.00    +0.000 C 
ATOM     12  C   UNL     1       8.646   9.161  18.599  0.00  0.00    +0.000 C 
ENDBRANCH   8  11
ENDBRANCH   6   7
BRANCH   1  13
ATOM     13  C   UNL     1       6.540   4.320  15.661  0.00  0.00    +0.000 C 
ATOM     14  O   UNL     1       7.688   4.722  15.788  0.00  0.00    +0.000 OA
BRANCH  13  15
ATOM     15  O   UNL     1       6.098   3.463  14.707  0.00  0.00    +0.000 OA
BRANCH  15  17
ATOM     16  C   UNL     1       6.450   3.579  12.365  0.00  0.00    +0.000 C 
ATOM     17  C   UNL     1       5.581   4.059  13.514  0.00  0.00    +0.000 C 
ENDBRANCH  15  17
ENDBRANCH  13  15
ENDBRANCH   1  13
BRANCH   5  18
ATOM     18  C   UNL     1       3.600   7.116  18.660  0.00  0.00    +0.000 C 
ATOM     19  C   UNL     1       2.698   7.959  17.766  0.00  0.00    +0.000 C 
ENDBRANCH   5  18
TORSDOF 6
ENDMDL
MODEL 5
REMARK VINA RESULT:      -5.7      2.873      3.879
REMARK  Name = 
REMARK  9 active torsions:
REMARK  status: ('A' for Active; 'I' for Inactive)
REMARK    1  A    between atoms: C_1  and  C_2
REMARK    2  A    between atoms: C_2  and  O_3
REMARK    3  A    between atoms: O_3  and  C_4
REMARK    4  A    between atoms: C_4  and  C_6
REMARK    5  A    between atoms: N_10  and  C_11
REMARK    6  A    between atoms: C_11  and  C_12
REMARK    7  A    between atoms: C_13  and  N_14
REMARK    8  A    between atoms: C_15  and  C_17
REMARK    9  A    between atoms: C_17  and  C_18
REMARK                            x       y       z     vdW  Elec       q    Type
REMARK                         _______ _______ _______ _____ _____    ______ ____
ROOT
ATOM      1  C   UNL     1       2.911   5.706  18.748  0.00  0.00    +0.000 A 
ATOM      2  S   UNL     1       2.027   5.587  20.241  0.00  0.00    +0.000 S 
ATOM      3  C   UNL     1       2.187   3.833  20.252  0.00  0.00    +0.000 A 
ATOM      4  S   UNL     1       1.613   2.894  21.504  0.00  0.00    +0.000 S 
ATOM      5  N   UNL     1       2.851   3.437  19.085  0.00  0.00    +0.000 N 
ATOM      6  C   UNL     1       3.278   4.500  18.273  0.00  0.00    +0.000 A 
ENDROOT
BRANCH   6   7
ATOM      7  N   UNL     1       3.981   4.249  17.122  0.00  0.00    +0.000 N 
ATOM      8  C   UNL     1       5.365   4.243  17.016  0.00  0.00    +0.000 C 
ATOM      9  O   UNL     1       6.135   4.403  17.956  0.00  0.00    +0.000 OA
ATOM     10  H   UNL     1       3.492   3.759  16.386  0.00  0.00    +0.000 HD
BRANCH   8  11
ATOM     11  C   UNL     1       5.812   3.893  15.603  0.00  0.00    +0.000 C 
ATOM     12  C   UNL     1       6.948   4.758  15.092  0.00  0.00    +0.000 C 
ENDBRANCH   8  11
ENDBRANCH   6   7
BRANCH   1  13
ATOM     13  C   UNL     1       3.092   7.035  18.112  0.00  0.00    +0.000 C 
ATOM     14  O   UNL     1       3.958   7.301  17.290  0.00  0.00    +0.000 OA
BRANCH  13  15
ATOM     15  O   UNL     1       2.168   7.900  18.601  0.00  0.00    +0.000 OA
BRANCH  15  17
ATOM     16  C   UNL     1       0.792   9.828  18.491  0.00  0.00    +0.000 C 
ATOM     17  C   UNL     1       1.922   9.070  17.817  0.00  0.00    +0.000 C 
ENDBRANCH  15  17
ENDBRANCH  13  15
ENDBRANCH   1  13
BRANCH   5  18
ATOM     18  C   UNL     1       3.266   2.048  18.854  0.00  0.00    +0.000 C 
ATOM     19  C   UNL     1       4.513   1.669  19.645  0.00  0.00    +0.000 C 
ENDBRANCH   5  18
TORSDOF 6
ENDMDL
MODEL 6
REMARK VINA RESULT:      -5.6      3.215      4.434
REMARK  Name = 
REMARK  9 active torsions:
REMARK  status: ('A' for Active; 'I' for Inactive)
REMARK    1  A    between atoms: C_1  and  C_2
REMARK    2  A    between atoms: C_2  and  O_3
REMARK    3  A    between atoms: O_3  and  C_4
REMARK    4  A    between atoms: C_4  and  C_6
REMARK    5  A    between atoms: N_10  and  C_11
REMARK    6  A    between atoms: C_11  and  C_12
REMARK    7  A    between atoms: C_13  and  N_14
REMARK    8  A    between atoms: C_15  and  C_17
REMARK    9  A    between atoms: C_17  and  C_18
REMARK                            x       y       z     vdW  Elec       q    Type
REMARK                         _______ _______ _______ _____ _____    ______ ____
ROOT
ATOM      1  C   UNL     1       2.521   6.249  19.216  0.00  0.00    +0.000 A 
ATOM      2  S   UNL     1       1.801   5.678  20.692  0.00  0.00    +0.000 S 
ATOM      3  C   UNL     1       2.407   4.048  20.414  0.00  0.00    +0.000 A 
ATOM      4  S   UNL     1       2.181   2.813  21.511  0.00  0.00    +0.000 S 
ATOM      5  N   UNL     1       3.071   4.022  19.181  0.00  0.00    +0.000 N 
ATOM      6  C   UNL     1       3.153   5.269  18.543  0.00  0.00    +0.000 A 
ENDROOT
BRANCH   6   7
ATOM      7  N   UNL     1       3.818   5.389  17.348  0.00  0.00    +0.000 N 
ATOM      8  C   UNL     1       5.146   5.767  17.207  0.00  0.00    +0.000 C 
ATOM      9  O   UNL     1       5.910   5.985  18.140  0.00  0.00    +0.000 OA
ATOM     10  H   UNL     1       3.424   4.902  16.555  0.00  0.00    +0.000 HD
BRANCH   8  11
ATOM     11  C   UNL     1       5.572   5.764  15.745  0.00  0.00    +0.000 C 
ATOM     12  C   UNL     1       5.486   4.401  15.087  0.00  0.00    +0.000 C 
ENDBRANCH   8  11
ENDBRANCH   6   7
BRANCH   1  13
ATOM     13  C   UNL     1       2.310   7.659  18.800  0.00  0.00    +0.000 C 
ATOM     14  O   UNL     1       2.587   8.107  17.696  0.00  0.00    +0.000 OA
BRANCH  13  15
ATOM     15  O   UNL     1       1.789   8.363  19.836  0.00  0.00    +0.000 OA
BRANCH  15  17
ATOM     16  C   UNL     1      -0.083   9.600  20.601  0.00  0.00    +0.000 C 
ATOM     17  C   UNL     1       0.940   9.460  19.489  0.00  0.00    +0.000 C 
ENDBRANCH  15  17
ENDBRANCH  13  15
ENDBRANCH   1  13
BRANCH   5  18
ATOM     18  C   UNL     1       3.813   2.843  18.717  0.00  0.00    +0.000 C 
ATOM     19  C   UNL     1       2.972   1.932  17.830  0.00  0.00    +0.000 C 
ENDBRANCH   5  18
TORSDOF 6
ENDMDL
MODEL 7
REMARK VINA RESULT:      -5.6      4.240      6.326
REMARK  Name = 
REMARK  9 active torsions:
REMARK  status: ('A' for Active; 'I' for Inactive)
REMARK    1  A    between atoms: C_1  and  C_2
REMARK    2  A    between atoms: C_2  and  O_3
REMARK    3  A    between atoms: O_3  and  C_4
REMARK    4  A    between atoms: C_4  and  C_6
REMARK    5  A    between atoms: N_10  and  C_11
REMARK    6  A    between atoms: C_11  and  C_12
REMARK    7  A    between atoms: C_13  and  N_14
REMARK    8  A    between atoms: C_15  and  C_17
REMARK    9  A    between atoms: C_17  and  C_18
REMARK                            x       y       z     vdW  Elec       q    Type
REMARK                         _______ _______ _______ _____ _____    ______ ____
ROOT
ATOM      1  C   UNL     1       2.787   7.185  18.463  0.00  0.00    +0.000 A 
ATOM      2  S   UNL     1       2.271   8.682  17.744  0.00  0.00    +0.000 S 
ATOM      3  C   UNL     1       1.462   9.172  19.229  0.00  0.00    +0.000 A 
ATOM      4  S   UNL     1       0.715  10.654  19.391  0.00  0.00    +0.000 S 
ATOM      5  N   UNL     1       1.581   8.138  20.166  0.00  0.00    +0.000 N 
ATOM      6  C   UNL     1       2.354   7.050  19.731  0.00  0.00    +0.000 A 
ENDROOT
BRANCH   6   7
ATOM      7  N   UNL     1       2.586   5.990  20.571  0.00  0.00    +0.000 N 
ATOM      8  C   UNL     1       1.755   4.888  20.714  0.00  0.00    +0.000 C 
ATOM      9  O   UNL     1       0.736   4.695  20.060  0.00  0.00    +0.000 OA
ATOM     10  H   UNL     1       3.537   5.853  20.883  0.00  0.00    +0.000 HD
BRANCH   8  11
ATOM     11  C   UNL     1       2.329   3.883  21.703  0.00  0.00    +0.000 C 
ATOM     12  C   UNL     1       1.616   2.545  21.698  0.00  0.00    +0.000 C 
ENDBRANCH   8  11
ENDBRANCH   6   7
BRANCH   1  13
ATOM     13  C   UNL     1       3.533   6.200  17.639  0.00  0.00    +0.000 C 
ATOM     14  O   UNL     1       4.595   6.426  17.077  0.00  0.00    +0.000 OA
BRANCH  13  15
ATOM     15  O   UNL     1       2.843   5.033  17.595  0.00  0.00    +0.000 OA
BRANCH  15  17
ATOM     16  C   UNL     1       4.013   3.128  18.382  0.00  0.00    +0.000 C 
ATOM     17  C   UNL     1       3.570   3.887  17.145  0.00  0.00    +0.000 C 
ENDBRANCH  15  17
ENDBRANCH  13  15
ENDBRANCH   1  13
BRANCH   5  18
ATOM     18  C   UNL     1       1.134   8.286  21.557  0.00  0.00    +0.000 C 
ATOM     19  C   UNL     1      -0.384   8.251  21.691  0.00  0.00    +0.000 C 
ENDBRANCH   5  18
TORSDOF 6
ENDMDL
MODEL 8
REMARK VINA RESULT:      -5.6      3.661      5.611
REMARK  Name = 
REMARK  9 active torsions:
REMARK  status: ('A' for Active; 'I' for Inactive)
REMARK    1  A    between atoms: C_1  and  C_2
REMARK    2  A    between atoms: C_2  and  O_3
REMARK    3  A    between atoms: O_3  and  C_4
REMARK    4  A    between atoms: C_4  and  C_6
REMARK    5  A    between atoms: N_10  and  C_11
REMARK    6  A    between atoms: C_11  and  C_12
REMARK    7  A    between atoms: C_13  and  N_14
REMARK    8  A    between atoms: C_15  and  C_17
REMARK    9  A    between atoms: C_17  and  C_18
REMARK                            x       y       z     vdW  Elec       q    Type
REMARK                         _______ _______ _______ _____ _____    ______ ____
ROOT
ATOM      1  C   UNL     1       3.600   6.670  17.995  0.00  0.00    +0.000 A 
ATOM      2  S   UNL     1       4.944   6.874  16.911  0.00  0.00    +0.000 S 
ATOM      3  C   UNL     1       5.547   5.260  17.277  0.00  0.00    +0.000 A 
ATOM      4  S   UNL     1       6.886   4.616  16.522  0.00  0.00    +0.000 S 
ATOM      5  N   UNL     1       4.721   4.685  18.251  0.00  0.00    +0.000 N 
ATOM      6  C   UNL     1       3.619   5.475  18.614  0.00  0.00    +0.000 A 
ENDROOT
BRANCH   6   7
ATOM      7  N   UNL     1       2.707   5.007  19.527  0.00  0.00    +0.000 N 
ATOM      8  C   UNL     1       1.527   4.347  19.210  0.00  0.00    +0.000 C 
ATOM      9  O   UNL     1       1.182   4.047  18.074  0.00  0.00    +0.000 OA
ATOM     10  H   UNL     1       3.036   4.869  20.472  0.00  0.00    +0.000 HD
BRANCH   8  11
ATOM     11  C   UNL     1       0.768   3.935  20.464  0.00  0.00    +0.000 C 
ATOM     12  C   UNL     1       1.499   2.913  21.312  0.00  0.00    +0.000 C 
ENDBRANCH   8  11
ENDBRANCH   6   7
BRANCH   1  13
ATOM     13  C   UNL     1       2.656   7.797  18.205  0.00  0.00    +0.000 C 
ATOM     14  O   UNL     1       2.361   8.626  17.355  0.00  0.00    +0.000 OA
BRANCH  13  15
ATOM     15  O   UNL     1       2.199   7.771  19.482  0.00  0.00    +0.000 OA
BRANCH  15  17
ATOM     16  C   UNL     1       0.957   8.615  21.317  0.00  0.00    +0.000 C 
ATOM     17  C   UNL     1       1.318   8.833  19.859  0.00  0.00    +0.000 C 
ENDBRANCH  15  17
ENDBRANCH  13  15
ENDBRANCH   1  13
BRANCH   5  18
ATOM     18  C   UNL     1       4.869   3.288  18.676  0.00  0.00    +0.000 C 
ATOM     19  C   UNL     1       4.088   2.320  17.794  0.00  0.00    +0.000 C 
ENDBRANCH   5  18
TORSDOF 6
ENDMDL
MODEL 9
REMARK VINA RESULT:      -5.6      2.526      3.832
REMARK  Name = 
REMARK  9 active torsions:
REMARK  status: ('A' for Active; 'I' for Inactive)
REMARK    1  A    between atoms: C_1  and  C_2
REMARK    2  A    between atoms: C_2  and  O_3
REMARK    3  A    between atoms: O_3  and  C_4
REMARK    4  A    between atoms: C_4  and  C_6
REMARK    5  A    between atoms: N_10  and  C_11
REMARK    6  A    between atoms: C_11  and  C_12
REMARK    7  A    between atoms: C_13  and  N_14
REMARK    8  A    between atoms: C_15  and  C_17
REMARK    9  A    between atoms: C_17  and  C_18
REMARK                            x       y       z     vdW  Elec       q    Type
REMARK                         _______ _______ _______ _____ _____    ______ ____
ROOT
ATOM      1  C   UNL     1       4.036   6.003  17.674  0.00  0.00    +0.000 A 
ATOM      2  S   UNL     1       3.429   7.625  17.837  0.00  0.00    +0.000 S 
ATOM      3  C   UNL     1       2.470   7.176  19.244  0.00  0.00    +0.000 A 
ATOM      4  S   UNL     1       1.572   8.287  20.103  0.00  0.00    +0.000 S 
ATOM      5  N   UNL     1       2.622   5.802  19.469  0.00  0.00    +0.000 N 
ATOM      6  C   UNL     1       3.528   5.170  18.603  0.00  0.00    +0.000 A 
ENDROOT
BRANCH   6   7
ATOM      7  N   UNL     1       3.801   3.833  18.746  0.00  0.00    +0.000 N 
ATOM      8  C   UNL     1       3.141   2.808  18.083  0.00  0.00    +0.000 C 
ATOM      9  O   UNL     1       2.269   2.974  17.238  0.00  0.00    +0.000 OA
ATOM     10  H   UNL     1       4.707   3.590  19.120  0.00  0.00    +0.000 HD
BRANCH   8  11
ATOM     11  C   UNL     1       3.720   1.448  18.449  0.00  0.00    +0.000 C 
ATOM     12  C   UNL     1       4.593   1.469  19.689  0.00  0.00    +0.000 C 
ENDBRANCH   8  11
ENDBRANCH   6   7
BRANCH   1  13
ATOM     13  C   UNL     1       4.934   5.671  16.538  0.00  0.00    +0.000 C 
ATOM     14  O   UNL     1       4.834   4.670  15.843  0.00  0.00    +0.000 OA
BRANCH  13  15
ATOM     15  O   UNL     1       5.882   6.634  16.415  0.00  0.00    +0.000 OA
BRANCH  15  17
ATOM     16  C   UNL     1       7.621   7.746  17.580  0.00  0.00    +0.000 C 
ATOM     17  C   UNL     1       7.113   6.398  17.103  0.00  0.00    +0.000 C 
ENDBRANCH  15  17
ENDBRANCH  13  15
ENDBRANCH   1  13
BRANCH   5  18
ATOM     18  C   UNL     1       2.063   5.136  20.652  0.00  0.00    +0.000 C 
ATOM     19  C   UNL     1       0.837   4.291  20.325  0.00  0.00    +0.000 C 
ENDBRANCH   5  18
TORSDOF 6
ENDMDL
