MODEL 1
REMARK VINA RESULT:      -7.9      0.000      0.000
REMARK  Name = 
REMARK  12 active torsions:
REMARK  status: ('A' for Active; 'I' for Inactive)
REMARK    1  A    between atoms: C_1  and  C_2
REMARK    2  A    between atoms: C_2  and  C_3
REMARK    3  A    between atoms: C_2  and  C_4
REMARK    4  A    between atoms: C_2  and  O_5
REMARK    5  A    between atoms: O_5  and  C_6
REMARK    6  A    between atoms: C_6  and  C_8
REMARK    7  A    between atoms: C_8  and  C_9
REMARK    8  A    between atoms: C_9  and  C_10
REMARK    9  A    between atoms: C_10  and  N_11
REMARK   10  A    between atoms: C_10  and  C_20
REMARK   11  A    between atoms: C_12  and  C_14
REMARK   12  A    between atoms: C_26  and  C_27
REMARK                            x       y       z     vdW  Elec       q    Type
REMARK                         _______ _______ _______ _____ _____    ______ ____
ROOT
ATOM      1  C   UNL     1       2.937   6.431  17.938  0.00  0.00    +0.000 C 
ENDROOT
BRANCH   1   2
ATOM      2  C   UNL     1       4.370   6.021  18.367  0.00  0.00    +0.000 C 
ATOM      3  O   UNL     1       4.620   5.710  19.536  0.00  0.00    +0.000 OA
ATOM      4  N   UNL     1       5.366   5.920  17.417  0.00  0.00    +0.000 N 
ATOM      5  C   UNL     1       5.288   6.148  15.988  0.00  0.00    +0.000 C 
ATOM      6  C   UNL     1       6.157   5.048  15.404  0.00  0.00    +0.000 C 
ATOM      7  C   UNL     1       7.269   4.875  16.430  0.00  0.00    +0.000 C 
ATOM      8  C   UNL     1       6.637   5.270  17.772  0.00  0.00    +0.000 C 
BRANCH   8   9
ATOM      9  C   UNL     1       7.628   6.146  18.563  0.00  0.00    +0.000 C 
ATOM     10  N   UNL     1       8.065   5.674  19.766  0.00  0.00    +0.000 N 
ATOM     11  O   UNL     1       8.015   7.240  18.156  0.00  0.00    +0.000 OA
ATOM     12  H   UNL     1       8.124   4.668  19.882  0.00  0.00    +0.000 HD
ATOM     13  H   UNL     1       8.817   6.206  20.185  0.00  0.00    +0.000 HD
ENDBRANCH   8   9
ENDBRANCH   1   2
BRANCH   1  14
ATOM     14  N   UNL     1       2.371   7.479  18.784  0.00  0.00    +0.000 N 
ATOM     15  C   UNL     1       2.000   8.725  18.320  0.00  0.00    +0.000 C 
ATOM     16  O   UNL     1       2.149   9.084  17.157  0.00  0.00    +0.000 OA
ATOM     17  H   UNL     1       2.284   7.315  19.782  0.00  0.00    +0.000 HD
BRANCH  15  18
ATOM     18  C   UNL     1       1.484   9.679  19.408  0.00  0.00    +0.000 C 
ATOM     19  C   UNL     1       0.911   8.950  20.617  0.00  0.00    +0.000 C 
ATOM     20  C   UNL     1      -0.249   9.826  21.085  0.00  0.00    +0.000 C 
ATOM     21  C   UNL     1      -0.643  10.574  19.843  0.00  0.00    +0.000 C 
ATOM     22  O   UNL     1      -1.653  11.233  19.676  0.00  0.00    +0.000 OA
ATOM     23  N   UNL     1       0.357  10.435  18.912  0.00  0.00    +0.000 N 
ATOM     24  H   UNL     1       0.369  11.018  18.083  0.00  0.00    +0.000 HD
ENDBRANCH  15  18
ENDBRANCH   1  14
BRANCH   1  25
ATOM     25  C   UNL     1       2.051   5.179  17.811  0.00  0.00    +0.000 C 
BRANCH  25  26
ATOM     26  C   UNL     1       2.807   3.933  17.375  0.00  0.00    +0.000 C 
BRANCH  26  27
ATOM     27  C   UNL     1       2.599   2.802  18.353  0.00  0.00    +0.000 C 
ATOM     28  O   UNL     1       2.256   1.681  18.005  0.00  0.00    +0.000 OA
BRANCH  27  29
ATOM     29  O   UNL     1       2.897   3.194  19.622  0.00  0.00    +0.000 OA
BRANCH  29  31
ATOM     30  C   UNL     1       2.076   2.240  21.731  0.00  0.00    +0.000 C 
ATOM     31  C   UNL     1       1.851   3.280  20.628  0.00  0.00    +0.000 C 
ATOM     32  C   UNL     1       0.458   3.170  19.998  0.00  0.00    +0.000 C 
ATOM     33  C   UNL     1       1.987   4.680  21.255  0.00  0.00    +0.000 C 
ENDBRANCH  29  31
ENDBRANCH  27  29
ENDBRANCH  26  27
ENDBRANCH  25  26
ENDBRANCH   1  25
TORSDOF 9
ENDMDL
MODEL 2
REMARK VINA RESULT:      -7.9      1.672      6.534
REMARK  Name = 
REMARK  12 active torsions:
REMARK  status: ('A' for Active; 'I' for Inactive)
REMARK    1  A    between atoms: C_1  and  C_2
REMARK    2  A    between atoms: C_2  and  C_3
REMARK    3  A    between atoms: C_2  and  C_4
REMARK    4  A    between atoms: C_2  and  O_5
REMARK    5  A    between atoms: O_5  and  C_6
REMARK    6  A    between atoms: C_6  and  C_8
REMARK    7  A    between atoms: C_8  and  C_9
REMARK    8  A    between atoms: C_9  and  C_10
REMARK    9  A    between atoms: C_10  and  N_11
REMARK   10  A    between atoms: C_10  and  C_20
REMARK   11  A    between atoms: C_12  and  C_14
REMARK   12  A    between atoms: C_26  and  C_27
REMARK                            x       y       z     vdW  Elec       q    Type
REMARK                         _______ _______ _______ _____ _____    ______ ____
ROOT
ATOM      1  C   UNL     1       2.768   6.780  19.415  0.00  0.00    +0.000 C 
ENDROOT
BRANCH   1   2
ATOM      2  C   UNL     1       1.995   8.090  19.113  0.00  0.00    +0.000 C 
ATOM      3  O   UNL     1       1.845   8.488  17.954  0.00  0.00    +0.000 OA
ATOM      4  N   UNL     1       1.393   8.782  20.145  0.00  0.00    +0.000 N 
ATOM      5  C   UNL     1       1.360   8.464  21.558  0.00  0.00    +0.000 C 
ATOM      6  C   UNL     1      -0.055   8.828  21.973  0.00  0.00    +0.000 C 
ATOM      7  C   UNL     1      -0.390  10.038  21.110  0.00  0.00    +0.000 C 
ATOM      8  C   UNL     1       0.437   9.855  19.831  0.00  0.00    +0.000 C 
BRANCH   8   9
ATOM      9  C   UNL     1       1.067  11.205  19.436  0.00  0.00    +0.000 C 
ATOM     10  N   UNL     1       1.415  11.381  18.128  0.00  0.00    +0.000 N 
ATOM     11  O   UNL     1       1.275  12.102  20.251  0.00  0.00    +0.000 OA
ATOM     12  H   UNL     1       0.870  10.889  17.428  0.00  0.00    +0.000 HD
ATOM     13  H   UNL     1       1.691  12.322  17.883  0.00  0.00    +0.000 HD
ENDBRANCH   8   9
ENDBRANCH   1   2
BRANCH   1  14
ATOM     14  N   UNL     1       3.760   6.459  18.391  0.00  0.00    +0.000 N 
ATOM     15  C   UNL     1       4.980   5.872  18.661  0.00  0.00    +0.000 C 
ATOM     16  O   UNL     1       5.363   5.600  19.793  0.00  0.00    +0.000 OA
ATOM     17  H   UNL     1       3.577   6.721  17.428  0.00  0.00    +0.000 HD
BRANCH  15  18
ATOM     18  C   UNL     1       5.879   5.686  17.429  0.00  0.00    +0.000 C 
ATOM     19  C   UNL     1       5.321   6.352  16.177  0.00  0.00    +0.000 C 
ATOM     20  C   UNL     1       5.721   5.425  15.031  0.00  0.00    +0.000 C 
ATOM     21  C   UNL     1       5.883   4.091  15.705  0.00  0.00    +0.000 C 
ATOM     22  O   UNL     1       5.991   3.007  15.161  0.00  0.00    +0.000 OA
ATOM     23  N   UNL     1       5.936   4.289  17.063  0.00  0.00    +0.000 N 
ATOM     24  H   UNL     1       6.232   3.540  17.677  0.00  0.00    +0.000 HD
ENDBRANCH  15  18
ENDBRANCH   1  14
BRANCH   1  25
ATOM     25  C   UNL     1       1.774   5.641  19.705  0.00  0.00    +0.000 C 
BRANCH  25  26
ATOM     26  C   UNL     1       2.069   4.883  20.991  0.00  0.00    +0.000 C 
BRANCH  26  27
ATOM     27  C   UNL     1       2.610   3.505  20.696  0.00  0.00    +0.000 C 
ATOM     28  O   UNL     1       2.532   2.578  21.491  0.00  0.00    +0.000 OA
BRANCH  27  29
ATOM     29  O   UNL     1       3.125   3.443  19.437  0.00  0.00    +0.000 OA
BRANCH  29  31
ATOM     30  C   UNL     1       1.157   2.111  18.819  0.00  0.00    +0.000 C 
ATOM     31  C   UNL     1       2.603   2.483  18.478  0.00  0.00    +0.000 C 
ATOM     32  C   UNL     1       3.510   1.252  18.366  0.00  0.00    +0.000 C 
ATOM     33  C   UNL     1       2.605   3.206  17.119  0.00  0.00    +0.000 C 
ENDBRANCH  29  31
ENDBRANCH  27  29
ENDBRANCH  26  27
ENDBRANCH  25  26
ENDBRANCH   1  25
TORSDOF 9
ENDMDL
MODEL 3
REMARK VINA RESULT:      -7.6      2.172      5.082
REMARK  Name = 
REMARK  12 active torsions:
REMARK  status: ('A' for Active; 'I' for Inactive)
REMARK    1  A    between atoms: C_1  and  C_2
REMARK    2  A    between atoms: C_2  and  C_3
REMARK    3  A    between atoms: C_2  and  C_4
REMARK    4  A    between atoms: C_2  and  O_5
REMARK    5  A    between atoms: O_5  and  C_6
REMARK    6  A    between atoms: C_6  and  C_8
REMARK    7  A    between atoms: C_8  and  C_9
REMARK    8  A    between atoms: C_9  and  C_10
REMARK    9  A    between atoms: C_10  and  N_11
REMARK   10  A    between atoms: C_10  and  C_20
REMARK   11  A    between atoms: C_12  and  C_14
REMARK   12  A    between atoms: C_26  and  C_27
REMARK                            x       y       z     vdW  Elec       q    Type
REMARK                         _______ _______ _______ _____ _____    ______ ____
ROOT
ATOM      1  C   UNL     1       3.103   7.051  18.242  0.00  0.00    +0.000 C 
ENDROOT
BRANCH   1   2
ATOM      2  C   UNL     1       2.356   5.692  18.203  0.00  0.00    +0.000 C 
ATOM      3  O   UNL     1       1.359   5.534  17.493  0.00  0.00    +0.000 OA
ATOM      4  N   UNL     1       2.857   4.617  18.908  0.00  0.00    +0.000 N 
ATOM      5  C   UNL     1       4.046   4.541  19.733  0.00  0.00    +0.000 C 
ATOM      6  C   UNL     1       4.618   3.172  19.409  0.00  0.00    +0.000 C 
ATOM      7  C   UNL     1       3.386   2.307  19.175  0.00  0.00    +0.000 C 
ATOM      8  C   UNL     1       2.315   3.273  18.653  0.00  0.00    +0.000 C 
BRANCH   8   9
ATOM      9  C   UNL     1       0.971   2.962  19.340  0.00  0.00    +0.000 C 
ATOM     10  N   UNL     1       0.776   3.456  20.597  0.00  0.00    +0.000 N 
ATOM     11  O   UNL     1       0.096   2.282  18.807  0.00  0.00    +0.000 OA
ATOM     12  H   UNL     1       1.240   4.326  20.836  0.00  0.00    +0.000 HD
ATOM     13  H   UNL     1      -0.164   3.351  20.955  0.00  0.00    +0.000 HD
ENDBRANCH   8   9
ENDBRANCH   1   2
BRANCH   1  14
ATOM     14  N   UNL     1       2.198   8.197  18.174  0.00  0.00    +0.000 N 
ATOM     15  C   UNL     1       1.592   8.763  19.277  0.00  0.00    +0.000 C 
ATOM     16  O   UNL     1       1.725   8.332  20.416  0.00  0.00    +0.000 OA
ATOM     17  H   UNL     1       1.954   8.579  17.266  0.00  0.00    +0.000 HD
BRANCH  15  18
ATOM     18  C   UNL     1       0.637   9.921  18.950  0.00  0.00    +0.000 C 
ATOM     19  C   UNL     1      -0.571   9.979  19.878  0.00  0.00    +0.000 C 
ATOM     20  C   UNL     1      -1.718  10.461  18.993  0.00  0.00    +0.000 C 
ATOM     21  C   UNL     1      -1.289  10.049  17.612  0.00  0.00    +0.000 C 
ATOM     22  O   UNL     1      -1.976  10.035  16.608  0.00  0.00    +0.000 OA
ATOM     23  N   UNL     1       0.045   9.724  17.647  0.00  0.00    +0.000 N 
ATOM     24  H   UNL     1       0.564   9.605  16.785  0.00  0.00    +0.000 HD
ENDBRANCH  15  18
ENDBRANCH   1  14
BRANCH   1  25
ATOM     25  C   UNL     1       4.216   7.066  17.179  0.00  0.00    +0.000 C 
BRANCH  25  26
ATOM     26  C   UNL     1       5.619   7.157  17.762  0.00  0.00    +0.000 C 
BRANCH  26  27
ATOM     27  C   UNL     1       6.663   6.876  16.708  0.00  0.00    +0.000 C 
ATOM     28  O   UNL     1       7.835   7.203  16.833  0.00  0.00    +0.000 OA
BRANCH  27  29
ATOM     29  O   UNL     1       6.129   6.179  15.667  0.00  0.00    +0.000 OA
BRANCH  29  31
ATOM     30  C   UNL     1       6.949   4.363  14.232  0.00  0.00    +0.000 C 
ATOM     31  C   UNL     1       6.317   4.740  15.575  0.00  0.00    +0.000 C 
ATOM     32  C   UNL     1       5.008   3.986  15.836  0.00  0.00    +0.000 C 
ATOM     33  C   UNL     1       7.313   4.376  16.692  0.00  0.00    +0.000 C 
ENDBRANCH  29  31
ENDBRANCH  27  29
ENDBRANCH  26  27
ENDBRANCH  25  26
ENDBRANCH   1  25
TORSDOF 9
ENDMDL
MODEL 4
REMARK VINA RESULT:      -7.6      2.158      6.616
REMARK  Name = 
REMARK  12 active torsions:
REMARK  status: ('A' for Active; 'I' for Inactive)
REMARK    1  A    between atoms: C_1  and  C_2
REMARK    2  A    between atoms: C_2  and  C_3
REMARK    3  A    between atoms: C_2  and  C_4
REMARK    4  A    between atoms: C_2  and  O_5
REMARK    5  A    between atoms: O_5  and  C_6
REMARK    6  A    between atoms: C_6  and  C_8
REMARK    7  A    between atoms: C_8  and  C_9
REMARK    8  A    between atoms: C_9  and  C_10
REMARK    9  A    between atoms: C_10  and  N_11
REMARK   10  A    between atoms: C_10  and  C_20
REMARK   11  A    between atoms: C_12  and  C_14
REMARK   12  A    between atoms: C_26  and  C_27
REMARK                            x       y       z     vdW  Elec       q    Type
REMARK                         _______ _______ _______ _____ _____    ______ ____
ROOT
ATOM      1  C   UNL     1       3.013   6.542  18.382  0.00  0.00    +0.000 C 
ENDROOT
BRANCH   1   2
ATOM      2  C   UNL     1       2.567   5.425  19.363  0.00  0.00    +0.000 C 
ATOM      3  O   UNL     1       1.973   5.698  20.410  0.00  0.00    +0.000 OA
ATOM      4  N   UNL     1       2.762   4.101  19.025  0.00  0.00    +0.000 N 
ATOM      5  C   UNL     1       3.352   3.544  17.825  0.00  0.00    +0.000 C 
ATOM      6  C   UNL     1       2.481   2.335  17.528  0.00  0.00    +0.000 C 
ATOM      7  C   UNL     1       2.095   1.815  18.906  0.00  0.00    +0.000 C 
ATOM      8  C   UNL     1       2.097   3.053  19.814  0.00  0.00    +0.000 C 
BRANCH   8   9
ATOM      9  C   UNL     1       2.777   2.701  21.151  0.00  0.00    +0.000 C 
ATOM     10  N   UNL     1       2.126   3.043  22.300  0.00  0.00    +0.000 N 
ATOM     11  O   UNL     1       3.873   2.146  21.210  0.00  0.00    +0.000 OA
ATOM     12  H   UNL     1       1.112   3.065  22.275  0.00  0.00    +0.000 HD
ATOM     13  H   UNL     1       2.533   2.672  23.148  0.00  0.00    +0.000 HD
ENDBRANCH   8   9
ENDBRANCH   1   2
BRANCH   1  14
ATOM     14  N   UNL     1       4.466   6.640  18.259  0.00  0.00    +0.000 N 
ATOM     15  C   UNL     1       5.137   6.633  17.053  0.00  0.00    +0.000 C 
ATOM     16  O   UNL     1       4.577   6.503  15.970  0.00  0.00    +0.000 OA
ATOM     17  H   UNL     1       5.031   6.666  19.101  0.00  0.00    +0.000 HD
BRANCH  15  18
ATOM     18  C   UNL     1       6.667   6.688  17.179  0.00  0.00    +0.000 C 
ATOM     19  C   UNL     1       7.173   6.171  18.520  0.00  0.00    +0.000 C 
ATOM     20  C   UNL     1       8.386   7.043  18.841  0.00  0.00    +0.000 C 
ATOM     21  C   UNL     1       8.120   8.305  18.069  0.00  0.00    +0.000 C 
ATOM     22  O   UNL     1       8.705   9.366  18.181  0.00  0.00    +0.000 OA
ATOM     23  N   UNL     1       7.117   8.061  17.163  0.00  0.00    +0.000 N 
ATOM     24  H   UNL     1       6.924   8.726  16.423  0.00  0.00    +0.000 HD
ENDBRANCH  15  18
ENDBRANCH   1  14
BRANCH   1  25
ATOM     25  C   UNL     1       2.323   7.867  18.750  0.00  0.00    +0.000 C 
BRANCH  25  26
ATOM     26  C   UNL     1       2.017   8.753  17.551  0.00  0.00    +0.000 C 
BRANCH  26  27
ATOM     27  C   UNL     1       1.333  10.028  17.979  0.00  0.00    +0.000 C 
ATOM     28  O   UNL     1       1.932  10.960  18.499  0.00  0.00    +0.000 OA
BRANCH  27  29
ATOM     29  O   UNL     1       0.011  10.004  17.654  0.00  0.00    +0.000 OA
BRANCH  29  31
ATOM     30  C   UNL     1      -1.002  12.116  18.394  0.00  0.00    +0.000 C 
ATOM     31  C   UNL     1      -0.974  10.592  18.548  0.00  0.00    +0.000 C 
ATOM     32  C   UNL     1      -0.744  10.157  20.000  0.00  0.00    +0.000 C 
ATOM     33  C   UNL     1      -2.336  10.039  18.091  0.00  0.00    +0.000 C 
ENDBRANCH  29  31
ENDBRANCH  27  29
ENDBRANCH  26  27
ENDBRANCH  25  26
ENDBRANCH   1  25
TORSDOF 9
ENDMDL
MODEL 5
REMARK VINA RESULT:      -7.5      2.490      7.252
REMARK  Name = 
REMARK  12 active torsions:
REMARK  status: ('A' for Active; 'I' for Inactive)
REMARK    1  A    between atoms: C_1  and  C_2
REMARK    2  A    between atoms: C_2  and  C_3
REMARK    3  A    between atoms: C_2  and  C_4
REMARK    4  A    between atoms: C_2  and  O_5
REMARK    5  A    between atoms: O_5  and  C_6
REMARK    6  A    between atoms: C_6  and  C_8
REMARK    7  A    between atoms: C_8  and  C_9
REMARK    8  A    between atoms: C_9  and  C_10
REMARK    9  A    between atoms: C_10  and  N_11
REMARK   10  A    between atoms: C_10  and  C_20
REMARK   11  A    between atoms: C_12  and  C_14
REMARK   12  A    between atoms: C_26  and  C_27
REMARK                            x       y       z     vdW  Elec       q    Type
REMARK                         _______ _______ _______ _____ _____    ______ ____
ROOT
ATOM      1  C   UNL     1       3.733   5.719  17.435  0.00  0.00    +0.000 C 
ENDROOT
BRANCH   1   2
ATOM      2  C   UNL     1       3.829   4.949  18.779  0.00  0.00    +0.000 C 
ATOM      3  O   UNL     1       4.703   5.220  19.607  0.00  0.00    +0.000 OA
ATOM      4  N   UNL     1       2.876   4.001  19.092  0.00  0.00    +0.000 N 
ATOM      5  C   UNL     1       1.722   3.579  18.324  0.00  0.00    +0.000 C 
ATOM      6  C   UNL     1       0.640   3.399  19.375  0.00  0.00    +0.000 C 
ATOM      7  C   UNL     1       1.396   2.887  20.594  0.00  0.00    +0.000 C 
ATOM      8  C   UNL     1       2.806   3.478  20.465  0.00  0.00    +0.000 C 
BRANCH   8   9
ATOM      9  C   UNL     1       3.845   2.393  20.812  0.00  0.00    +0.000 C 
ATOM     10  N   UNL     1       4.807   2.121  19.884  0.00  0.00    +0.000 N 
ATOM     11  O   UNL     1       3.822   1.769  21.871  0.00  0.00    +0.000 OA
ATOM     12  H   UNL     1       5.098   2.878  19.274  0.00  0.00    +0.000 HD
ATOM     13  H   UNL     1       5.547   1.510  20.203  0.00  0.00    +0.000 HD
ENDBRANCH   8   9
ENDBRANCH   1   2
BRANCH   1  14
ATOM     14  N   UNL     1       4.839   5.417  16.529  0.00  0.00    +0.000 N 
ATOM     15  C   UNL     1       5.276   4.137  16.251  0.00  0.00    +0.000 C 
ATOM     16  O   UNL     1       4.801   3.134  16.770  0.00  0.00    +0.000 OA
ATOM     17  H   UNL     1       5.357   6.182  16.110  0.00  0.00    +0.000 HD
BRANCH  15  18
ATOM     18  C   UNL     1       6.491   4.073  15.313  0.00  0.00    +0.000 C 
ATOM     19  C   UNL     1       6.884   5.435  14.753  0.00  0.00    +0.000 C 
ATOM     20  C   UNL     1       7.376   5.145  13.336  0.00  0.00    +0.000 C 
ATOM     21  C   UNL     1       6.677   3.862  12.982  0.00  0.00    +0.000 C 
ATOM     22  O   UNL     1       6.597   3.356  11.878  0.00  0.00    +0.000 OA
ATOM     23  N   UNL     1       6.167   3.309  14.131  0.00  0.00    +0.000 N 
ATOM     24  H   UNL     1       5.828   2.354  14.132  0.00  0.00    +0.000 HD
ENDBRANCH  15  18
ENDBRANCH   1  14
BRANCH   1  25
ATOM     25  C   UNL     1       3.536   7.221  17.707  0.00  0.00    +0.000 C 
BRANCH  25  26
ATOM     26  C   UNL     1       2.094   7.608  17.998  0.00  0.00    +0.000 C 
BRANCH  26  27
ATOM     27  C   UNL     1       1.972   9.090  18.261  0.00  0.00    +0.000 C 
ATOM     28  O   UNL     1       2.217   9.936  17.412  0.00  0.00    +0.000 OA
BRANCH  27  29
ATOM     29  O   UNL     1       1.509   9.325  19.520  0.00  0.00    +0.000 OA
BRANCH  29  31
ATOM     30  C   UNL     1      -0.600  10.150  18.570  0.00  0.00    +0.000 C 
ATOM     31  C   UNL     1       0.394  10.232  19.734  0.00  0.00    +0.000 C 
ATOM     32  C   UNL     1       0.877  11.665  19.987  0.00  0.00    +0.000 C 
ATOM     33  C   UNL     1      -0.315   9.731  21.005  0.00  0.00    +0.000 C 
ENDBRANCH  29  31
ENDBRANCH  27  29
ENDBRANCH  26  27
ENDBRANCH  25  26
ENDBRANCH   1  25
TORSDOF 9
ENDMDL
MODEL 6
REMARK VINA RESULT:      -7.5      2.061      5.974
REMARK  Name = 
REMARK  12 active torsions:
REMARK  status: ('A' for Active; 'I' for Inactive)
REMARK    1  A    between atoms: C_1  and  C_2
REMARK    2  A    between atoms: C_2  and  C_3
REMARK    3  A    between atoms: C_2  and  C_4
REMARK    4  A    between atoms: C_2  and  O_5
REMARK    5  A    between atoms: O_5  and  C_6
REMARK    6  A    between atoms: C_6  and  C_8
REMARK    7  A    between atoms: C_8  and  C_9
REMARK    8  A    between atoms: C_9  and  C_10
REMARK    9  A    between atoms: C_10  and  N_11
REMARK   10  A    between atoms: C_10  and  C_20
REMARK   11  A    between atoms: C_12  and  C_14
REMARK   12  A    between atoms: C_26  and  C_27
REMARK                            x       y       z     vdW  Elec       q    Type
REMARK                         _______ _______ _______ _____ _____    ______ ____
ROOT
ATOM      1  C   UNL     1       3.264   6.855  18.391  0.00  0.00    +0.000 C 
ENDROOT
BRANCH   1   2
ATOM      2  C   UNL     1       4.476   6.600  17.457  0.00  0.00    +0.000 C 
ATOM      3  O   UNL     1       4.513   7.073  16.318  0.00  0.00    +0.000 OA
ATOM      4  N   UNL     1       5.569   5.904  17.932  0.00  0.00    +0.000 N 
ATOM      5  C   UNL     1       5.787   5.334  19.246  0.00  0.00    +0.000 C 
ATOM      6  C   UNL     1       7.253   5.624  19.522  0.00  0.00    +0.000 C 
ATOM      7  C   UNL     1       7.912   5.513  18.153  0.00  0.00    +0.000 C 
ATOM      8  C   UNL     1       6.816   5.904  17.151  0.00  0.00    +0.000 C 
BRANCH   8   9
ATOM      9  C   UNL     1       6.848   4.929  15.958  0.00  0.00    +0.000 C 
ATOM     10  N   UNL     1       6.209   3.733  16.103  0.00  0.00    +0.000 N 
ATOM     11  O   UNL     1       7.433   5.188  14.908  0.00  0.00    +0.000 OA
ATOM     12  H   UNL     1       5.403   3.703  16.718  0.00  0.00    +0.000 HD
ATOM     13  H   UNL     1       6.132   3.184  15.256  0.00  0.00    +0.000 HD
ENDBRANCH   8   9
ENDBRANCH   1   2
BRANCH   1  14
ATOM     14  N   UNL     1       2.786   5.637  19.042  0.00  0.00    +0.000 N 
ATOM     15  C   UNL     1       2.343   4.523  18.358  0.00  0.00    +0.000 C 
ATOM     16  O   UNL     1       2.271   4.465  17.136  0.00  0.00    +0.000 OA
ATOM     17  H   UNL     1       2.724   5.611  20.055  0.00  0.00    +0.000 HD
BRANCH  15  18
ATOM     18  C   UNL     1       1.835   3.387  19.259  0.00  0.00    +0.000 C 
ATOM     19  C   UNL     1       0.904   3.873  20.364  0.00  0.00    +0.000 C 
ATOM     20  C   UNL     1       1.212   2.970  21.557  0.00  0.00    +0.000 C 
ATOM     21  C   UNL     1       2.620   2.514  21.293  0.00  0.00    +0.000 C 
ATOM     22  O   UNL     1       3.363   1.948  22.074  0.00  0.00    +0.000 OA
ATOM     23  N   UNL     1       2.936   2.800  19.987  0.00  0.00    +0.000 N 
ATOM     24  H   UNL     1       3.766   2.402  19.563  0.00  0.00    +0.000 HD
ENDBRANCH  15  18
ENDBRANCH   1  14
BRANCH   1  25
ATOM     25  C   UNL     1       2.172   7.630  17.632  0.00  0.00    +0.000 C 
BRANCH  25  26
ATOM     26  C   UNL     1       2.124   9.112  17.972  0.00  0.00    +0.000 C 
BRANCH  26  27
ATOM     27  C   UNL     1       1.103   9.388  19.049  0.00  0.00    +0.000 C 
ATOM     28  O   UNL     1       1.227   8.986  20.198  0.00  0.00    +0.000 OA
BRANCH  27  29
ATOM     29  O   UNL     1       0.095  10.173  18.576  0.00  0.00    +0.000 OA
BRANCH  29  31
ATOM     30  C   UNL     1       1.137  12.300  19.224  0.00  0.00    +0.000 C 
ATOM     31  C   UNL     1      -0.155  11.479  19.163  0.00  0.00    +0.000 C 
ATOM     32  C   UNL     1      -0.833  11.357  20.533  0.00  0.00    +0.000 C 
ATOM     33  C   UNL     1      -1.129  12.188  18.205  0.00  0.00    +0.000 C 
ENDBRANCH  29  31
ENDBRANCH  27  29
ENDBRANCH  26  27
ENDBRANCH  25  26
ENDBRANCH   1  25
TORSDOF 9
ENDMDL
MODEL 7
REMARK VINA RESULT:      -7.4      2.267      5.271
REMARK  Name = 
REMARK  12 active torsions:
REMARK  status: ('A' for Active; 'I' for Inactive)
REMARK    1  A    between atoms: C_1  and  C_2
REMARK    2  A    between atoms: C_2  and  C_3
REMARK    3  A    between atoms: C_2  and  C_4
REMARK    4  A    between atoms: C_2  and  O_5
REMARK    5  A    between atoms: O_5  and  C_6
REMARK    6  A    between atoms: C_6  and  C_8
REMARK    7  A    between atoms: C_8  and  C_9
REMARK    8  A    between atoms: C_9  and  C_10
REMARK    9  A    between atoms: C_10  and  N_11
REMARK   10  A    between atoms: C_10  and  C_20
REMARK   11  A    between atoms: C_12  and  C_14
REMARK   12  A    between atoms: C_26  and  C_27
REMARK                            x       y       z     vdW  Elec       q    Type
REMARK                         _______ _______ _______ _____ _____    ______ ____
ROOT
ATOM      1  C   UNL     1       3.170   6.795  18.478  0.00  0.00    +0.000 C 
ENDROOT
BRANCH   1   2
ATOM      2  C   UNL     1       2.412   5.458  18.265  0.00  0.00    +0.000 C 
ATOM      3  O   UNL     1       1.458   5.384  17.485  0.00  0.00    +0.000 OA
ATOM      4  N   UNL     1       2.858   4.313  18.894  0.00  0.00    +0.000 N 
ATOM      5  C   UNL     1       3.993   4.141  19.777  0.00  0.00    +0.000 C 
ATOM      6  C   UNL     1       4.570   2.799  19.359  0.00  0.00    +0.000 C 
ATOM      7  C   UNL     1       3.346   1.980  18.970  0.00  0.00    +0.000 C 
ATOM      8  C   UNL     1       2.318   3.009  18.479  0.00  0.00    +0.000 C 
BRANCH   8   9
ATOM      9  C   UNL     1       0.932   2.655  19.053  0.00  0.00    +0.000 C 
ATOM     10  N   UNL     1       0.609   3.160  20.278  0.00  0.00    +0.000 N 
ATOM     11  O   UNL     1       0.133   1.934  18.457  0.00  0.00    +0.000 OA
ATOM     12  H   UNL     1       1.018   4.050  20.542  0.00  0.00    +0.000 HD
ATOM     13  H   UNL     1      -0.354   3.024  20.555  0.00  0.00    +0.000 HD
ENDBRANCH   8   9
ENDBRANCH   1   2
BRANCH   1  14
ATOM     14  N   UNL     1       2.270   7.935  18.643  0.00  0.00    +0.000 N 
ATOM     15  C   UNL     1       1.681   8.282  19.843  0.00  0.00    +0.000 C 
ATOM     16  O   UNL     1       1.827   7.640  20.876  0.00  0.00    +0.000 OA
ATOM     17  H   UNL     1       2.016   8.485  17.829  0.00  0.00    +0.000 HD
BRANCH  15  18
ATOM     18  C   UNL     1       0.729   9.484  19.756  0.00  0.00    +0.000 C 
ATOM     19  C   UNL     1       1.095  10.455  18.640  0.00  0.00    +0.000 C 
ATOM     20  C   UNL     1       0.744  11.835  19.195  0.00  0.00    +0.000 C 
ATOM     21  C   UNL     1       0.820  11.640  20.684  0.00  0.00    +0.000 C 
ATOM     22  O   UNL     1       0.824  12.510  21.535  0.00  0.00    +0.000 OA
ATOM     23  N   UNL     1       0.840  10.292  20.949  0.00  0.00    +0.000 N 
ATOM     24  H   UNL     1       0.698   9.955  21.894  0.00  0.00    +0.000 HD
ENDBRANCH  15  18
ENDBRANCH   1  14
BRANCH   1  25
ATOM     25  C   UNL     1       4.223   6.981  17.371  0.00  0.00    +0.000 C 
BRANCH  25  26
ATOM     26  C   UNL     1       5.657   6.845  17.860  0.00  0.00    +0.000 C 
BRANCH  26  27
ATOM     27  C   UNL     1       6.627   6.846  16.703  0.00  0.00    +0.000 C 
ATOM     28  O   UNL     1       7.760   7.299  16.788  0.00  0.00    +0.000 OA
BRANCH  27  29
ATOM     29  O   UNL     1       6.085   6.234  15.613  0.00  0.00    +0.000 OA
BRANCH  29  31
ATOM     30  C   UNL     1       5.242   4.042  14.897  0.00  0.00    +0.000 C 
ATOM     31  C   UNL     1       6.472   4.877  15.266  0.00  0.00    +0.000 C 
ATOM     32  C   UNL     1       7.304   4.229  16.379  0.00  0.00    +0.000 C 
ATOM     33  C   UNL     1       7.359   5.002  14.014  0.00  0.00    +0.000 C 
ENDBRANCH  29  31
ENDBRANCH  27  29
ENDBRANCH  26  27
ENDBRANCH  25  26
ENDBRANCH   1  25
TORSDOF 9
ENDMDL
MODEL 8
REMARK VINA RESULT:      -7.4      2.066      6.898
REMARK  Name = 
REMARK  12 active torsions:
REMARK  status: ('A' for Active; 'I' for Inactive)
REMARK    1  A    between atoms: C_1  and  C_2
REMARK    2  A    between atoms: C_2  and  C_3
REMARK    3  A    between atoms: C_2  and  C_4
REMARK    4  A    between atoms: C_2  and  O_5
REMARK    5  A    between atoms: O_5  and  C_6
REMARK    6  A    between atoms: C_6  and  C_8
REMARK    7  A    between atoms: C_8  and  C_9
REMARK    8  A    between atoms: C_9  and  C_10
REMARK    9  A    between atoms: C_10  and  N_11
REMARK   10  A    between atoms: C_10  and  C_20
REMARK   11  A    between atoms: C_12  and  C_14
REMARK   12  A    between atoms: C_26  and  C_27
REMARK                            x       y       z     vdW  Elec       q    Type
REMARK                         _______ _______ _______ _____ _____    ______ ____
ROOT
ATOM      1  C   UNL     1       2.855   6.385  18.498  0.00  0.00    +0.000 C 
ENDROOT
BRANCH   1   2
ATOM      2  C   UNL     1       2.256   5.323  19.457  0.00  0.00    +0.000 C 
ATOM      3  O   UNL     1       1.559   5.656  20.420  0.00  0.00    +0.000 OA
ATOM      4  N   UNL     1       2.432   3.981  19.187  0.00  0.00    +0.000 N 
ATOM      5  C   UNL     1       3.131   3.358  18.081  0.00  0.00    +0.000 C 
ATOM      6  C   UNL     1       2.250   2.172  17.726  0.00  0.00    +0.000 C 
ATOM      7  C   UNL     1       1.689   1.718  19.067  0.00  0.00    +0.000 C 
ATOM      8  C   UNL     1       1.640   2.987  19.928  0.00  0.00    +0.000 C 
BRANCH   8   9
ATOM      9  C   UNL     1       2.151   2.660  21.345  0.00  0.00    +0.000 C 
ATOM     10  N   UNL     1       1.234   2.631  22.355  0.00  0.00    +0.000 N 
ATOM     11  O   UNL     1       3.337   2.445  21.588  0.00  0.00    +0.000 OA
ATOM     12  H   UNL     1       0.285   2.361  22.119  0.00  0.00    +0.000 HD
ATOM     13  H   UNL     1       1.581   2.276  23.237  0.00  0.00    +0.000 HD
ENDBRANCH   8   9
ENDBRANCH   1   2
BRANCH   1  14
ATOM     14  N   UNL     1       4.301   6.251  18.338  0.00  0.00    +0.000 N 
ATOM     15  C   UNL     1       4.975   6.538  17.168  0.00  0.00    +0.000 C 
ATOM     16  O   UNL     1       4.416   6.895  16.138  0.00  0.00    +0.000 OA
ATOM     17  H   UNL     1       4.850   5.881  19.108  0.00  0.00    +0.000 HD
BRANCH  15  18
ATOM     18  C   UNL     1       6.486   6.265  17.224  0.00  0.00    +0.000 C 
ATOM     19  C   UNL     1       6.854   4.856  16.774  0.00  0.00    +0.000 C 
ATOM     20  C   UNL     1       8.037   4.463  17.657  0.00  0.00    +0.000 C 
ATOM     21  C   UNL     1       7.859   5.320  18.878  0.00  0.00    +0.000 C 
ATOM     22  O   UNL     1       8.440   5.206  19.942  0.00  0.00    +0.000 OA
ATOM     23  N   UNL     1       6.948   6.307  18.592  0.00  0.00    +0.000 N 
ATOM     24  H   UNL     1       6.834   7.096  19.219  0.00  0.00    +0.000 HD
ENDBRANCH  15  18
ENDBRANCH   1  14
BRANCH   1  25
ATOM     25  C   UNL     1       2.397   7.791  18.923  0.00  0.00    +0.000 C 
BRANCH  25  26
ATOM     26  C   UNL     1       1.955   8.670  17.762  0.00  0.00    +0.000 C 
BRANCH  26  27
ATOM     27  C   UNL     1       1.930  10.125  18.161  0.00  0.00    +0.000 C 
ATOM     28  O   UNL     1       2.396  11.013  17.460  0.00  0.00    +0.000 OA
BRANCH  27  29
ATOM     29  O   UNL     1       1.283  10.293  19.348  0.00  0.00    +0.000 OA
BRANCH  29  31
ATOM     30  C   UNL     1      -0.911  10.317  18.245  0.00  0.00    +0.000 C 
ATOM     31  C   UNL     1      -0.048  10.877  19.380  0.00  0.00    +0.000 C 
ATOM     32  C   UNL     1       0.011  12.409  19.366  0.00  0.00    +0.000 C 
ATOM     33  C   UNL     1      -0.668  10.431  20.717  0.00  0.00    +0.000 C 
ENDBRANCH  29  31
ENDBRANCH  27  29
ENDBRANCH  26  27
ENDBRANCH  25  26
ENDBRANCH   1  25
TORSDOF 9
ENDMDL
MODEL 9
REMARK VINA RESULT:      -7.4      1.378      1.498
REMARK  Name = 
REMARK  12 active torsions:
REMARK  status: ('A' for Active; 'I' for Inactive)
REMARK    1  A    between atoms: C_1  and  C_2
REMARK    2  A    between atoms: C_2  and  C_3
REMARK    3  A    between atoms: C_2  and  C_4
REMARK    4  A    between atoms: C_2  and  O_5
REMARK    5  A    between atoms: O_5  and  C_6
REMARK    6  A    between atoms: C_6  and  C_8
REMARK    7  A    between atoms: C_8  and  C_9
REMARK    8  A    between atoms: C_9  and  C_10
REMARK    9  A    between atoms: C_10  and  N_11
REMARK   10  A    between atoms: C_10  and  C_20
REMARK   11  A    between atoms: C_12  and  C_14
REMARK   12  A    between atoms: C_26  and  C_27
REMARK                            x       y       z     vdW  Elec       q    Type
REMARK                         _______ _______ _______ _____ _____    ______ ____
ROOT
ATOM      1  C   UNL     1       3.048   5.868  17.617  0.00  0.00    +0.000 C 
ENDROOT
BRANCH   1   2
ATOM      2  C   UNL     1       4.550   5.918  18.003  0.00  0.00    +0.000 C 
ATOM      3  O   UNL     1       4.903   5.949  19.185  0.00  0.00    +0.000 OA
ATOM      4  N   UNL     1       5.511   5.844  17.015  0.00  0.00    +0.000 N 
ATOM      5  C   UNL     1       5.338   5.717  15.582  0.00  0.00    +0.000 C 
ATOM      6  C   UNL     1       6.437   4.751  15.174  0.00  0.00    +0.000 C 
ATOM      7  C   UNL     1       7.586   5.084  16.118  0.00  0.00    +0.000 C 
ATOM      8  C   UNL     1       6.914   5.611  17.393  0.00  0.00    +0.000 C 
BRANCH   8   9
ATOM      9  C   UNL     1       7.677   6.853  17.893  0.00  0.00    +0.000 C 
ATOM     10  N   UNL     1       8.233   6.792  19.138  0.00  0.00    +0.000 N 
ATOM     11  O   UNL     1       7.783   7.879  17.224  0.00  0.00    +0.000 OA
ATOM     12  H   UNL     1       8.534   5.883  19.473  0.00  0.00    +0.000 HD
ATOM     13  H   UNL     1       8.841   7.566  19.372  0.00  0.00    +0.000 HD
ENDBRANCH   8   9
ENDBRANCH   1   2
BRANCH   1  14
ATOM     14  N   UNL     1       2.202   6.628  18.536  0.00  0.00    +0.000 N 
ATOM     15  C   UNL     1       1.968   7.984  18.421  0.00  0.00    +0.000 C 
ATOM     16  O   UNL     1       2.480   8.687  17.557  0.00  0.00    +0.000 OA
ATOM     17  H   UNL     1       1.796   6.157  19.337  0.00  0.00    +0.000 HD
BRANCH  15  18
ATOM     18  C   UNL     1       1.093   8.572  19.538  0.00  0.00    +0.000 C 
ATOM     19  C   UNL     1       1.015  10.094  19.495  0.00  0.00    +0.000 C 
ATOM     20  C   UNL     1       0.952  10.521  20.961  0.00  0.00    +0.000 C 
ATOM     21  C   UNL     1       1.604   9.376  21.685  0.00  0.00    +0.000 C 
ATOM     22  O   UNL     1       1.969   9.360  22.846  0.00  0.00    +0.000 OA
ATOM     23  N   UNL     1       1.689   8.307  20.827  0.00  0.00    +0.000 N 
ATOM     24  H   UNL     1       1.922   7.386  21.180  0.00  0.00    +0.000 HD
ENDBRANCH  15  18
ENDBRANCH   1  14
BRANCH   1  25
ATOM     25  C   UNL     1       2.606   4.407  17.421  0.00  0.00    +0.000 C 
BRANCH  25  26
ATOM     26  C   UNL     1       3.694   3.390  17.734  0.00  0.00    +0.000 C 
BRANCH  26  27
ATOM     27  C   UNL     1       3.241   2.423  18.801  0.00  0.00    +0.000 C 
ATOM     28  O   UNL     1       2.965   1.255  18.563  0.00  0.00    +0.000 OA
BRANCH  27  29
ATOM     29  O   UNL     1       3.245   3.014  20.028  0.00  0.00    +0.000 OA
BRANCH  29  31
ATOM     30  C   UNL     1       1.879   2.368  21.963  0.00  0.00    +0.000 C 
ATOM     31  C   UNL     1       1.995   3.264  20.726  0.00  0.00    +0.000 C 
ATOM     32  C   UNL     1       0.791   3.121  19.788  0.00  0.00    +0.000 C 
ATOM     33  C   UNL     1       2.065   4.727  21.198  0.00  0.00    +0.000 C 
ENDBRANCH  29  31
ENDBRANCH  27  29
ENDBRANCH  26  27
ENDBRANCH  25  26
ENDBRANCH   1  25
TORSDOF 9
ENDMDL
