MODEL 1
REMARK VINA RESULT:      -7.2      0.000      0.000
REMARK  Name = 
REMARK  10 active torsions:
REMARK  status: ('A' for Active; 'I' for Inactive)
REMARK    1  A    between atoms: C_1  and  O_2
REMARK    2  A    between atoms: O_2  and  C_3
REMARK    3  A    between atoms: C_8  and  C_9
REMARK    4  A    between atoms: C_9  and  C_11
REMARK    5  A    between atoms: C_11  and  C_12
REMARK    6  A    between atoms: C_12  and  C_13
REMARK    7  A    between atoms: C_13  and  C_14
REMARK    8  A    between atoms: C_14  and  C_15
REMARK    9  A    between atoms: C_14  and  C_16
REMARK   10  A    between atoms: C_16  and  O_18
REMARK                            x       y       z     vdW  Elec       q    Type
REMARK                         _______ _______ _______ _____ _____    ______ ____
ROOT
ATOM      1  C   UNL     1       6.302   5.396  15.627  0.00  0.00    +0.000 A 
ATOM      2  C   UNL     1       6.478   4.422  16.609  0.00  0.00    +0.000 A 
ATOM      3  C   UNL     1       5.659   4.418  17.742  0.00  0.00    +0.000 A 
ATOM      4  C   UNL     1       4.662   5.384  17.914  0.00  0.00    +0.000 A 
ATOM      5  C   UNL     1       3.846   5.396  19.056  0.00  0.00    +0.000 A 
ATOM      6  C   UNL     1       2.854   6.371  19.212  0.00  0.00    +0.000 A 
ATOM      7  C   UNL     1       2.670   7.340  18.224  0.00  0.00    +0.000 A 
ATOM      8  C   UNL     1       3.479   7.338  17.085  0.00  0.00    +0.000 A 
ATOM      9  C   UNL     1       4.480   6.373  16.919  0.00  0.00    +0.000 A 
ATOM     10  C   UNL     1       5.316   6.366  15.788  0.00  0.00    +0.000 A 
ENDROOT
BRANCH   1  12
ATOM     11  C   UNL     1       6.925   4.458  13.551  0.00  0.00    +0.000 C 
ATOM     12  O   UNL     1       7.064   5.513  14.496  0.00  0.00    +0.000 OA
ENDBRANCH   1  12
BRANCH   6  13
ATOM     13  C   UNL     1       2.006   6.328  20.437  0.00  0.00    +0.000 C 
ATOM     14  O   UNL     1       1.511   7.367  20.869  0.00  0.00    +0.000 OA
BRANCH  13  15
ATOM     15  C   UNL     1       1.812   5.007  21.158  0.00  0.00    +0.000 C 
BRANCH  15  16
ATOM     16  C   UNL     1       1.027   3.999  20.321  0.00  0.00    +0.000 C 
BRANCH  16  17
ATOM     17  C   UNL     1       1.573   2.572  20.456  0.00  0.00    +0.000 C 
BRANCH  17  18
ATOM     18  C   UNL     1       2.042   1.975  19.122  0.00  0.00    +0.000 C 
ATOM     19  C   UNL     1       1.790   2.913  17.939  0.00  0.00    +0.000 C 
BRANCH  18  20
ATOM     20  C   UNL     1       3.528   1.663  19.214  0.00  0.00    +0.000 C 
ATOM     21  O   UNL     1       4.284   2.118  20.059  0.00  0.00    +0.000 OA
BRANCH  20  22
ATOM     22  O   UNL     1       3.951   0.795  18.268  0.00  0.00    +0.000 OA
ATOM     23  H   UNL     1       3.751  -0.140  18.459  0.00  0.00    +0.000 HD
ENDBRANCH  20  22
ENDBRANCH  18  20
ENDBRANCH  17  18
ENDBRANCH  16  17
ENDBRANCH  15  16
ENDBRANCH  13  15
ENDBRANCH   6  13
TORSDOF 8
ENDMDL
MODEL 2
REMARK VINA RESULT:      -7.2      2.279      3.852
REMARK  Name = 
REMARK  10 active torsions:
REMARK  status: ('A' for Active; 'I' for Inactive)
REMARK    1  A    between atoms: C_1  and  O_2
REMARK    2  A    between atoms: O_2  and  C_3
REMARK    3  A    between atoms: C_8  and  C_9
REMARK    4  A    between atoms: C_9  and  C_11
REMARK    5  A    between atoms: C_11  and  C_12
REMARK    6  A    between atoms: C_12  and  C_13
REMARK    7  A    between atoms: C_13  and  C_14
REMARK    8  A    between atoms: C_14  and  C_15
REMARK    9  A    between atoms: C_14  and  C_16
REMARK   10  A    between atoms: C_16  and  O_18
REMARK                            x       y       z     vdW  Elec       q    Type
REMARK                         _______ _______ _______ _____ _____    ______ ____
ROOT
ATOM      1  C   UNL     1       7.734   7.575  17.788  0.00  0.00    +0.000 A 
ATOM      2  C   UNL     1       8.093   6.833  18.913  0.00  0.00    +0.000 A 
ATOM      3  C   UNL     1       7.374   5.682  19.248  0.00  0.00    +0.000 A 
ATOM      4  C   UNL     1       6.287   5.261  18.474  0.00  0.00    +0.000 A 
ATOM      5  C   UNL     1       5.550   4.115  18.814  0.00  0.00    +0.000 A 
ATOM      6  C   UNL     1       4.466   3.708  18.028  0.00  0.00    +0.000 A 
ATOM      7  C   UNL     1       4.112   4.444  16.895  0.00  0.00    +0.000 A 
ATOM      8  C   UNL     1       4.838   5.587  16.551  0.00  0.00    +0.000 A 
ATOM      9  C   UNL     1       5.921   6.010  17.332  0.00  0.00    +0.000 A 
ATOM     10  C   UNL     1       6.651   7.168  17.012  0.00  0.00    +0.000 A 
ENDROOT
BRANCH   1  12
ATOM     11  C   UNL     1       8.711   9.628  18.428  0.00  0.00    +0.000 C 
ATOM     12  O   UNL     1       8.346   8.731  17.385  0.00  0.00    +0.000 OA
ENDBRANCH   1  12
BRANCH   6  13
ATOM     13  C   UNL     1       3.728   2.476  18.425  0.00  0.00    +0.000 C 
ATOM     14  O   UNL     1       4.238   1.694  19.225  0.00  0.00    +0.000 OA
BRANCH  13  15
ATOM     15  C   UNL     1       2.380   2.183  17.793  0.00  0.00    +0.000 C 
BRANCH  15  16
ATOM     16  C   UNL     1       1.294   1.926  18.837  0.00  0.00    +0.000 C 
BRANCH  16  17
ATOM     17  C   UNL     1       0.510   3.195  19.194  0.00  0.00    +0.000 C 
BRANCH  17  18
ATOM     18  C   UNL     1       0.916   3.794  20.548  0.00  0.00    +0.000 C 
ATOM     19  C   UNL     1       1.611   2.777  21.455  0.00  0.00    +0.000 C 
BRANCH  18  20
ATOM     20  C   UNL     1       1.843   4.977  20.308  0.00  0.00    +0.000 C 
ATOM     21  O   UNL     1       1.951   5.573  19.248  0.00  0.00    +0.000 OA
BRANCH  20  22
ATOM     22  O   UNL     1       2.541   5.339  21.408  0.00  0.00    +0.000 OA
ATOM     23  H   UNL     1       3.487   5.510  21.248  0.00  0.00    +0.000 HD
ENDBRANCH  20  22
ENDBRANCH  18  20
ENDBRANCH  17  18
ENDBRANCH  16  17
ENDBRANCH  15  16
ENDBRANCH  13  15
ENDBRANCH   6  13
TORSDOF 8
ENDMDL
MODEL 3
REMARK VINA RESULT:      -6.9      1.532      3.873
REMARK  Name = 
REMARK  10 active torsions:
REMARK  status: ('A' for Active; 'I' for Inactive)
REMARK    1  A    between atoms: C_1  and  O_2
REMARK    2  A    between atoms: O_2  and  C_3
REMARK    3  A    between atoms: C_8  and  C_9
REMARK    4  A    between atoms: C_9  and  C_11
REMARK    5  A    between atoms: C_11  and  C_12
REMARK    6  A    between atoms: C_12  and  C_13
REMARK    7  A    between atoms: C_13  and  C_14
REMARK    8  A    between atoms: C_14  and  C_15
REMARK    9  A    between atoms: C_14  and  C_16
REMARK   10  A    between atoms: C_16  and  O_18
REMARK                            x       y       z     vdW  Elec       q    Type
REMARK                         _______ _______ _______ _____ _____    ______ ____
ROOT
ATOM      1  C   UNL     1       6.897   5.029  16.072  0.00  0.00    +0.000 A 
ATOM      2  C   UNL     1       7.339   5.440  17.330  0.00  0.00    +0.000 A 
ATOM      3  C   UNL     1       6.620   5.081  18.473  0.00  0.00    +0.000 A 
ATOM      4  C   UNL     1       5.453   4.315  18.380  0.00  0.00    +0.000 A 
ATOM      5  C   UNL     1       4.717   3.963  19.523  0.00  0.00    +0.000 A 
ATOM      6  C   UNL     1       3.552   3.196  19.411  0.00  0.00    +0.000 A 
ATOM      7  C   UNL     1       3.116   2.774  18.153  0.00  0.00    +0.000 A 
ATOM      8  C   UNL     1       3.840   3.121  17.010  0.00  0.00    +0.000 A 
ATOM      9  C   UNL     1       5.004   3.894  17.107  0.00  0.00    +0.000 A 
ATOM     10  C   UNL     1       5.735   4.269  15.966  0.00  0.00    +0.000 A 
ENDROOT
BRANCH   1  12
ATOM     11  C   UNL     1       6.946   4.736  13.729  0.00  0.00    +0.000 C 
ATOM     12  O   UNL     1       7.504   5.348  14.887  0.00  0.00    +0.000 OA
ENDBRANCH   1  12
BRANCH   6  13
ATOM     13  C   UNL     1       2.818   2.839  20.657  0.00  0.00    +0.000 C 
ATOM     14  O   UNL     1       3.415   2.275  21.572  0.00  0.00    +0.000 OA
BRANCH  13  15
ATOM     15  C   UNL     1       1.332   3.131  20.752  0.00  0.00    +0.000 C 
BRANCH  15  16
ATOM     16  C   UNL     1       0.975   4.508  20.196  0.00  0.00    +0.000 C 
BRANCH  16  17
ATOM     17  C   UNL     1       1.798   5.632  20.839  0.00  0.00    +0.000 C 
BRANCH  17  18
ATOM     18  C   UNL     1       2.330   6.650  19.820  0.00  0.00    +0.000 C 
ATOM     19  C   UNL     1       2.094   6.211  18.374  0.00  0.00    +0.000 C 
BRANCH  18  20
ATOM     20  C   UNL     1       1.653   7.991  20.060  0.00  0.00    +0.000 C 
ATOM     21  O   UNL     1       1.575   8.889  19.236  0.00  0.00    +0.000 OA
BRANCH  20  22
ATOM     22  O   UNL     1       1.105   8.100  21.292  0.00  0.00    +0.000 OA
ATOM     23  H   UNL     1       0.312   7.549  21.432  0.00  0.00    +0.000 HD
ENDBRANCH  20  22
ENDBRANCH  18  20
ENDBRANCH  17  18
ENDBRANCH  16  17
ENDBRANCH  15  16
ENDBRANCH  13  15
ENDBRANCH   6  13
TORSDOF 8
ENDMDL
MODEL 4
REMARK VINA RESULT:      -6.7      2.776      6.108
REMARK  Name = 
REMARK  10 active torsions:
REMARK  status: ('A' for Active; 'I' for Inactive)
REMARK    1  A    between atoms: C_1  and  O_2
REMARK    2  A    between atoms: O_2  and  C_3
REMARK    3  A    between atoms: C_8  and  C_9
REMARK    4  A    between atoms: C_9  and  C_11
REMARK    5  A    between atoms: C_11  and  C_12
REMARK    6  A    between atoms: C_12  and  C_13
REMARK    7  A    between atoms: C_13  and  C_14
REMARK    8  A    between atoms: C_14  and  C_15
REMARK    9  A    between atoms: C_14  and  C_16
REMARK   10  A    between atoms: C_16  and  O_18
REMARK                            x       y       z     vdW  Elec       q    Type
REMARK                         _______ _______ _______ _____ _____    ______ ____
ROOT
ATOM      1  C   UNL     1      -0.242  10.099  21.273  0.00  0.00    +0.000 A 
ATOM      2  C   UNL     1       0.236   9.018  22.014  0.00  0.00    +0.000 A 
ATOM      3  C   UNL     1       1.132   8.117  21.433  0.00  0.00    +0.000 A 
ATOM      4  C   UNL     1       1.557   8.275  20.110  0.00  0.00    +0.000 A 
ATOM      5  C   UNL     1       2.445   7.365  19.514  0.00  0.00    +0.000 A 
ATOM      6  C   UNL     1       2.860   7.538  18.189  0.00  0.00    +0.000 A 
ATOM      7  C   UNL     1       2.391   8.626  17.450  0.00  0.00    +0.000 A 
ATOM      8  C   UNL     1       1.505   9.536  18.033  0.00  0.00    +0.000 A 
ATOM      9  C   UNL     1       1.076   9.370  19.356  0.00  0.00    +0.000 A 
ATOM     10  C   UNL     1       0.171  10.266  19.953  0.00  0.00    +0.000 A 
ENDROOT
BRANCH   1  12
ATOM     11  C   UNL     1      -1.341  11.044  23.138  0.00  0.00    +0.000 C 
ATOM     12  O   UNL     1      -1.143  11.023  21.729  0.00  0.00    +0.000 OA
ENDBRANCH   1  12
BRANCH   6  13
ATOM     13  C   UNL     1       3.815   6.551  17.612  0.00  0.00    +0.000 C 
ATOM     14  O   UNL     1       4.447   6.839  16.597  0.00  0.00    +0.000 OA
BRANCH  13  15
ATOM     15  C   UNL     1       3.953   5.186  18.260  0.00  0.00    +0.000 C 
BRANCH  15  16
ATOM     16  C   UNL     1       3.123   4.119  17.548  0.00  0.00    +0.000 C 
BRANCH  16  17
ATOM     17  C   UNL     1       2.234   3.326  18.514  0.00  0.00    +0.000 C 
BRANCH  17  18
ATOM     18  C   UNL     1       2.351   3.799  19.969  0.00  0.00    +0.000 C 
ATOM     19  C   UNL     1       0.986   4.024  20.624  0.00  0.00    +0.000 C 
BRANCH  18  20
ATOM     20  C   UNL     1       3.130   2.762  20.766  0.00  0.00    +0.000 C 
ATOM     21  O   UNL     1       4.098   2.147  20.347  0.00  0.00    +0.000 OA
BRANCH  20  22
ATOM     22  O   UNL     1       2.662   2.592  22.022  0.00  0.00    +0.000 OA
ATOM     23  H   UNL     1       2.961   3.265  22.660  0.00  0.00    +0.000 HD
ENDBRANCH  20  22
ENDBRANCH  18  20
ENDBRANCH  17  18
ENDBRANCH  16  17
ENDBRANCH  15  16
ENDBRANCH  13  15
ENDBRANCH   6  13
TORSDOF 8
ENDMDL
MODEL 5
REMARK VINA RESULT:      -6.7      2.548      6.106
REMARK  Name = 
REMARK  10 active torsions:
REMARK  status: ('A' for Active; 'I' for Inactive)
REMARK    1  A    between atoms: C_1  and  O_2
REMARK    2  A    between atoms: O_2  and  C_3
REMARK    3  A    between atoms: C_8  and  C_9
REMARK    4  A    between atoms: C_9  and  C_11
REMARK    5  A    between atoms: C_11  and  C_12
REMARK    6  A    between atoms: C_12  and  C_13
REMARK    7  A    between atoms: C_13  and  C_14
REMARK    8  A    between atoms: C_14  and  C_15
REMARK    9  A    between atoms: C_14  and  C_16
REMARK   10  A    between atoms: C_16  and  O_18
REMARK                            x       y       z     vdW  Elec       q    Type
REMARK                         _______ _______ _______ _____ _____    ______ ____
ROOT
ATOM      1  C   UNL     1       1.187   9.802  19.399  0.00  0.00    +0.000 A 
ATOM      2  C   UNL     1       1.715   9.713  18.111  0.00  0.00    +0.000 A 
ATOM      3  C   UNL     1       2.313   8.525  17.683  0.00  0.00    +0.000 A 
ATOM      4  C   UNL     1       2.398   7.415  18.531  0.00  0.00    +0.000 A 
ATOM      5  C   UNL     1       3.011   6.223  18.113  0.00  0.00    +0.000 A 
ATOM      6  C   UNL     1       3.087   5.122  18.974  0.00  0.00    +0.000 A 
ATOM      7  C   UNL     1       2.549   5.207  20.260  0.00  0.00    +0.000 A 
ATOM      8  C   UNL     1       1.939   6.390  20.685  0.00  0.00    +0.000 A 
ATOM      9  C   UNL     1       1.862   7.501  19.836  0.00  0.00    +0.000 A 
ATOM     10  C   UNL     1       1.269   8.706  20.254  0.00  0.00    +0.000 A 
ENDROOT
BRANCH   1  12
ATOM     11  C   UNL     1      -0.509  10.691  20.783  0.00  0.00    +0.000 C 
ATOM     12  O   UNL     1       0.609  10.923  19.933  0.00  0.00    +0.000 OA
ENDBRANCH   1  12
BRANCH   6  13
ATOM     13  C   UNL     1       3.734   3.877  18.475  0.00  0.00    +0.000 C 
ATOM     14  O   UNL     1       4.033   2.988  19.269  0.00  0.00    +0.000 OA
BRANCH  13  15
ATOM     15  C   UNL     1       4.059   3.751  16.998  0.00  0.00    +0.000 C 
BRANCH  15  16
ATOM     16  C   UNL     1       5.279   4.580  16.599  0.00  0.00    +0.000 C 
BRANCH  16  17
ATOM     17  C   UNL     1       6.394   4.525  17.651  0.00  0.00    +0.000 C 
BRANCH  17  18
ATOM     18  C   UNL     1       7.273   5.784  17.666  0.00  0.00    +0.000 C 
ATOM     19  C   UNL     1       6.529   7.025  17.168  0.00  0.00    +0.000 C 
BRANCH  18  20
ATOM     20  C   UNL     1       7.767   6.025  19.085  0.00  0.00    +0.000 C 
ATOM     21  O   UNL     1       7.508   5.313  20.043  0.00  0.00    +0.000 OA
BRANCH  20  22
ATOM     22  O   UNL     1       8.560   7.114  19.196  0.00  0.00    +0.000 OA
ATOM     23  H   UNL     1       9.273   7.164  18.533  0.00  0.00    +0.000 HD
ENDBRANCH  20  22
ENDBRANCH  18  20
ENDBRANCH  17  18
ENDBRANCH  16  17
ENDBRANCH  15  16
ENDBRANCH  13  15
ENDBRANCH   6  13
TORSDOF 8
ENDMDL
MODEL 6
REMARK VINA RESULT:      -6.6      2.404      6.536
REMARK  Name = 
REMARK  10 active torsions:
REMARK  status: ('A' for Active; 'I' for Inactive)
REMARK    1  A    between atoms: C_1  and  O_2
REMARK    2  A    between atoms: O_2  and  C_3
REMARK    3  A    between atoms: C_8  and  C_9
REMARK    4  A    between atoms: C_9  and  C_11
REMARK    5  A    between atoms: C_11  and  C_12
REMARK    6  A    between atoms: C_12  and  C_13
REMARK    7  A    between atoms: C_13  and  C_14
REMARK    8  A    between atoms: C_14  and  C_15
REMARK    9  A    between atoms: C_14  and  C_16
REMARK   10  A    between atoms: C_16  and  O_18
REMARK                            x       y       z     vdW  Elec       q    Type
REMARK                         _______ _______ _______ _____ _____    ______ ____
ROOT
ATOM      1  C   UNL     1       1.019   9.152  20.387  0.00  0.00    +0.000 A 
ATOM      2  C   UNL     1       1.326   9.578  19.095  0.00  0.00    +0.000 A 
ATOM      3  C   UNL     1       1.999   8.721  18.219  0.00  0.00    +0.000 A 
ATOM      4  C   UNL     1       2.380   7.436  18.620  0.00  0.00    +0.000 A 
ATOM      5  C   UNL     1       3.070   6.575  17.752  0.00  0.00    +0.000 A 
ATOM      6  C   UNL     1       3.443   5.293  18.169  0.00  0.00    +0.000 A 
ATOM      7  C   UNL     1       3.126   4.861  19.459  0.00  0.00    +0.000 A 
ATOM      8  C   UNL     1       2.442   5.712  20.331  0.00  0.00    +0.000 A 
ATOM      9  C   UNL     1       2.068   7.000  19.929  0.00  0.00    +0.000 A 
ATOM     10  C   UNL     1       1.396   7.876  20.799  0.00  0.00    +0.000 A 
ENDROOT
BRANCH   1  12
ATOM     11  C   UNL     1      -0.659  10.747  20.855  0.00  0.00    +0.000 C 
ATOM     12  O   UNL     1       0.392   9.916  21.335  0.00  0.00    +0.000 OA
ENDBRANCH   1  12
BRANCH   6  13
ATOM     13  C   UNL     1       4.161   4.415  17.202  0.00  0.00    +0.000 C 
ATOM     14  O   UNL     1       4.047   3.194  17.291  0.00  0.00    +0.000 OA
BRANCH  13  15
ATOM     15  C   UNL     1       5.061   5.045  16.156  0.00  0.00    +0.000 C 
BRANCH  15  16
ATOM     16  C   UNL     1       6.408   4.333  16.045  0.00  0.00    +0.000 C 
BRANCH  16  17
ATOM     17  C   UNL     1       7.341   4.657  17.220  0.00  0.00    +0.000 C 
BRANCH  17  18
ATOM     18  C   UNL     1       6.841   5.822  18.085  0.00  0.00    +0.000 C 
ATOM     19  C   UNL     1       6.845   5.489  19.578  0.00  0.00    +0.000 C 
BRANCH  18  20
ATOM     20  C   UNL     1       7.721   7.038  17.834  0.00  0.00    +0.000 C 
ATOM     21  O   UNL     1       7.716   7.702  16.809  0.00  0.00    +0.000 OA
BRANCH  20  22
ATOM     22  O   UNL     1       8.517   7.346  18.883  0.00  0.00    +0.000 OA
ATOM     23  H   UNL     1       8.655   8.302  19.018  0.00  0.00    +0.000 HD
ENDBRANCH  20  22
ENDBRANCH  18  20
ENDBRANCH  17  18
ENDBRANCH  16  17
ENDBRANCH  15  16
ENDBRANCH  13  15
ENDBRANCH   6  13
TORSDOF 8
ENDMDL
MODEL 7
REMARK VINA RESULT:      -6.6      2.360      6.263
REMARK  Name = 
REMARK  10 active torsions:
REMARK  status: ('A' for Active; 'I' for Inactive)
REMARK    1  A    between atoms: C_1  and  O_2
REMARK    2  A    between atoms: O_2  and  C_3
REMARK    3  A    between atoms: C_8  and  C_9
REMARK    4  A    between atoms: C_9  and  C_11
REMARK    5  A    between atoms: C_11  and  C_12
REMARK    6  A    between atoms: C_12  and  C_13
REMARK    7  A    between atoms: C_13  and  C_14
REMARK    8  A    between atoms: C_14  and  C_15
REMARK    9  A    between atoms: C_14  and  C_16
REMARK   10  A    between atoms: C_16  and  O_18
REMARK                            x       y       z     vdW  Elec       q    Type
REMARK                         _______ _______ _______ _____ _____    ______ ____
ROOT
ATOM      1  C   UNL     1       1.071  10.110  19.654  0.00  0.00    +0.000 A 
ATOM      2  C   UNL     1       1.589  10.115  18.358  0.00  0.00    +0.000 A 
ATOM      3  C   UNL     1       2.162   8.954  17.832  0.00  0.00    +0.000 A 
ATOM      4  C   UNL     1       2.234   7.779  18.588  0.00  0.00    +0.000 A 
ATOM      5  C   UNL     1       2.822   6.614  18.071  0.00  0.00    +0.000 A 
ATOM      6  C   UNL     1       2.885   5.447  18.841  0.00  0.00    +0.000 A 
ATOM      7  C   UNL     1       2.357   5.437  20.134  0.00  0.00    +0.000 A 
ATOM      8  C   UNL     1       1.772   6.593  20.657  0.00  0.00    +0.000 A 
ATOM      9  C   UNL     1       1.708   7.770  19.900  0.00  0.00    +0.000 A 
ATOM     10  C   UNL     1       1.140   8.947  20.418  0.00  0.00    +0.000 A 
ENDROOT
BRANCH   1  12
ATOM     11  C   UNL     1      -0.646  10.926  21.055  0.00  0.00    +0.000 C 
ATOM     12  O   UNL     1       0.517  11.194  20.280  0.00  0.00    +0.000 OA
ENDBRANCH   1  12
BRANCH   6  13
ATOM     13  C   UNL     1       3.507   4.234  18.238  0.00  0.00    +0.000 C 
ATOM     14  O   UNL     1       2.820   3.476  17.557  0.00  0.00    +0.000 OA
BRANCH  13  15
ATOM     15  C   UNL     1       4.966   3.931  18.521  0.00  0.00    +0.000 C 
BRANCH  15  16
ATOM     16  C   UNL     1       5.641   5.034  19.335  0.00  0.00    +0.000 C 
BRANCH  16  17
ATOM     17  C   UNL     1       6.923   5.553  18.672  0.00  0.00    +0.000 C 
BRANCH  17  18
ATOM     18  C   UNL     1       6.654   6.553  17.539  0.00  0.00    +0.000 C 
ATOM     19  C   UNL     1       7.660   7.707  17.525  0.00  0.00    +0.000 C 
BRANCH  18  20
ATOM     20  C   UNL     1       6.707   5.819  16.208  0.00  0.00    +0.000 C 
ATOM     21  O   UNL     1       7.532   4.969  15.914  0.00  0.00    +0.000 OA
BRANCH  20  22
ATOM     22  O   UNL     1       5.717   6.180  15.360  0.00  0.00    +0.000 OA
ATOM     23  H   UNL     1       6.021   6.647  14.559  0.00  0.00    +0.000 HD
ENDBRANCH  20  22
ENDBRANCH  18  20
ENDBRANCH  17  18
ENDBRANCH  16  17
ENDBRANCH  15  16
ENDBRANCH  13  15
ENDBRANCH   6  13
TORSDOF 8
ENDMDL
MODEL 8
REMARK VINA RESULT:      -6.6      2.625      6.455
REMARK  Name = 
REMARK  10 active torsions:
REMARK  status: ('A' for Active; 'I' for Inactive)
REMARK    1  A    between atoms: C_1  and  O_2
REMARK    2  A    between atoms: O_2  and  C_3
REMARK    3  A    between atoms: C_8  and  C_9
REMARK    4  A    between atoms: C_9  and  C_11
REMARK    5  A    between atoms: C_11  and  C_12
REMARK    6  A    between atoms: C_12  and  C_13
REMARK    7  A    between atoms: C_13  and  C_14
REMARK    8  A    between atoms: C_14  and  C_15
REMARK    9  A    between atoms: C_14  and  C_16
REMARK   10  A    between atoms: C_16  and  O_18
REMARK                            x       y       z     vdW  Elec       q    Type
REMARK                         _______ _______ _______ _____ _____    ______ ____
ROOT
ATOM      1  C   UNL     1       0.327  10.371  20.842  0.00  0.00    +0.000 A 
ATOM      2  C   UNL     1       0.305   9.397  21.840  0.00  0.00    +0.000 A 
ATOM      3  C   UNL     1       0.911   8.158  21.619  0.00  0.00    +0.000 A 
ATOM      4  C   UNL     1       1.539   7.870  20.403  0.00  0.00    +0.000 A 
ATOM      5  C   UNL     1       2.137   6.621  20.167  0.00  0.00    +0.000 A 
ATOM      6  C   UNL     1       2.762   6.350  18.944  0.00  0.00    +0.000 A 
ATOM      7  C   UNL     1       2.795   7.329  17.949  0.00  0.00    +0.000 A 
ATOM      8  C   UNL     1       2.200   8.573  18.173  0.00  0.00    +0.000 A 
ATOM      9  C   UNL     1       1.566   8.855  19.389  0.00  0.00    +0.000 A 
ATOM     10  C   UNL     1       0.947  10.095  19.625  0.00  0.00    +0.000 A 
ENDROOT
BRANCH   1  12
ATOM     11  C   UNL     1      -1.332  11.846  20.035  0.00  0.00    +0.000 C 
ATOM     12  O   UNL     1      -0.259  11.604  20.938  0.00  0.00    +0.000 OA
ENDBRANCH   1  12
BRANCH   6  13
ATOM     13  C   UNL     1       3.393   5.014  18.753  0.00  0.00    +0.000 C 
ATOM     14  O   UNL     1       4.283   4.649  19.519  0.00  0.00    +0.000 OA
BRANCH  13  15
ATOM     15  C   UNL     1       2.961   4.150  17.583  0.00  0.00    +0.000 C 
BRANCH  15  16
ATOM     16  C   UNL     1       4.148   3.521  16.856  0.00  0.00    +0.000 C 
BRANCH  16  17
ATOM     17  C   UNL     1       4.908   4.533  15.989  0.00  0.00    +0.000 C 
BRANCH  17  18
ATOM     18  C   UNL     1       6.062   3.903  15.197  0.00  0.00    +0.000 C 
ATOM     19  C   UNL     1       5.760   3.801  13.701  0.00  0.00    +0.000 C 
BRANCH  18  20
ATOM     20  C   UNL     1       7.318   4.738  15.405  0.00  0.00    +0.000 C 
ATOM     21  O   UNL     1       7.781   5.514  14.584  0.00  0.00    +0.000 OA
BRANCH  20  22
ATOM     22  O   UNL     1       7.881   4.562  16.621  0.00  0.00    +0.000 OA
ATOM     23  H   UNL     1       7.987   5.380  17.140  0.00  0.00    +0.000 HD
ENDBRANCH  20  22
ENDBRANCH  18  20
ENDBRANCH  17  18
ENDBRANCH  16  17
ENDBRANCH  15  16
ENDBRANCH  13  15
ENDBRANCH   6  13
TORSDOF 8
ENDMDL
MODEL 9
REMARK VINA RESULT:      -6.6      1.290      1.563
REMARK  Name = 
REMARK  10 active torsions:
REMARK  status: ('A' for Active; 'I' for Inactive)
REMARK    1  A    between atoms: C_1  and  O_2
REMARK    2  A    between atoms: O_2  and  C_3
REMARK    3  A    between atoms: C_8  and  C_9
REMARK    4  A    between atoms: C_9  and  C_11
REMARK    5  A    between atoms: C_11  and  C_12
REMARK    6  A    between atoms: C_12  and  C_13
REMARK    7  A    between atoms: C_13  and  C_14
REMARK    8  A    between atoms: C_14  and  C_15
REMARK    9  A    between atoms: C_14  and  C_16
REMARK   10  A    between atoms: C_16  and  O_18
REMARK                            x       y       z     vdW  Elec       q    Type
REMARK                         _______ _______ _______ _____ _____    ______ ____
ROOT
ATOM      1  C   UNL     1       6.943   5.566  16.157  0.00  0.00    +0.000 A 
ATOM      2  C   UNL     1       7.251   4.790  17.275  0.00  0.00    +0.000 A 
ATOM      3  C   UNL     1       6.360   4.730  18.349  0.00  0.00    +0.000 A 
ATOM      4  C   UNL     1       5.157   5.445  18.329  0.00  0.00    +0.000 A 
ATOM      5  C   UNL     1       4.264   5.402  19.411  0.00  0.00    +0.000 A 
ATOM      6  C   UNL     1       3.065   6.124  19.373  0.00  0.00    +0.000 A 
ATOM      7  C   UNL     1       2.751   6.892  18.250  0.00  0.00    +0.000 A 
ATOM      8  C   UNL     1       3.635   6.942  17.169  0.00  0.00    +0.000 A 
ATOM      9  C   UNL     1       4.841   6.231  17.196  0.00  0.00    +0.000 A 
ATOM     10  C   UNL     1       5.751   6.285  16.126  0.00  0.00    +0.000 A 
ENDROOT
BRANCH   1  12
ATOM     11  C   UNL     1       7.328   5.048  13.885  0.00  0.00    +0.000 C 
ATOM     12  O   UNL     1       7.754   5.721  15.065  0.00  0.00    +0.000 OA
ENDBRANCH   1  12
BRANCH   6  13
ATOM     13  C   UNL     1       2.147   6.031  20.542  0.00  0.00    +0.000 C 
ATOM     14  O   UNL     1       1.691   7.059  21.039  0.00  0.00    +0.000 OA
BRANCH  13  15
ATOM     15  C   UNL     1       1.831   4.669  21.131  0.00  0.00    +0.000 C 
BRANCH  15  16
ATOM     16  C   UNL     1       0.742   3.937  20.350  0.00  0.00    +0.000 C 
BRANCH  16  17
ATOM     17  C   UNL     1       1.250   2.638  19.710  0.00  0.00    +0.000 C 
BRANCH  17  18
ATOM     18  C   UNL     1       2.569   2.818  18.945  0.00  0.00    +0.000 C 
ATOM     19  C   UNL     1       3.400   1.534  18.899  0.00  0.00    +0.000 C 
BRANCH  18  20
ATOM     20  C   UNL     1       2.259   3.272  17.526  0.00  0.00    +0.000 C 
ATOM     21  O   UNL     1       3.035   3.196  16.586  0.00  0.00    +0.000 OA
BRANCH  20  22
ATOM     22  O   UNL     1       1.006   3.759  17.382  0.00  0.00    +0.000 OA
ATOM     23  H   UNL     1       0.636   3.664  16.485  0.00  0.00    +0.000 HD
ENDBRANCH  20  22
ENDBRANCH  18  20
ENDBRANCH  17  18
ENDBRANCH  16  17
ENDBRANCH  15  16
ENDBRANCH  13  15
ENDBRANCH   6  13
TORSDOF 8
ENDMDL
