MODEL 1
REMARK VINA RESULT:      -6.4      0.000      0.000
REMARK  Name = 
REMARK  9 active torsions:
REMARK  status: ('A' for Active; 'I' for Inactive)
REMARK    1  A    between atoms: C_1  and  C_2
REMARK    2  A    between atoms: C_2  and  O_3
REMARK    3  A    between atoms: O_3  and  C_4
REMARK    4  A    between atoms: C_4  and  C_5
REMARK    5  A    between atoms: N_10  and  C_11
REMARK    6  A    between atoms: C_11  and  C_12
REMARK    7  A    between atoms: C_11  and  C_13
REMARK    8  A    between atoms: C_17  and  C_19
REMARK    9  A    between atoms: C_19  and  C_20
REMARK                            x       y       z     vdW  Elec       q    Type
REMARK                         _______ _______ _______ _____ _____    ______ ____
ROOT
ATOM      1  C   UNL     1       4.958   4.067  18.003  0.00  0.00    +0.000 C 
ATOM      2  C   UNL     1       4.728   5.534  17.799  0.00  0.00    +0.000 A 
ATOM      3  C   UNL     1       3.493   6.151  17.744  0.00  0.00    +0.000 A 
ATOM      4  N   UNL     1       3.610   7.497  17.563  0.00  0.00    +0.000 NA
ATOM      5  C   UNL     1       4.906   7.712  17.501  0.00  0.00    +0.000 A 
ATOM      6  N   UNL     1       5.635   6.556  17.655  0.00  0.00    +0.000 N 
ATOM      7  C   UNL     1       2.207   5.445  17.936  0.00  0.00    +0.000 C 
ATOM      8  C   UNL     1       2.428   3.926  17.864  0.00  0.00    +0.000 C 
ATOM      9  N   UNL     1       3.682   3.504  18.538  0.00  0.00    +0.000 N 
ATOM     10  C   UNL     1       3.745   2.625  19.609  0.00  0.00    +0.000 C 
ATOM     11  O   UNL     1       4.819   2.257  20.088  0.00  0.00    +0.000 OA
ENDROOT
BRANCH   6  12
ATOM     12  C   UNL     1       7.091   6.481  17.648  0.00  0.00    +0.000 C 
ATOM     13  C   UNL     1       7.713   7.865  17.447  0.00  0.00    +0.000 C 
ATOM     14  C   UNL     1       7.646   5.819  18.914  0.00  0.00    +0.000 C 
ENDBRANCH   6  12
BRANCH  10  15
ATOM     15  C   UNL     1       2.418   2.128  20.169  0.00  0.00    +0.000 C 
ATOM     16  C   UNL     1       1.996   2.857  21.433  0.00  0.00    +0.000 C 
ENDBRANCH  10  15
BRANCH   1  17
ATOM     17  C   UNL     1       5.421   3.334  16.716  0.00  0.00    +0.000 C 
BRANCH  17  18
ATOM     18  O   UNL     1       5.216   4.143  15.551  0.00  0.00    +0.000 OA
BRANCH  18  20
ATOM     19  C   UNL     1       5.974   3.737  13.341  0.00  0.00    +0.000 C 
ATOM     20  C   UNL     1       6.364   4.236  14.720  0.00  0.00    +0.000 C 
ENDBRANCH  18  20
ENDBRANCH  17  18
ENDBRANCH   1  17
TORSDOF 5
ENDMDL
MODEL 2
REMARK VINA RESULT:      -6.2      2.155      5.390
REMARK  Name = 
REMARK  9 active torsions:
REMARK  status: ('A' for Active; 'I' for Inactive)
REMARK    1  A    between atoms: C_1  and  C_2
REMARK    2  A    between atoms: C_2  and  O_3
REMARK    3  A    between atoms: O_3  and  C_4
REMARK    4  A    between atoms: C_4  and  C_5
REMARK    5  A    between atoms: N_10  and  C_11
REMARK    6  A    between atoms: C_11  and  C_12
REMARK    7  A    between atoms: C_11  and  C_13
REMARK    8  A    between atoms: C_17  and  C_19
REMARK    9  A    between atoms: C_19  and  C_20
REMARK                            x       y       z     vdW  Elec       q    Type
REMARK                         _______ _______ _______ _____ _____    ______ ____
ROOT
ATOM      1  C   UNL     1       4.201   4.904  19.309  0.00  0.00    +0.000 C 
ATOM      2  C   UNL     1       3.418   3.902  18.516  0.00  0.00    +0.000 A 
ATOM      3  C   UNL     1       3.444   3.773  17.142  0.00  0.00    +0.000 A 
ATOM      4  N   UNL     1       2.636   2.760  16.715  0.00  0.00    +0.000 NA
ATOM      5  C   UNL     1       2.110   2.271  17.816  0.00  0.00    +0.000 A 
ATOM      6  N   UNL     1       2.563   2.916  18.943  0.00  0.00    +0.000 N 
ATOM      7  C   UNL     1       4.304   4.583  16.251  0.00  0.00    +0.000 C 
ATOM      8  C   UNL     1       4.881   5.777  17.026  0.00  0.00    +0.000 C 
ATOM      9  N   UNL     1       5.278   5.415  18.411  0.00  0.00    +0.000 N 
ATOM     10  C   UNL     1       6.565   5.528  18.918  0.00  0.00    +0.000 C 
ATOM     11  O   UNL     1       6.825   5.275  20.095  0.00  0.00    +0.000 OA
ENDROOT
BRANCH   6  12
ATOM     12  C   UNL     1       2.170   2.584  20.308  0.00  0.00    +0.000 C 
ATOM     13  C   UNL     1       3.392   2.459  21.220  0.00  0.00    +0.000 C 
ATOM     14  C   UNL     1       1.166   3.588  20.885  0.00  0.00    +0.000 C 
ENDBRANCH   6  12
BRANCH  10  15
ATOM     15  C   UNL     1       7.648   5.986  17.949  0.00  0.00    +0.000 C 
ATOM     16  C   UNL     1       7.863   7.490  17.967  0.00  0.00    +0.000 C 
ENDBRANCH  10  15
BRANCH   1  17
ATOM     17  C   UNL     1       3.326   6.054  19.878  0.00  0.00    +0.000 C 
BRANCH  17  18
ATOM     18  O   UNL     1       2.363   6.502  18.917  0.00  0.00    +0.000 OA
BRANCH  18  20
ATOM     19  C   UNL     1       2.367   8.535  17.696  0.00  0.00    +0.000 C 
ATOM     20  C   UNL     1       2.055   7.885  19.031  0.00  0.00    +0.000 C 
ENDBRANCH  18  20
ENDBRANCH  17  18
ENDBRANCH   1  17
TORSDOF 5
ENDMDL
MODEL 3
REMARK VINA RESULT:      -5.9      1.584      4.988
REMARK  Name = 
REMARK  9 active torsions:
REMARK  status: ('A' for Active; 'I' for Inactive)
REMARK    1  A    between atoms: C_1  and  C_2
REMARK    2  A    between atoms: C_2  and  O_3
REMARK    3  A    between atoms: O_3  and  C_4
REMARK    4  A    between atoms: C_4  and  C_5
REMARK    5  A    between atoms: N_10  and  C_11
REMARK    6  A    between atoms: C_11  and  C_12
REMARK    7  A    between atoms: C_11  and  C_13
REMARK    8  A    between atoms: C_17  and  C_19
REMARK    9  A    between atoms: C_19  and  C_20
REMARK                            x       y       z     vdW  Elec       q    Type
REMARK                         _______ _______ _______ _____ _____    ______ ____
ROOT
ATOM      1  C   UNL     1       4.850   4.351  18.245  0.00  0.00    +0.000 C 
ATOM      2  C   UNL     1       3.649   5.003  18.862  0.00  0.00    +0.000 A 
ATOM      3  C   UNL     1       3.188   6.271  18.568  0.00  0.00    +0.000 A 
ATOM      4  N   UNL     1       2.067   6.577  19.282  0.00  0.00    +0.000 NA
ATOM      5  C   UNL     1       1.840   5.509  20.016  0.00  0.00    +0.000 A 
ATOM      6  N   UNL     1       2.762   4.514  19.789  0.00  0.00    +0.000 N 
ATOM      7  C   UNL     1       3.792   7.154  17.547  0.00  0.00    +0.000 C 
ATOM      8  C   UNL     1       5.165   6.607  17.127  0.00  0.00    +0.000 C 
ATOM      9  N   UNL     1       5.172   5.127  17.010  0.00  0.00    +0.000 N 
ATOM     10  C   UNL     1       5.463   4.429  15.847  0.00  0.00    +0.000 C 
ATOM     11  O   UNL     1       5.518   3.198  15.823  0.00  0.00    +0.000 OA
ENDROOT
BRANCH   6  12
ATOM     12  C   UNL     1       2.758   3.211  20.442  0.00  0.00    +0.000 C 
ATOM     13  C   UNL     1       2.018   3.266  21.781  0.00  0.00    +0.000 C 
ATOM     14  C   UNL     1       2.173   2.112  19.548  0.00  0.00    +0.000 C 
ENDBRANCH   6  12
BRANCH  10  15
ATOM     15  C   UNL     1       5.716   5.257  14.594  0.00  0.00    +0.000 C 
ATOM     16  C   UNL     1       6.823   4.690  13.721  0.00  0.00    +0.000 C 
ENDBRANCH  10  15
BRANCH   1  17
ATOM     17  C   UNL     1       6.064   4.265  19.208  0.00  0.00    +0.000 C 
BRANCH  17  18
ATOM     18  O   UNL     1       7.248   4.802  18.607  0.00  0.00    +0.000 OA
BRANCH  18  20
ATOM     19  C   UNL     1       8.146   6.997  18.559  0.00  0.00    +0.000 C 
ATOM     20  C   UNL     1       7.902   5.769  19.417  0.00  0.00    +0.000 C 
ENDBRANCH  18  20
ENDBRANCH  17  18
ENDBRANCH   1  17
TORSDOF 5
ENDMDL
MODEL 4
REMARK VINA RESULT:      -5.9      2.176      5.505
REMARK  Name = 
REMARK  9 active torsions:
REMARK  status: ('A' for Active; 'I' for Inactive)
REMARK    1  A    between atoms: C_1  and  C_2
REMARK    2  A    between atoms: C_2  and  O_3
REMARK    3  A    between atoms: O_3  and  C_4
REMARK    4  A    between atoms: C_4  and  C_5
REMARK    5  A    between atoms: N_10  and  C_11
REMARK    6  A    between atoms: C_11  and  C_12
REMARK    7  A    between atoms: C_11  and  C_13
REMARK    8  A    between atoms: C_17  and  C_19
REMARK    9  A    between atoms: C_19  and  C_20
REMARK                            x       y       z     vdW  Elec       q    Type
REMARK                         _______ _______ _______ _____ _____    ______ ____
ROOT
ATOM      1  C   UNL     1       4.109   5.306  19.144  0.00  0.00    +0.000 C 
ATOM      2  C   UNL     1       3.322   4.171  18.560  0.00  0.00    +0.000 A 
ATOM      3  C   UNL     1       3.373   3.757  17.243  0.00  0.00    +0.000 A 
ATOM      4  N   UNL     1       2.554   2.690  17.019  0.00  0.00    +0.000 NA
ATOM      5  C   UNL     1       1.996   2.450  18.185  0.00  0.00    +0.000 A 
ATOM      6  N   UNL     1       2.439   3.310  19.163  0.00  0.00    +0.000 N 
ATOM      7  C   UNL     1       4.267   4.350  16.224  0.00  0.00    +0.000 C 
ATOM      8  C   UNL     1       4.852   5.671  16.745  0.00  0.00    +0.000 C 
ATOM      9  N   UNL     1       5.214   5.600  18.184  0.00  0.00    +0.000 N 
ATOM     10  C   UNL     1       6.492   5.797  18.686  0.00  0.00    +0.000 C 
ATOM     11  O   UNL     1       6.724   5.792  19.897  0.00  0.00    +0.000 OA
ENDROOT
BRANCH   6  12
ATOM     12  C   UNL     1       2.013   3.277  20.557  0.00  0.00    +0.000 C 
ATOM     13  C   UNL     1       0.542   2.871  20.675  0.00  0.00    +0.000 C 
ATOM     14  C   UNL     1       2.895   2.364  21.415  0.00  0.00    +0.000 C 
ENDBRANCH   6  12
BRANCH  10  15
ATOM     15  C   UNL     1       7.603   6.026  17.669  0.00  0.00    +0.000 C 
ATOM     16  C   UNL     1       7.889   7.497  17.422  0.00  0.00    +0.000 C 
ENDBRANCH  10  15
BRANCH   1  17
ATOM     17  C   UNL     1       3.246   6.562  19.439  0.00  0.00    +0.000 C 
BRANCH  17  18
ATOM     18  O   UNL     1       2.447   6.925  18.307  0.00  0.00    +0.000 OA
BRANCH  18  20
ATOM     19  C   UNL     1       1.428   9.043  17.992  0.00  0.00    +0.000 C 
ATOM     20  C   UNL     1       2.705   8.239  17.833  0.00  0.00    +0.000 C 
ENDBRANCH  18  20
ENDBRANCH  17  18
ENDBRANCH   1  17
TORSDOF 5
ENDMDL
MODEL 5
REMARK VINA RESULT:      -5.7      1.689      4.928
REMARK  Name = 
REMARK  9 active torsions:
REMARK  status: ('A' for Active; 'I' for Inactive)
REMARK    1  A    between atoms: C_1  and  C_2
REMARK    2  A    between atoms: C_2  and  O_3
REMARK    3  A    between atoms: O_3  and  C_4
REMARK    4  A    between atoms: C_4  and  C_5
REMARK    5  A    between atoms: N_10  and  C_11
REMARK    6  A    between atoms: C_11  and  C_12
REMARK    7  A    between atoms: C_11  and  C_13
REMARK    8  A    between atoms: C_17  and  C_19
REMARK    9  A    between atoms: C_19  and  C_20
REMARK                            x       y       z     vdW  Elec       q    Type
REMARK                         _______ _______ _______ _____ _____    ______ ____
ROOT
ATOM      1  C   UNL     1       4.976   4.531  17.664  0.00  0.00    +0.000 C 
ATOM      2  C   UNL     1       3.991   5.623  17.956  0.00  0.00    +0.000 A 
ATOM      3  C   UNL     1       4.016   6.890  17.407  0.00  0.00    +0.000 A 
ATOM      4  N   UNL     1       2.980   7.654  17.855  0.00  0.00    +0.000 NA
ATOM      5  C   UNL     1       2.322   6.869  18.679  0.00  0.00    +0.000 A 
ATOM      6  N   UNL     1       2.882   5.616  18.766  0.00  0.00    +0.000 N 
ATOM      7  C   UNL     1       5.003   7.335  16.397  0.00  0.00    +0.000 C 
ATOM      8  C   UNL     1       6.158   6.325  16.315  0.00  0.00    +0.000 C 
ATOM      9  N   UNL     1       5.689   4.919  16.411  0.00  0.00    +0.000 N 
ATOM     10  C   UNL     1       5.876   3.956  15.430  0.00  0.00    +0.000 C 
ATOM     11  O   UNL     1       5.523   2.786  15.591  0.00  0.00    +0.000 OA
ENDROOT
BRANCH   6  12
ATOM     12  C   UNL     1       2.365   4.527  19.585  0.00  0.00    +0.000 C 
ATOM     13  C   UNL     1       1.727   5.058  20.871  0.00  0.00    +0.000 C 
ATOM     14  C   UNL     1       1.378   3.639  18.819  0.00  0.00    +0.000 C 
ENDBRANCH   6  12
BRANCH  10  15
ATOM     15  C   UNL     1       6.545   4.411  14.140  0.00  0.00    +0.000 C 
ATOM     16  C   UNL     1       6.081   3.629  12.923  0.00  0.00    +0.000 C 
ENDBRANCH  10  15
BRANCH   1  17
ATOM     17  C   UNL     1       5.961   4.266  18.834  0.00  0.00    +0.000 C 
BRANCH  17  18
ATOM     18  O   UNL     1       6.314   5.481  19.505  0.00  0.00    +0.000 OA
BRANCH  18  20
ATOM     19  C   UNL     1       8.106   6.853  18.775  0.00  0.00    +0.000 C 
ATOM     20  C   UNL     1       7.717   5.665  19.636  0.00  0.00    +0.000 C 
ENDBRANCH  18  20
ENDBRANCH  17  18
ENDBRANCH   1  17
TORSDOF 5
ENDMDL
MODEL 6
REMARK VINA RESULT:      -5.7      2.301      4.176
REMARK  Name = 
REMARK  9 active torsions:
REMARK  status: ('A' for Active; 'I' for Inactive)
REMARK    1  A    between atoms: C_1  and  C_2
REMARK    2  A    between atoms: C_2  and  O_3
REMARK    3  A    between atoms: O_3  and  C_4
REMARK    4  A    between atoms: C_4  and  C_5
REMARK    5  A    between atoms: N_10  and  C_11
REMARK    6  A    between atoms: C_11  and  C_12
REMARK    7  A    between atoms: C_11  and  C_13
REMARK    8  A    between atoms: C_17  and  C_19
REMARK    9  A    between atoms: C_19  and  C_20
REMARK                            x       y       z     vdW  Elec       q    Type
REMARK                         _______ _______ _______ _____ _____    ______ ____
ROOT
ATOM      1  C   UNL     1       3.897   5.535  17.138  0.00  0.00    +0.000 C 
ATOM      2  C   UNL     1       5.327   5.096  17.233  0.00  0.00    +0.000 A 
ATOM      3  C   UNL     1       5.982   4.751  18.399  0.00  0.00    +0.000 A 
ATOM      4  N   UNL     1       7.273   4.381  18.161  0.00  0.00    +0.000 NA
ATOM      5  C   UNL     1       7.417   4.501  16.859  0.00  0.00    +0.000 A 
ATOM      6  N   UNL     1       6.261   4.917  16.242  0.00  0.00    +0.000 N 
ATOM      7  C   UNL     1       5.337   4.715  19.730  0.00  0.00    +0.000 C 
ATOM      8  C   UNL     1       3.976   5.424  19.672  0.00  0.00    +0.000 C 
ATOM      9  N   UNL     1       3.239   5.132  18.416  0.00  0.00    +0.000 N 
ATOM     10  C   UNL     1       1.992   4.525  18.356  0.00  0.00    +0.000 C 
ATOM     11  O   UNL     1       1.396   4.366  17.289  0.00  0.00    +0.000 OA
ENDROOT
BRANCH   6  12
ATOM     12  C   UNL     1       6.110   5.123  14.806  0.00  0.00    +0.000 C 
ATOM     13  C   UNL     1       7.472   5.274  14.124  0.00  0.00    +0.000 C 
ATOM     14  C   UNL     1       5.294   4.009  14.140  0.00  0.00    +0.000 C 
ENDBRANCH   6  12
BRANCH  10  15
ATOM     15  C   UNL     1       1.387   4.066  19.676  0.00  0.00    +0.000 C 
ATOM     16  C   UNL     1       1.518   2.569  19.901  0.00  0.00    +0.000 C 
ENDBRANCH  10  15
BRANCH   1  17
ATOM     17  C   UNL     1       3.739   7.054  16.858  0.00  0.00    +0.000 C 
BRANCH  17  18
ATOM     18  O   UNL     1       3.268   7.753  18.016  0.00  0.00    +0.000 OA
BRANCH  18  20
ATOM     19  C   UNL     1       1.482   8.925  19.046  0.00  0.00    +0.000 C 
ATOM     20  C   UNL     1       2.201   8.649  17.739  0.00  0.00    +0.000 C 
ENDBRANCH  18  20
ENDBRANCH  17  18
ENDBRANCH   1  17
TORSDOF 5
ENDMDL
MODEL 7
REMARK VINA RESULT:      -5.4      1.521      4.954
REMARK  Name = 
REMARK  9 active torsions:
REMARK  status: ('A' for Active; 'I' for Inactive)
REMARK    1  A    between atoms: C_1  and  C_2
REMARK    2  A    between atoms: C_2  and  O_3
REMARK    3  A    between atoms: O_3  and  C_4
REMARK    4  A    between atoms: C_4  and  C_5
REMARK    5  A    between atoms: N_10  and  C_11
REMARK    6  A    between atoms: C_11  and  C_12
REMARK    7  A    between atoms: C_11  and  C_13
REMARK    8  A    between atoms: C_17  and  C_19
REMARK    9  A    between atoms: C_19  and  C_20
REMARK                            x       y       z     vdW  Elec       q    Type
REMARK                         _______ _______ _______ _____ _____    ______ ____
ROOT
ATOM      1  C   UNL     1       4.787   4.569  17.825  0.00  0.00    +0.000 C 
ATOM      2  C   UNL     1       3.852   5.725  18.016  0.00  0.00    +0.000 A 
ATOM      3  C   UNL     1       4.060   7.007  17.547  0.00  0.00    +0.000 A 
ATOM      4  N   UNL     1       3.024   7.834  17.867  0.00  0.00    +0.000 NA
ATOM      5  C   UNL     1       2.184   7.072  18.532  0.00  0.00    +0.000 A 
ATOM      6  N   UNL     1       2.629   5.775  18.639  0.00  0.00    +0.000 N 
ATOM      7  C   UNL     1       5.227   7.411  16.732  0.00  0.00    +0.000 C 
ATOM      8  C   UNL     1       6.302   6.314  16.779  0.00  0.00    +0.000 C 
ATOM      9  N   UNL     1       5.720   4.949  16.723  0.00  0.00    +0.000 N 
ATOM     10  C   UNL     1       5.992   4.015  15.734  0.00  0.00    +0.000 C 
ATOM     11  O   UNL     1       5.532   2.872  15.773  0.00  0.00    +0.000 OA
ENDROOT
BRANCH   6  12
ATOM     12  C   UNL     1       1.906   4.698  19.306  0.00  0.00    +0.000 C 
ATOM     13  C   UNL     1       1.084   5.231  20.482  0.00  0.00    +0.000 C 
ATOM     14  C   UNL     1       1.017   3.908  18.340  0.00  0.00    +0.000 C 
ENDBRANCH   6  12
BRANCH  10  15
ATOM     15  C   UNL     1       6.893   4.466  14.592  0.00  0.00    +0.000 C 
ATOM     16  C   UNL     1       6.424   3.972  13.234  0.00  0.00    +0.000 C 
ENDBRANCH  10  15
BRANCH   1  17
ATOM     17  C   UNL     1       5.547   4.175  19.120  0.00  0.00    +0.000 C 
BRANCH  17  18
ATOM     18  O   UNL     1       5.438   2.771  19.384  0.00  0.00    +0.000 OA
BRANCH  18  20
ATOM     19  C   UNL     1       3.678   1.360  18.651  0.00  0.00    +0.000 C 
ATOM     20  C   UNL     1       4.116   2.360  19.705  0.00  0.00    +0.000 C 
ENDBRANCH  18  20
ENDBRANCH  17  18
ENDBRANCH   1  17
TORSDOF 5
ENDMDL
MODEL 8
REMARK VINA RESULT:      -5.4      2.670      5.183
REMARK  Name = 
REMARK  9 active torsions:
REMARK  status: ('A' for Active; 'I' for Inactive)
REMARK    1  A    between atoms: C_1  and  C_2
REMARK    2  A    between atoms: C_2  and  O_3
REMARK    3  A    between atoms: O_3  and  C_4
REMARK    4  A    between atoms: C_4  and  C_5
REMARK    5  A    between atoms: N_10  and  C_11
REMARK    6  A    between atoms: C_11  and  C_12
REMARK    7  A    between atoms: C_11  and  C_13
REMARK    8  A    between atoms: C_17  and  C_19
REMARK    9  A    between atoms: C_19  and  C_20
REMARK                            x       y       z     vdW  Elec       q    Type
REMARK                         _______ _______ _______ _____ _____    ______ ____
ROOT
ATOM      1  C   UNL     1       3.255   6.103  18.744  0.00  0.00    +0.000 C 
ATOM      2  C   UNL     1       2.491   4.975  19.369  0.00  0.00    +0.000 A 
ATOM      3  C   UNL     1       1.552   5.106  20.374  0.00  0.00    +0.000 A 
ATOM      4  N   UNL     1       1.018   3.901  20.724  0.00  0.00    +0.000 NA
ATOM      5  C   UNL     1       1.625   3.031  19.946  0.00  0.00    +0.000 A 
ATOM      6  N   UNL     1       2.519   3.631  19.090  0.00  0.00    +0.000 N 
ATOM      7  C   UNL     1       1.125   6.403  20.944  0.00  0.00    +0.000 C 
ATOM      8  C   UNL     1       2.096   7.510  20.509  0.00  0.00    +0.000 C 
ATOM      9  N   UNL     1       2.530   7.360  19.096  0.00  0.00    +0.000 N 
ATOM     10  C   UNL     1       2.317   8.303  18.101  0.00  0.00    +0.000 C 
ATOM     11  O   UNL     1       2.757   8.155  16.959  0.00  0.00    +0.000 OA
ENDROOT
BRANCH   6  12
ATOM     12  C   UNL     1       3.327   2.927  18.101  0.00  0.00    +0.000 C 
ATOM     13  C   UNL     1       3.488   1.450  18.470  0.00  0.00    +0.000 C 
ATOM     14  C   UNL     1       2.766   3.071  16.682  0.00  0.00    +0.000 C 
ENDBRANCH   6  12
BRANCH  10  15
ATOM     15  C   UNL     1       1.513   9.538  18.485  0.00  0.00    +0.000 C 
ATOM     16  C   UNL     1       0.098   9.522  17.933  0.00  0.00    +0.000 C 
ENDBRANCH  10  15
BRANCH   1  17
ATOM     17  C   UNL     1       4.744   6.150  19.180  0.00  0.00    +0.000 C 
BRANCH  17  18
ATOM     18  O   UNL     1       5.607   5.659  18.148  0.00  0.00    +0.000 OA
BRANCH  18  20
ATOM     19  C   UNL     1       5.412   5.907  15.797  0.00  0.00    +0.000 C 
ATOM     20  C   UNL     1       5.810   6.589  17.093  0.00  0.00    +0.000 C 
ENDBRANCH  18  20
ENDBRANCH  17  18
ENDBRANCH   1  17
TORSDOF 5
ENDMDL
MODEL 9
REMARK VINA RESULT:      -5.4      2.315      4.669
REMARK  Name = 
REMARK  9 active torsions:
REMARK  status: ('A' for Active; 'I' for Inactive)
REMARK    1  A    between atoms: C_1  and  C_2
REMARK    2  A    between atoms: C_2  and  O_3
REMARK    3  A    between atoms: O_3  and  C_4
REMARK    4  A    between atoms: C_4  and  C_5
REMARK    5  A    between atoms: N_10  and  C_11
REMARK    6  A    between atoms: C_11  and  C_12
REMARK    7  A    between atoms: C_11  and  C_13
REMARK    8  A    between atoms: C_17  and  C_19
REMARK    9  A    between atoms: C_19  and  C_20
REMARK                            x       y       z     vdW  Elec       q    Type
REMARK                         _______ _______ _______ _____ _____    ______ ____
ROOT
ATOM      1  C   UNL     1       4.387   6.697  17.275  0.00  0.00    +0.000 C 
ATOM      2  C   UNL     1       4.332   5.210  17.097  0.00  0.00    +0.000 A 
ATOM      3  C   UNL     1       3.703   4.325  17.951  0.00  0.00    +0.000 A 
ATOM      4  N   UNL     1       3.814   3.038  17.514  0.00  0.00    +0.000 NA
ATOM      5  C   UNL     1       4.511   3.125  16.402  0.00  0.00    +0.000 A 
ATOM      6  N   UNL     1       4.838   4.424  16.091  0.00  0.00    +0.000 N 
ATOM      7  C   UNL     1       2.938   4.734  19.150  0.00  0.00    +0.000 C 
ATOM      8  C   UNL     1       3.230   6.206  19.479  0.00  0.00    +0.000 C 
ATOM      9  N   UNL     1       3.323   7.051  18.261  0.00  0.00    +0.000 N 
ATOM     10  C   UNL     1       2.503   8.137  17.990  0.00  0.00    +0.000 C 
ATOM     11  O   UNL     1       2.667   8.844  16.994  0.00  0.00    +0.000 OA
ENDROOT
BRANCH   6  12
ATOM     12  C   UNL     1       5.591   4.834  14.912  0.00  0.00    +0.000 C 
ATOM     13  C   UNL     1       7.091   4.893  15.207  0.00  0.00    +0.000 C 
ATOM     14  C   UNL     1       5.314   3.934  13.702  0.00  0.00    +0.000 C 
ENDBRANCH   6  12
BRANCH  10  15
ATOM     15  C   UNL     1       1.386   8.421  18.986  0.00  0.00    +0.000 C 
ATOM     16  C   UNL     1       0.834   9.832  18.873  0.00  0.00    +0.000 C 
ENDBRANCH  10  15
BRANCH   1  17
ATOM     17  C   UNL     1       5.782   7.211  17.719  0.00  0.00    +0.000 C 
BRANCH  17  18
ATOM     18  O   UNL     1       6.526   6.188  18.393  0.00  0.00    +0.000 OA
BRANCH  18  20
ATOM     19  C   UNL     1       8.107   7.922  18.046  0.00  0.00    +0.000 C 
ATOM     20  C   UNL     1       7.897   6.513  18.571  0.00  0.00    +0.000 C 
ENDBRANCH  18  20
ENDBRANCH  17  18
ENDBRANCH   1  17
TORSDOF 5
ENDMDL
