MODEL 1
REMARK VINA RESULT:      -7.7      0.000      0.000
REMARK  Name = 
REMARK  9 active torsions:
REMARK  status: ('A' for Active; 'I' for Inactive)
REMARK    1  A    between atoms: C_1  and  C_2
REMARK    2  A    between atoms: C_2  and  C_3
REMARK    3  A    between atoms: C_2  and  C_32
REMARK    4  A    between atoms: C_3  and  C_4
REMARK    5  A    between atoms: C_9  and  O_10
REMARK    6  A    between atoms: C_9  and  C_11
REMARK    7  A    between atoms: C_11  and  N_12
REMARK    8  A    between atoms: C_14  and  C_15
REMARK    9  A    between atoms: C_20  and  C_21
REMARK                            x       y       z     vdW  Elec       q    Type
REMARK                         _______ _______ _______ _____ _____    ______ ____
ROOT
ATOM      1  C   UNL     1       2.001   6.201  19.702  0.00  0.00    +0.000 C 
ATOM      2  O   UNL     1       1.752   5.500  20.681  0.00  0.00    +0.000 OA
ATOM      3  N   UNL     1       2.035   7.587  19.786  0.00  0.00    +0.000 N 
ATOM      4  C   UNL     1       2.340   8.496  18.689  0.00  0.00    +0.000 C 
ATOM      5  C   UNL     1       1.090   9.276  18.307  0.00  0.00    +0.000 C 
ATOM      6  C   UNL     1       0.486  10.028  19.515  0.00  0.00    +0.000 C 
ATOM      7  C   UNL     1       0.346   9.084  20.727  0.00  0.00    +0.000 C 
ATOM      8  C   UNL     1       1.598   8.257  21.006  0.00  0.00    +0.000 C 
ENDROOT
BRANCH   6   9
ATOM      9  O   UNL     1       1.415  11.069  19.869  0.00  0.00    +0.000 OA
ATOM     10  H   UNL     1       1.201  11.860  19.345  0.00  0.00    +0.000 HD
ENDBRANCH   6   9
BRANCH   1  11
ATOM     11  C   UNL     1       2.278   5.607  18.324  0.00  0.00    +0.000 C 
BRANCH  11  13
ATOM     12  C   UNL     1       3.186   3.535  17.128  0.00  0.00    +0.000 C 
ATOM     13  C   UNL     1       3.392   4.548  18.262  0.00  0.00    +0.000 C 
BRANCH  13  14
ATOM     14  C   UNL     1       4.742   5.269  18.171  0.00  0.00    +0.000 A 
ATOM     15  C   UNL     1       4.914   6.292  17.221  0.00  0.00    +0.000 A 
ATOM     16  C   UNL     1       6.149   6.927  17.065  0.00  0.00    +0.000 A 
ATOM     17  C   UNL     1       7.234   6.555  17.855  0.00  0.00    +0.000 A 
ATOM     18  C   UNL     1       7.081   5.548  18.804  0.00  0.00    +0.000 A 
ATOM     19  C   UNL     1       5.849   4.904  18.955  0.00  0.00    +0.000 A 
ENDBRANCH  13  14
ENDBRANCH  11  13
ENDBRANCH   1  11
BRANCH   6  20
ATOM     20  C   UNL     1      -0.900  10.654  19.124  0.00  0.00    +0.000 C 
BRANCH  20  21
ATOM     21  N   UNL     1      -1.193  11.922  19.814  0.00  0.00    +0.000 N 
ATOM     22  C   UNL     1      -1.967  11.894  20.964  0.00  0.00    +0.000 A 
ATOM     23  C   UNL     1      -2.520  13.004  21.483  0.00  0.00    +0.000 A 
ATOM     24  C   UNL     1      -2.228  14.299  20.870  0.00  0.00    +0.000 A 
ATOM     25  C   UNL     1      -1.408  14.358  19.806  0.00  0.00    +0.000 A 
ATOM     26  C   UNL     1      -0.847  13.126  19.202  0.00  0.00    +0.000 A 
ATOM     27  O   UNL     1      -0.149  13.214  18.192  0.00  0.00    +0.000 OA
BRANCH  24  28
ATOM     28  C   UNL     1      -2.801  15.566  21.361  0.00  0.00    +0.000 A 
ATOM     29  C   UNL     1      -4.019  16.041  20.850  0.00  0.00    +0.000 A 
ATOM     30  C   UNL     1      -4.569  17.230  21.326  0.00  0.00    +0.000 A 
ATOM     31  C   UNL     1      -3.912  17.954  22.322  0.00  0.00    +0.000 A 
ATOM     32  C   UNL     1      -2.707  17.483  22.844  0.00  0.00    +0.000 A 
ATOM     33  C   UNL     1      -2.151  16.294  22.365  0.00  0.00    +0.000 A 
ENDBRANCH  24  28
BRANCH  23  34
ATOM     34  C   UNL     1      -3.449  12.802  22.549  0.00  0.00    +0.000 A 
ATOM     35  C   UNL     1      -3.182  12.689  23.911  0.00  0.00    +0.000 A 
ATOM     36  C   UNL     1      -4.417  12.527  24.579  0.00  0.00    +0.000 A 
ATOM     37  C   UNL     1      -5.374  12.534  23.597  0.00  0.00    +0.000 A 
ATOM     38  O   UNL     1      -4.809  12.706  22.377  0.00  0.00    +0.000 OA
ENDBRANCH  23  34
ENDBRANCH  20  21
ENDBRANCH   6  20
TORSDOF 8
ENDMDL
MODEL 2
REMARK VINA RESULT:      -7.7      2.123      3.386
REMARK  Name = 
REMARK  9 active torsions:
REMARK  status: ('A' for Active; 'I' for Inactive)
REMARK    1  A    between atoms: C_1  and  C_2
REMARK    2  A    between atoms: C_2  and  C_3
REMARK    3  A    between atoms: C_2  and  C_32
REMARK    4  A    between atoms: C_3  and  C_4
REMARK    5  A    between atoms: C_9  and  O_10
REMARK    6  A    between atoms: C_9  and  C_11
REMARK    7  A    between atoms: C_11  and  N_12
REMARK    8  A    between atoms: C_14  and  C_15
REMARK    9  A    between atoms: C_20  and  C_21
REMARK                            x       y       z     vdW  Elec       q    Type
REMARK                         _______ _______ _______ _____ _____    ______ ____
ROOT
ATOM      1  C   UNL     1       1.821   9.753  17.933  0.00  0.00    +0.000 C 
ATOM      2  O   UNL     1       2.859  10.322  17.596  0.00  0.00    +0.000 OA
ATOM      3  N   UNL     1       0.721  10.459  18.400  0.00  0.00    +0.000 N 
ATOM      4  C   UNL     1      -0.552   9.876  18.801  0.00  0.00    +0.000 C 
ATOM      5  C   UNL     1      -0.733  10.024  20.306  0.00  0.00    +0.000 C 
ATOM      6  C   UNL     1      -0.616  11.497  20.759  0.00  0.00    +0.000 C 
ATOM      7  C   UNL     1       0.650  12.150  20.166  0.00  0.00    +0.000 C 
ATOM      8  C   UNL     1       0.830  11.888  18.673  0.00  0.00    +0.000 C 
ENDROOT
BRANCH   6   9
ATOM      9  O   UNL     1      -1.761  12.192  20.232  0.00  0.00    +0.000 OA
ATOM     10  H   UNL     1      -2.514  12.038  20.829  0.00  0.00    +0.000 HD
ENDBRANCH   6   9
BRANCH   1  11
ATOM     11  C   UNL     1       1.669   8.236  17.876  0.00  0.00    +0.000 C 
BRANCH  11  13
ATOM     12  C   UNL     1       2.018   7.292  20.229  0.00  0.00    +0.000 C 
ATOM     13  C   UNL     1       2.591   7.435  18.812  0.00  0.00    +0.000 C 
BRANCH  13  14
ATOM     14  C   UNL     1       2.890   6.082  18.158  0.00  0.00    +0.000 A 
ATOM     15  C   UNL     1       1.900   5.084  18.155  0.00  0.00    +0.000 A 
ATOM     16  C   UNL     1       2.157   3.816  17.624  0.00  0.00    +0.000 A 
ATOM     17  C   UNL     1       3.408   3.524  17.085  0.00  0.00    +0.000 A 
ATOM     18  C   UNL     1       4.399   4.501  17.075  0.00  0.00    +0.000 A 
ATOM     19  C   UNL     1       4.146   5.766  17.614  0.00  0.00    +0.000 A 
ENDBRANCH  13  14
ENDBRANCH  11  13
ENDBRANCH   1  11
BRANCH   6  20
ATOM     20  C   UNL     1      -0.612  11.581  22.327  0.00  0.00    +0.000 C 
BRANCH  20  21
ATOM     21  N   UNL     1      -1.476  12.647  22.866  0.00  0.00    +0.000 N 
ATOM     22  C   UNL     1      -2.823  12.383  23.055  0.00  0.00    +0.000 A 
ATOM     23  C   UNL     1      -3.724  13.361  23.258  0.00  0.00    +0.000 A 
ATOM     24  C   UNL     1      -3.260  14.743  23.371  0.00  0.00    +0.000 A 
ATOM     25  C   UNL     1      -1.945  15.010  23.278  0.00  0.00    +0.000 A 
ATOM     26  C   UNL     1      -0.963  13.937  22.997  0.00  0.00    +0.000 A 
ATOM     27  O   UNL     1       0.225  14.228  22.858  0.00  0.00    +0.000 OA
BRANCH  24  28
ATOM     28  C   UNL     1      -4.175  15.881  23.578  0.00  0.00    +0.000 A 
ATOM     29  C   UNL     1      -4.396  16.391  24.867  0.00  0.00    +0.000 A 
ATOM     30  C   UNL     1      -5.247  17.477  25.061  0.00  0.00    +0.000 A 
ATOM     31  C   UNL     1      -5.882  18.070  23.969  0.00  0.00    +0.000 A 
ATOM     32  C   UNL     1      -5.660  17.577  22.683  0.00  0.00    +0.000 A 
ATOM     33  C   UNL     1      -4.809  16.486  22.487  0.00  0.00    +0.000 A 
ENDBRANCH  24  28
BRANCH  23  34
ATOM     34  C   UNL     1      -5.096  12.964  23.240  0.00  0.00    +0.000 A 
ATOM     35  C   UNL     1      -5.967  12.841  24.319  0.00  0.00    +0.000 A 
ATOM     36  C   UNL     1      -7.226  12.449  23.810  0.00  0.00    +0.000 A 
ATOM     37  C   UNL     1      -7.061  12.338  22.454  0.00  0.00    +0.000 A 
ATOM     38  O   UNL     1      -5.791  12.650  22.098  0.00  0.00    +0.000 OA
ENDBRANCH  23  34
ENDBRANCH  20  21
ENDBRANCH   6  20
TORSDOF 8
ENDMDL
MODEL 3
REMARK VINA RESULT:      -7.6      0.465      1.282
REMARK  Name = 
REMARK  9 active torsions:
REMARK  status: ('A' for Active; 'I' for Inactive)
REMARK    1  A    between atoms: C_1  and  C_2
REMARK    2  A    between atoms: C_2  and  C_3
REMARK    3  A    between atoms: C_2  and  C_32
REMARK    4  A    between atoms: C_3  and  C_4
REMARK    5  A    between atoms: C_9  and  O_10
REMARK    6  A    between atoms: C_9  and  C_11
REMARK    7  A    between atoms: C_11  and  N_12
REMARK    8  A    between atoms: C_14  and  C_15
REMARK    9  A    between atoms: C_20  and  C_21
REMARK                            x       y       z     vdW  Elec       q    Type
REMARK                         _______ _______ _______ _____ _____    ______ ____
ROOT
ATOM      1  C   UNL     1       2.010   6.281  19.692  0.00  0.00    +0.000 C 
ATOM      2  O   UNL     1       1.794   5.597  20.691  0.00  0.00    +0.000 OA
ATOM      3  N   UNL     1       2.053   7.667  19.751  0.00  0.00    +0.000 N 
ATOM      4  C   UNL     1       2.322   8.556  18.629  0.00  0.00    +0.000 C 
ATOM      5  C   UNL     1       1.062   9.335  18.279  0.00  0.00    +0.000 C 
ATOM      6  C   UNL     1       0.506  10.111  19.495  0.00  0.00    +0.000 C 
ATOM      7  C   UNL     1       0.406   9.189  20.728  0.00  0.00    +0.000 C 
ATOM      8  C   UNL     1       1.664   8.360  20.974  0.00  0.00    +0.000 C 
ENDROOT
BRANCH   6   9
ATOM      9  O   UNL     1       1.451  11.153  19.797  0.00  0.00    +0.000 OA
ATOM     10  H   UNL     1       1.186  11.956  19.316  0.00  0.00    +0.000 HD
ENDBRANCH   6   9
BRANCH   1  11
ATOM     11  C   UNL     1       2.234   5.662  18.315  0.00  0.00    +0.000 C 
BRANCH  11  13
ATOM     12  C   UNL     1       3.017   3.528  17.139  0.00  0.00    +0.000 C 
ATOM     13  C   UNL     1       3.302   4.557  18.243  0.00  0.00    +0.000 C 
BRANCH  13  14
ATOM     14  C   UNL     1       4.676   5.218  18.092  0.00  0.00    +0.000 A 
ATOM     15  C   UNL     1       5.674   4.958  19.048  0.00  0.00    +0.000 A 
ATOM     16  C   UNL     1       6.918   5.592  18.980  0.00  0.00    +0.000 A 
ATOM     17  C   UNL     1       7.188   6.495  17.954  0.00  0.00    +0.000 A 
ATOM     18  C   UNL     1       6.215   6.761  16.996  0.00  0.00    +0.000 A 
ATOM     19  C   UNL     1       4.967   6.135  17.069  0.00  0.00    +0.000 A 
ENDBRANCH  13  14
ENDBRANCH  11  13
ENDBRANCH   1  11
BRANCH   6  20
ATOM     20  C   UNL     1      -0.890  10.737  19.144  0.00  0.00    +0.000 C 
BRANCH  20  21
ATOM     21  N   UNL     1      -1.158  12.012  19.833  0.00  0.00    +0.000 N 
ATOM     22  C   UNL     1      -1.937  12.001  20.979  0.00  0.00    +0.000 A 
ATOM     23  C   UNL     1      -2.468  13.124  21.496  0.00  0.00    +0.000 A 
ATOM     24  C   UNL     1      -2.144  14.411  20.884  0.00  0.00    +0.000 A 
ATOM     25  C   UNL     1      -1.319  14.452  19.823  0.00  0.00    +0.000 A 
ATOM     26  C   UNL     1      -0.783  13.207  19.221  0.00  0.00    +0.000 A 
ATOM     27  O   UNL     1      -0.080  13.280  18.214  0.00  0.00    +0.000 OA
BRANCH  24  28
ATOM     28  C   UNL     1      -2.691  15.691  21.372  0.00  0.00    +0.000 A 
ATOM     29  C   UNL     1      -2.043  16.396  22.397  0.00  0.00    +0.000 A 
ATOM     30  C   UNL     1      -2.550  17.614  22.847  0.00  0.00    +0.000 A 
ATOM     31  C   UNL     1      -3.707  18.144  22.273  0.00  0.00    +0.000 A 
ATOM     32  C   UNL     1      -4.352  17.455  21.246  0.00  0.00    +0.000 A 
ATOM     33  C   UNL     1      -3.847  16.232  20.796  0.00  0.00    +0.000 A 
ENDBRANCH  24  28
BRANCH  23  34
ATOM     34  C   UNL     1      -3.405  12.943  22.558  0.00  0.00    +0.000 A 
ATOM     35  C   UNL     1      -4.794  13.022  22.500  0.00  0.00    +0.000 A 
ATOM     36  C   UNL     1      -5.294  12.741  23.791  0.00  0.00    +0.000 A 
ATOM     37  C   UNL     1      -4.193  12.519  24.577  0.00  0.00    +0.000 A 
ATOM     38  O   UNL     1      -3.055  12.630  23.849  0.00  0.00    +0.000 OA
ENDBRANCH  23  34
ENDBRANCH  20  21
ENDBRANCH   6  20
TORSDOF 8
ENDMDL
MODEL 4
REMARK VINA RESULT:      -7.5      1.069      1.382
REMARK  Name = 
REMARK  9 active torsions:
REMARK  status: ('A' for Active; 'I' for Inactive)
REMARK    1  A    between atoms: C_1  and  C_2
REMARK    2  A    between atoms: C_2  and  C_3
REMARK    3  A    between atoms: C_2  and  C_32
REMARK    4  A    between atoms: C_3  and  C_4
REMARK    5  A    between atoms: C_9  and  O_10
REMARK    6  A    between atoms: C_9  and  C_11
REMARK    7  A    between atoms: C_11  and  N_12
REMARK    8  A    between atoms: C_14  and  C_15
REMARK    9  A    between atoms: C_20  and  C_21
REMARK                            x       y       z     vdW  Elec       q    Type
REMARK                         _______ _______ _______ _____ _____    ______ ____
ROOT
ATOM      1  C   UNL     1       1.912   6.706  19.706  0.00  0.00    +0.000 C 
ATOM      2  O   UNL     1       1.710   5.942  20.648  0.00  0.00    +0.000 OA
ATOM      3  N   UNL     1       1.884   8.085  19.867  0.00  0.00    +0.000 N 
ATOM      4  C   UNL     1       2.131   9.066  18.818  0.00  0.00    +0.000 C 
ATOM      5  C   UNL     1       0.841   9.808  18.498  0.00  0.00    +0.000 C 
ATOM      6  C   UNL     1       0.224  10.464  19.754  0.00  0.00    +0.000 C 
ATOM      7  C   UNL     1       0.145   9.450  20.913  0.00  0.00    +0.000 C 
ATOM      8  C   UNL     1       1.438   8.666  21.128  0.00  0.00    +0.000 C 
ENDROOT
BRANCH   6   9
ATOM      9  O   UNL     1       1.110  11.526  20.152  0.00  0.00    +0.000 OA
ATOM     10  H   UNL     1       1.523  11.895  19.353  0.00  0.00    +0.000 HD
ENDBRANCH   6   9
BRANCH   1  11
ATOM     11  C   UNL     1       2.192   6.202  18.293  0.00  0.00    +0.000 C 
BRANCH  11  13
ATOM     12  C   UNL     1       1.848   3.717  17.790  0.00  0.00    +0.000 C 
ATOM     13  C   UNL     1       2.844   4.812  18.195  0.00  0.00    +0.000 C 
BRANCH  13  14
ATOM     14  C   UNL     1       4.041   4.904  17.241  0.00  0.00    +0.000 A 
ATOM     15  C   UNL     1       4.500   6.168  16.832  0.00  0.00    +0.000 A 
ATOM     16  C   UNL     1       5.547   6.289  15.913  0.00  0.00    +0.000 A 
ATOM     17  C   UNL     1       6.156   5.151  15.390  0.00  0.00    +0.000 A 
ATOM     18  C   UNL     1       5.718   3.891  15.788  0.00  0.00    +0.000 A 
ATOM     19  C   UNL     1       4.664   3.768  16.699  0.00  0.00    +0.000 A 
ENDBRANCH  13  14
ENDBRANCH  11  13
ENDBRANCH   1  11
BRANCH   6  20
ATOM     20  C   UNL     1      -1.195  11.047  19.417  0.00  0.00    +0.000 C 
BRANCH  20  21
ATOM     21  N   UNL     1      -1.525  12.273  20.165  0.00  0.00    +0.000 N 
ATOM     22  C   UNL     1      -2.342  12.176  21.280  0.00  0.00    +0.000 A 
ATOM     23  C   UNL     1      -2.924  13.253  21.838  0.00  0.00    +0.000 A 
ATOM     24  C   UNL     1      -2.618  14.581  21.309  0.00  0.00    +0.000 A 
ATOM     25  C   UNL     1      -1.758  14.704  20.283  0.00  0.00    +0.000 A 
ATOM     26  C   UNL     1      -1.165  13.511  19.634  0.00  0.00    +0.000 A 
ATOM     27  O   UNL     1      -0.429  13.659  18.658  0.00  0.00    +0.000 OA
BRANCH  24  28
ATOM     28  C   UNL     1      -3.219  15.816  21.847  0.00  0.00    +0.000 A 
ATOM     29  C   UNL     1      -2.867  16.281  23.124  0.00  0.00    +0.000 A 
ATOM     30  C   UNL     1      -3.423  17.457  23.625  0.00  0.00    +0.000 A 
ATOM     31  C   UNL     1      -4.331  18.185  22.854  0.00  0.00    +0.000 A 
ATOM     32  C   UNL     1      -4.678  17.736  21.580  0.00  0.00    +0.000 A 
ATOM     33  C   UNL     1      -4.126  16.555  21.077  0.00  0.00    +0.000 A 
ENDBRANCH  24  28
BRANCH  23  34
ATOM     34  C   UNL     1      -3.892  12.987  22.854  0.00  0.00    +0.000 A 
ATOM     35  C   UNL     1      -3.674  12.502  24.141  0.00  0.00    +0.000 A 
ATOM     36  C   UNL     1      -4.927  12.428  24.790  0.00  0.00    +0.000 A 
ATOM     37  C   UNL     1      -5.848  12.855  23.869  0.00  0.00    +0.000 A 
ATOM     38  O   UNL     1      -5.241  13.200  22.707  0.00  0.00    +0.000 OA
ENDBRANCH  23  34
ENDBRANCH  20  21
ENDBRANCH   6  20
TORSDOF 8
ENDMDL
MODEL 5
REMARK VINA RESULT:      -7.3      2.689     10.969
REMARK  Name = 
REMARK  9 active torsions:
REMARK  status: ('A' for Active; 'I' for Inactive)
REMARK    1  A    between atoms: C_1  and  C_2
REMARK    2  A    between atoms: C_2  and  C_3
REMARK    3  A    between atoms: C_2  and  C_32
REMARK    4  A    between atoms: C_3  and  C_4
REMARK    5  A    between atoms: C_9  and  O_10
REMARK    6  A    between atoms: C_9  and  C_11
REMARK    7  A    between atoms: C_11  and  N_12
REMARK    8  A    between atoms: C_14  and  C_15
REMARK    9  A    between atoms: C_20  and  C_21
REMARK                            x       y       z     vdW  Elec       q    Type
REMARK                         _______ _______ _______ _____ _____    ______ ____
ROOT
ATOM      1  C   UNL     1      -4.403  11.260  18.753  0.00  0.00    +0.000 C 
ATOM      2  O   UNL     1      -5.002  10.407  18.100  0.00  0.00    +0.000 OA
ATOM      3  N   UNL     1      -3.089  11.607  18.469  0.00  0.00    +0.000 N 
ATOM      4  C   UNL     1      -2.307  12.617  19.172  0.00  0.00    +0.000 C 
ATOM      5  C   UNL     1      -1.193  11.944  19.961  0.00  0.00    +0.000 C 
ATOM      6  C   UNL     1      -0.300  11.060  19.062  0.00  0.00    +0.000 C 
ATOM      7  C   UNL     1      -1.162  10.126  18.189  0.00  0.00    +0.000 C 
ATOM      8  C   UNL     1      -2.323  10.837  17.496  0.00  0.00    +0.000 C 
ENDROOT
BRANCH   6   9
ATOM      9  O   UNL     1       0.422  11.946  18.186  0.00  0.00    +0.000 OA
ATOM     10  H   UNL     1       0.922  11.406  17.550  0.00  0.00    +0.000 HD
ENDBRANCH   6   9
BRANCH   1  11
ATOM     11  C   UNL     1      -5.049  11.989  19.928  0.00  0.00    +0.000 C 
BRANCH  11  13
ATOM     12  C   UNL     1      -7.233  12.618  21.102  0.00  0.00    +0.000 C 
ATOM     13  C   UNL     1      -6.539  12.335  19.763  0.00  0.00    +0.000 C 
BRANCH  13  14
ATOM     14  C   UNL     1      -6.661  13.502  18.778  0.00  0.00    +0.000 A 
ATOM     15  C   UNL     1      -6.509  14.819  19.246  0.00  0.00    +0.000 A 
ATOM     16  C   UNL     1      -6.676  15.911  18.390  0.00  0.00    +0.000 A 
ATOM     17  C   UNL     1      -6.995  15.708  17.050  0.00  0.00    +0.000 A 
ATOM     18  C   UNL     1      -7.145  14.411  16.566  0.00  0.00    +0.000 A 
ATOM     19  C   UNL     1      -6.987  13.318  17.424  0.00  0.00    +0.000 A 
ENDBRANCH  13  14
ENDBRANCH  11  13
ENDBRANCH   1  11
BRANCH   6  20
ATOM     20  C   UNL     1       0.708  10.238  19.942  0.00  0.00    +0.000 C 
BRANCH  20  21
ATOM     21  N   UNL     1       1.345   9.120  19.226  0.00  0.00    +0.000 N 
ATOM     22  C   UNL     1       1.209   7.837  19.733  0.00  0.00    +0.000 A 
ATOM     23  C   UNL     1       1.983   6.817  19.322  0.00  0.00    +0.000 A 
ATOM     24  C   UNL     1       2.943   7.043  18.242  0.00  0.00    +0.000 A 
ATOM     25  C   UNL     1       3.029   8.259  17.676  0.00  0.00    +0.000 A 
ATOM     26  C   UNL     1       2.215   9.394  18.172  0.00  0.00    +0.000 A 
ATOM     27  O   UNL     1       2.365  10.508  17.669  0.00  0.00    +0.000 OA
BRANCH  24  28
ATOM     28  C   UNL     1       3.843   5.990  17.737  0.00  0.00    +0.000 A 
ATOM     29  C   UNL     1       3.332   4.739  17.357  0.00  0.00    +0.000 A 
ATOM     30  C   UNL     1       4.180   3.749  16.864  0.00  0.00    +0.000 A 
ATOM     31  C   UNL     1       5.548   4.000  16.739  0.00  0.00    +0.000 A 
ATOM     32  C   UNL     1       6.063   5.244  17.103  0.00  0.00    +0.000 A 
ATOM     33  C   UNL     1       5.215   6.236  17.602  0.00  0.00    +0.000 A 
ENDBRANCH  24  28
BRANCH  23  34
ATOM     34  C   UNL     1       1.869   5.603  20.066  0.00  0.00    +0.000 A 
ATOM     35  C   UNL     1       0.840   4.665  20.025  0.00  0.00    +0.000 A 
ATOM     36  C   UNL     1       1.178   3.619  20.912  0.00  0.00    +0.000 A 
ATOM     37  C   UNL     1       2.384   3.972  21.462  0.00  0.00    +0.000 A 
ATOM     38  O   UNL     1       2.812   5.155  20.958  0.00  0.00    +0.000 OA
ENDBRANCH  23  34
ENDBRANCH  20  21
ENDBRANCH   6  20
TORSDOF 8
ENDMDL
MODEL 6
REMARK VINA RESULT:      -7.3      2.089      3.156
REMARK  Name = 
REMARK  9 active torsions:
REMARK  status: ('A' for Active; 'I' for Inactive)
REMARK    1  A    between atoms: C_1  and  C_2
REMARK    2  A    between atoms: C_2  and  C_3
REMARK    3  A    between atoms: C_2  and  C_32
REMARK    4  A    between atoms: C_3  and  C_4
REMARK    5  A    between atoms: C_9  and  O_10
REMARK    6  A    between atoms: C_9  and  C_11
REMARK    7  A    between atoms: C_11  and  N_12
REMARK    8  A    between atoms: C_14  and  C_15
REMARK    9  A    between atoms: C_20  and  C_21
REMARK                            x       y       z     vdW  Elec       q    Type
REMARK                         _______ _______ _______ _____ _____    ______ ____
ROOT
ATOM      1  C   UNL     1       1.857   9.788  17.964  0.00  0.00    +0.000 C 
ATOM      2  O   UNL     1       2.861  10.405  17.614  0.00  0.00    +0.000 OA
ATOM      3  N   UNL     1       0.726  10.442  18.435  0.00  0.00    +0.000 N 
ATOM      4  C   UNL     1      -0.513   9.799  18.852  0.00  0.00    +0.000 C 
ATOM      5  C   UNL     1      -0.689   9.951  20.356  0.00  0.00    +0.000 C 
ATOM      6  C   UNL     1      -0.642  11.432  20.797  0.00  0.00    +0.000 C 
ATOM      7  C   UNL     1       0.584  12.142  20.188  0.00  0.00    +0.000 C 
ATOM      8  C   UNL     1       0.765  11.876  18.696  0.00  0.00    +0.000 C 
ENDROOT
BRANCH   6   9
ATOM      9  O   UNL     1      -1.825  12.063  20.274  0.00  0.00    +0.000 OA
ATOM     10  H   UNL     1      -2.595  11.521  20.518  0.00  0.00    +0.000 HD
ENDBRANCH   6   9
BRANCH   1  11
ATOM     11  C   UNL     1       1.780   8.264  17.922  0.00  0.00    +0.000 C 
BRANCH  11  13
ATOM     12  C   UNL     1       1.951   6.825  20.031  0.00  0.00    +0.000 C 
ATOM     13  C   UNL     1       2.712   7.519  18.893  0.00  0.00    +0.000 C 
BRANCH  13  14
ATOM     14  C   UNL     1       3.579   6.548  18.085  0.00  0.00    +0.000 A 
ATOM     15  C   UNL     1       3.769   5.237  18.558  0.00  0.00    +0.000 A 
ATOM     16  C   UNL     1       4.605   4.342  17.882  0.00  0.00    +0.000 A 
ATOM     17  C   UNL     1       5.262   4.740  16.721  0.00  0.00    +0.000 A 
ATOM     18  C   UNL     1       5.083   6.031  16.235  0.00  0.00    +0.000 A 
ATOM     19  C   UNL     1       4.255   6.930  16.915  0.00  0.00    +0.000 A 
ENDBRANCH  13  14
ENDBRANCH  11  13
ENDBRANCH   1  11
BRANCH   6  20
ATOM     20  C   UNL     1      -0.630  11.529  22.364  0.00  0.00    +0.000 C 
BRANCH  20  21
ATOM     21  N   UNL     1      -1.481  12.607  22.897  0.00  0.00    +0.000 N 
ATOM     22  C   UNL     1      -2.833  12.362  23.081  0.00  0.00    +0.000 A 
ATOM     23  C   UNL     1      -3.721  13.353  23.279  0.00  0.00    +0.000 A 
ATOM     24  C   UNL     1      -3.239  14.729  23.392  0.00  0.00    +0.000 A 
ATOM     25  C   UNL     1      -1.920  14.978  23.304  0.00  0.00    +0.000 A 
ATOM     26  C   UNL     1      -0.952  13.890  23.028  0.00  0.00    +0.000 A 
ATOM     27  O   UNL     1       0.241  14.165  22.894  0.00  0.00    +0.000 OA
BRANCH  24  28
ATOM     28  C   UNL     1      -4.139  15.879  23.593  0.00  0.00    +0.000 A 
ATOM     29  C   UNL     1      -4.818  16.450  22.506  0.00  0.00    +0.000 A 
ATOM     30  C   UNL     1      -5.682  17.527  22.699  0.00  0.00    +0.000 A 
ATOM     31  C   UNL     1      -5.882  18.041  23.981  0.00  0.00    +0.000 A 
ATOM     32  C   UNL     1      -5.220  17.473  25.069  0.00  0.00    +0.000 A 
ATOM     33  C   UNL     1      -4.351  16.396  24.878  0.00  0.00    +0.000 A 
ENDBRANCH  24  28
BRANCH  23  34
ATOM     34  C   UNL     1      -5.098  12.975  23.256  0.00  0.00    +0.000 A 
ATOM     35  C   UNL     1      -5.980  12.880  24.330  0.00  0.00    +0.000 A 
ATOM     36  C   UNL     1      -7.240  12.498  23.817  0.00  0.00    +0.000 A 
ATOM     37  C   UNL     1      -7.066  12.363  22.464  0.00  0.00    +0.000 A 
ATOM     38  O   UNL     1      -5.789  12.653  22.114  0.00  0.00    +0.000 OA
ENDBRANCH  23  34
ENDBRANCH  20  21
ENDBRANCH   6  20
TORSDOF 8
ENDMDL
MODEL 7
REMARK VINA RESULT:      -7.2      2.291      4.023
REMARK  Name = 
REMARK  9 active torsions:
REMARK  status: ('A' for Active; 'I' for Inactive)
REMARK    1  A    between atoms: C_1  and  C_2
REMARK    2  A    between atoms: C_2  and  C_3
REMARK    3  A    between atoms: C_2  and  C_32
REMARK    4  A    between atoms: C_3  and  C_4
REMARK    5  A    between atoms: C_9  and  O_10
REMARK    6  A    between atoms: C_9  and  C_11
REMARK    7  A    between atoms: C_11  and  N_12
REMARK    8  A    between atoms: C_14  and  C_15
REMARK    9  A    between atoms: C_20  and  C_21
REMARK                            x       y       z     vdW  Elec       q    Type
REMARK                         _______ _______ _______ _____ _____    ______ ____
ROOT
ATOM      1  C   UNL     1       3.189   7.510  17.817  0.00  0.00    +0.000 C 
ATOM      2  O   UNL     1       3.628   8.025  16.790  0.00  0.00    +0.000 OA
ATOM      3  N   UNL     1       2.003   7.937  18.398  0.00  0.00    +0.000 N 
ATOM      4  C   UNL     1       1.396   7.375  19.598  0.00  0.00    +0.000 C 
ATOM      5  C   UNL     1       1.468   8.389  20.731  0.00  0.00    +0.000 C 
ATOM      6  C   UNL     1       0.816   9.735  20.344  0.00  0.00    +0.000 C 
ATOM      7  C   UNL     1       1.339  10.219  18.976  0.00  0.00    +0.000 C 
ATOM      8  C   UNL     1       1.334   9.134  17.902  0.00  0.00    +0.000 C 
ENDROOT
BRANCH   6   9
ATOM      9  O   UNL     1      -0.598   9.498  20.220  0.00  0.00    +0.000 OA
ATOM     10  H   UNL     1      -0.746   8.929  19.444  0.00  0.00    +0.000 HD
ENDBRANCH   6   9
BRANCH   1  11
ATOM     11  C   UNL     1       3.917   6.377  18.535  0.00  0.00    +0.000 C 
BRANCH  11  13
ATOM     12  C   UNL     1       4.955   4.185  17.719  0.00  0.00    +0.000 C 
ATOM     13  C   UNL     1       3.659   4.962  17.989  0.00  0.00    +0.000 C 
BRANCH  13  14
ATOM     14  C   UNL     1       2.723   4.231  18.957  0.00  0.00    +0.000 A 
ATOM     15  C   UNL     1       3.057   4.167  20.321  0.00  0.00    +0.000 A 
ATOM     16  C   UNL     1       2.261   3.455  21.224  0.00  0.00    +0.000 A 
ATOM     17  C   UNL     1       1.117   2.797  20.780  0.00  0.00    +0.000 A 
ATOM     18  C   UNL     1       0.768   2.853  19.434  0.00  0.00    +0.000 A 
ATOM     19  C   UNL     1       1.568   3.557  18.529  0.00  0.00    +0.000 A 
ENDBRANCH  13  14
ENDBRANCH  11  13
ENDBRANCH   1  11
BRANCH   6  20
ATOM     20  C   UNL     1       1.084  10.807  21.460  0.00  0.00    +0.000 C 
BRANCH  20  21
ATOM     21  N   UNL     1      -0.092  11.633  21.783  0.00  0.00    +0.000 N 
ATOM     22  C   UNL     1      -0.191  12.900  21.229  0.00  0.00    +0.000 A 
ATOM     23  C   UNL     1      -1.060  13.818  21.689  0.00  0.00    +0.000 A 
ATOM     24  C   UNL     1      -1.993  13.446  22.751  0.00  0.00    +0.000 A 
ATOM     25  C   UNL     1      -1.973  12.194  23.242  0.00  0.00    +0.000 A 
ATOM     26  C   UNL     1      -0.975  11.203  22.773  0.00  0.00    +0.000 A 
ATOM     27  O   UNL     1      -0.947  10.086  23.289  0.00  0.00    +0.000 OA
BRANCH  24  28
ATOM     28  C   UNL     1      -2.969  14.389  23.327  0.00  0.00    +0.000 A 
ATOM     29  C   UNL     1      -2.657  15.115  24.487  0.00  0.00    +0.000 A 
ATOM     30  C   UNL     1      -3.572  16.020  25.022  0.00  0.00    +0.000 A 
ATOM     31  C   UNL     1      -4.808  16.213  24.402  0.00  0.00    +0.000 A 
ATOM     32  C   UNL     1      -5.122  15.504  23.242  0.00  0.00    +0.000 A 
ATOM     33  C   UNL     1      -4.207  14.594  22.706  0.00  0.00    +0.000 A 
ENDBRANCH  24  28
BRANCH  23  34
ATOM     34  C   UNL     1      -0.918  15.136  21.158  0.00  0.00    +0.000 A 
ATOM     35  C   UNL     1      -0.345  16.250  21.767  0.00  0.00    +0.000 A 
ATOM     36  C   UNL     1      -0.407  17.321  20.848  0.00  0.00    +0.000 A 
ATOM     37  C   UNL     1      -1.024  16.818  19.732  0.00  0.00    +0.000 A 
ATOM     38  O   UNL     1      -1.330  15.509  19.902  0.00  0.00    +0.000 OA
ENDBRANCH  23  34
ENDBRANCH  20  21
ENDBRANCH   6  20
TORSDOF 8
ENDMDL
MODEL 8
REMARK VINA RESULT:      -7.2      2.338      3.903
REMARK  Name = 
REMARK  9 active torsions:
REMARK  status: ('A' for Active; 'I' for Inactive)
REMARK    1  A    between atoms: C_1  and  C_2
REMARK    2  A    between atoms: C_2  and  C_3
REMARK    3  A    between atoms: C_2  and  C_32
REMARK    4  A    between atoms: C_3  and  C_4
REMARK    5  A    between atoms: C_9  and  O_10
REMARK    6  A    between atoms: C_9  and  C_11
REMARK    7  A    between atoms: C_11  and  N_12
REMARK    8  A    between atoms: C_14  and  C_15
REMARK    9  A    between atoms: C_20  and  C_21
REMARK                            x       y       z     vdW  Elec       q    Type
REMARK                         _______ _______ _______ _____ _____    ______ ____
ROOT
ATOM      1  C   UNL     1       3.257   7.444  17.724  0.00  0.00    +0.000 C 
ATOM      2  O   UNL     1       3.694   7.976  16.705  0.00  0.00    +0.000 OA
ATOM      3  N   UNL     1       2.076   7.866  18.319  0.00  0.00    +0.000 N 
ATOM      4  C   UNL     1       1.472   7.284  19.511  0.00  0.00    +0.000 C 
ATOM      5  C   UNL     1       1.554   8.276  20.663  0.00  0.00    +0.000 C 
ATOM      6  C   UNL     1       0.908   9.633  20.304  0.00  0.00    +0.000 C 
ATOM      7  C   UNL     1       1.427  10.140  18.943  0.00  0.00    +0.000 C 
ATOM      8  C   UNL     1       1.411   9.076  17.849  0.00  0.00    +0.000 C 
ENDROOT
BRANCH   6   9
ATOM      9  O   UNL     1      -0.508   9.406  20.182  0.00  0.00    +0.000 OA
ATOM     10  H   UNL     1      -0.683   9.029  19.302  0.00  0.00    +0.000 HD
ENDBRANCH   6   9
BRANCH   1  11
ATOM     11  C   UNL     1       3.982   6.294  18.417  0.00  0.00    +0.000 C 
BRANCH  11  13
ATOM     12  C   UNL     1       5.011   4.143  17.488  0.00  0.00    +0.000 C 
ATOM     13  C   UNL     1       3.719   4.892  17.840  0.00  0.00    +0.000 C 
BRANCH  13  14
ATOM     14  C   UNL     1       2.839   4.118  18.828  0.00  0.00    +0.000 A 
ATOM     15  C   UNL     1       1.622   3.572  18.385  0.00  0.00    +0.000 A 
ATOM     16  C   UNL     1       0.763   2.915  19.272  0.00  0.00    +0.000 A 
ATOM     17  C   UNL     1       1.107   2.789  20.615  0.00  0.00    +0.000 A 
ATOM     18  C   UNL     1       2.310   3.319  21.071  0.00  0.00    +0.000 A 
ATOM     19  C   UNL     1       3.165   3.984  20.188  0.00  0.00    +0.000 A 
ENDBRANCH  13  14
ENDBRANCH  11  13
ENDBRANCH   1  11
BRANCH   6  20
ATOM     20  C   UNL     1       1.187  10.681  21.440  0.00  0.00    +0.000 C 
BRANCH  20  21
ATOM     21  N   UNL     1       0.019  11.513  21.780  0.00  0.00    +0.000 N 
ATOM     22  C   UNL     1      -0.084  12.779  21.225  0.00  0.00    +0.000 A 
ATOM     23  C   UNL     1      -0.943  13.700  21.697  0.00  0.00    +0.000 A 
ATOM     24  C   UNL     1      -1.861  13.333  22.774  0.00  0.00    +0.000 A 
ATOM     25  C   UNL     1      -1.837  12.082  23.267  0.00  0.00    +0.000 A 
ATOM     26  C   UNL     1      -0.850  11.087  22.783  0.00  0.00    +0.000 A 
ATOM     27  O   UNL     1      -0.818   9.970  23.300  0.00  0.00    +0.000 OA
BRANCH  24  28
ATOM     28  C   UNL     1      -2.824  14.280  23.364  0.00  0.00    +0.000 A 
ATOM     29  C   UNL     1      -4.101  14.439  22.802  0.00  0.00    +0.000 A 
ATOM     30  C   UNL     1      -5.018  15.322  23.370  0.00  0.00    +0.000 A 
ATOM     31  C   UNL     1      -4.672  16.052  24.508  0.00  0.00    +0.000 A 
ATOM     32  C   UNL     1      -3.409  15.892  25.080  0.00  0.00    +0.000 A 
ATOM     33  C   UNL     1      -2.487  15.010  24.510  0.00  0.00    +0.000 A 
ENDBRANCH  24  28
BRANCH  23  34
ATOM     34  C   UNL     1      -0.805  15.018  21.162  0.00  0.00    +0.000 A 
ATOM     35  C   UNL     1       0.135  15.987  21.501  0.00  0.00    +0.000 A 
ATOM     36  C   UNL     1      -0.103  17.119  20.689  0.00  0.00    +0.000 A 
ATOM     37  C   UNL     1      -1.180  16.794  19.905  0.00  0.00    +0.000 A 
ATOM     38  O   UNL     1      -1.606  15.535  20.174  0.00  0.00    +0.000 OA
ENDBRANCH  23  34
ENDBRANCH  20  21
ENDBRANCH   6  20
TORSDOF 8
ENDMDL
MODEL 9
REMARK VINA RESULT:      -7.2      2.025      2.770
REMARK  Name = 
REMARK  9 active torsions:
REMARK  status: ('A' for Active; 'I' for Inactive)
REMARK    1  A    between atoms: C_1  and  C_2
REMARK    2  A    between atoms: C_2  and  C_3
REMARK    3  A    between atoms: C_2  and  C_32
REMARK    4  A    between atoms: C_3  and  C_4
REMARK    5  A    between atoms: C_9  and  O_10
REMARK    6  A    between atoms: C_9  and  C_11
REMARK    7  A    between atoms: C_11  and  N_12
REMARK    8  A    between atoms: C_14  and  C_15
REMARK    9  A    between atoms: C_20  and  C_21
REMARK                            x       y       z     vdW  Elec       q    Type
REMARK                         _______ _______ _______ _____ _____    ______ ____
ROOT
ATOM      1  C   UNL     1       2.011   6.929  20.014  0.00  0.00    +0.000 C 
ATOM      2  O   UNL     1       1.676   6.553  21.136  0.00  0.00    +0.000 OA
ATOM      3  N   UNL     1       1.821   8.240  19.597  0.00  0.00    +0.000 N 
ATOM      4  C   UNL     1       2.204   8.780  18.299  0.00  0.00    +0.000 C 
ATOM      5  C   UNL     1       0.955   9.111  17.494  0.00  0.00    +0.000 C 
ATOM      6  C   UNL     1       0.016  10.075  18.255  0.00  0.00    +0.000 C 
ATOM      7  C   UNL     1      -0.225   9.575  19.694  0.00  0.00    +0.000 C 
ATOM      8  C   UNL     1       1.054   9.166  20.421  0.00  0.00    +0.000 C 
ENDROOT
BRANCH   6   9
ATOM      9  O   UNL     1       0.690  11.344  18.333  0.00  0.00    +0.000 OA
ATOM     10  H   UNL     1       0.714  11.734  17.441  0.00  0.00    +0.000 HD
ENDBRANCH   6   9
BRANCH   1  11
ATOM     11  C   UNL     1       2.644   5.986  18.995  0.00  0.00    +0.000 C 
BRANCH  11  13
ATOM     12  C   UNL     1       3.110   3.610  19.821  0.00  0.00    +0.000 C 
ATOM     13  C   UNL     1       3.690   5.004  19.550  0.00  0.00    +0.000 C 
BRANCH  13  14
ATOM     14  C   UNL     1       4.882   4.970  18.587  0.00  0.00    +0.000 A 
ATOM     15  C   UNL     1       4.688   4.536  17.264  0.00  0.00    +0.000 A 
ATOM     16  C   UNL     1       5.763   4.431  16.376  0.00  0.00    +0.000 A 
ATOM     17  C   UNL     1       7.050   4.759  16.793  0.00  0.00    +0.000 A 
ATOM     18  C   UNL     1       7.262   5.195  18.098  0.00  0.00    +0.000 A 
ATOM     19  C   UNL     1       6.189   5.292  18.990  0.00  0.00    +0.000 A 
ENDBRANCH  13  14
ENDBRANCH  11  13
ENDBRANCH   1  11
BRANCH   6  20
ATOM     20  C   UNL     1      -1.339  10.234  17.478  0.00  0.00    +0.000 C 
BRANCH  20  21
ATOM     21  N   UNL     1      -2.291  11.152  18.128  0.00  0.00    +0.000 N 
ATOM     22  C   UNL     1      -1.882  11.852  19.253  0.00  0.00    +0.000 A 
ATOM     23  C   UNL     1      -2.754  12.473  20.067  0.00  0.00    +0.000 A 
ATOM     24  C   UNL     1      -4.172  12.487  19.713  0.00  0.00    +0.000 A 
ATOM     25  C   UNL     1      -4.578  11.888  18.580  0.00  0.00    +0.000 A 
ATOM     26  C   UNL     1      -3.623  11.155  17.715  0.00  0.00    +0.000 A 
ATOM     27  O   UNL     1      -4.041  10.568  16.718  0.00  0.00    +0.000 OA
BRANCH  24  28
ATOM     28  C   UNL     1      -5.201  13.128  20.552  0.00  0.00    +0.000 A 
ATOM     29  C   UNL     1      -5.415  14.514  20.481  0.00  0.00    +0.000 A 
ATOM     30  C   UNL     1      -6.400  15.118  21.261  0.00  0.00    +0.000 A 
ATOM     31  C   UNL     1      -7.185  14.344  22.117  0.00  0.00    +0.000 A 
ATOM     32  C   UNL     1      -6.987  12.964  22.186  0.00  0.00    +0.000 A 
ATOM     33  C   UNL     1      -5.999  12.357  21.407  0.00  0.00    +0.000 A 
ENDBRANCH  24  28
BRANCH  23  34
ATOM     34  C   UNL     1      -2.217  12.985  21.287  0.00  0.00    +0.000 A 
ATOM     35  C   UNL     1      -2.170  12.363  22.532  0.00  0.00    +0.000 A 
ATOM     36  C   UNL     1      -1.522  13.243  23.427  0.00  0.00    +0.000 A 
ATOM     37  C   UNL     1      -1.218  14.361  22.695  0.00  0.00    +0.000 A 
ATOM     38  O   UNL     1      -1.622  14.217  21.409  0.00  0.00    +0.000 OA
ENDBRANCH  23  34
ENDBRANCH  20  21
ENDBRANCH   6  20
TORSDOF 8
ENDMDL
