MODEL 1
REMARK VINA RESULT:      -7.6      0.000      0.000
REMARK  Name = 
REMARK  11 active torsions:
REMARK  status: ('A' for Active; 'I' for Inactive)
REMARK    1  A    between atoms: C_1  and  C_2
REMARK    2  A    between atoms: C_6  and  C_7
REMARK    3  A    between atoms: C_7  and  C_8
REMARK    4  A    between atoms: C_8  and  O_9
REMARK    5  A    between atoms: C_10  and  N_11
REMARK    6  A    between atoms: C_12  and  C_14
REMARK    7  A    between atoms: C_21  and  O_23
REMARK    8  A    between atoms: O_23  and  C_24
REMARK    9  A    between atoms: C_24  and  C_25
REMARK   10  A    between atoms: C_24  and  C_26
REMARK   11  A    between atoms: C_24  and  C_27
REMARK                            x       y       z     vdW  Elec       q    Type
REMARK                         _______ _______ _______ _____ _____    ______ ____
ROOT
ATOM      1  C   UNL     1       2.303   7.875  18.921  0.00  0.00    +0.000 A 
ATOM      2  C   UNL     1       1.898   8.644  17.823  0.00  0.00    +0.000 A 
ATOM      3  C   UNL     1       0.960   9.673  17.974  0.00  0.00    +0.000 A 
ATOM      4  C   UNL     1       0.413   9.957  19.243  0.00  0.00    +0.000 A 
ATOM      5  N   UNL     1      -0.562  10.906  19.511  0.00  0.00    +0.000 NA
ATOM      6  C   UNL     1      -0.811  10.949  20.797  0.00  0.00    +0.000 A 
ATOM      7  N   UNL     1      -1.756  11.807  21.313  0.00  0.00    +0.000 N 
ATOM      8  C   UNL     1      -1.949  12.119  22.627  0.00  0.00    +0.000 C 
ATOM      9  O   UNL     1      -1.294  11.712  23.575  0.00  0.00    +0.000 OA
ATOM     10  S   UNL     1       0.072   9.837  21.749  0.00  0.00    +0.000 S 
ATOM     11  C   UNL     1       0.870   9.224  20.342  0.00  0.00    +0.000 A 
ATOM     12  C   UNL     1       1.820   8.185  20.208  0.00  0.00    +0.000 A 
ATOM     13  H   UNL     1      -2.292  12.325  20.636  0.00  0.00    +0.000 HD
ENDROOT
BRANCH   1  15
ATOM     14  N   UNL     1       3.902   6.744  17.476  0.00  0.00    +0.000 N 
ATOM     15  C   UNL     1       3.262   6.733  18.712  0.00  0.00    +0.000 C 
ATOM     16  O   UNL     1       3.360   5.866  19.573  0.00  0.00    +0.000 OA
ATOM     17  H   UNL     1       3.390   7.243  16.761  0.00  0.00    +0.000 HD
BRANCH  14  24
ATOM     18  C   UNL     1       6.701   7.541  17.358  0.00  0.00    +0.000 C 
ATOM     19  C   UNL     1       6.205   6.181  16.939  0.00  0.00    +0.000 A 
ATOM     20  C   UNL     1       7.158   5.309  16.382  0.00  0.00    +0.000 A 
ATOM     21  C   UNL     1       6.805   4.029  15.984  0.00  0.00    +0.000 A 
ATOM     22  C   UNL     1       5.492   3.602  16.147  0.00  0.00    +0.000 A 
ATOM     23  C   UNL     1       4.494   4.457  16.666  0.00  0.00    +0.000 A 
ATOM     24  C   UNL     1       4.842   5.788  17.004  0.00  0.00    +0.000 A 
BRANCH  23  25
ATOM     25  C   UNL     1       3.115   3.854  16.873  0.00  0.00    +0.000 C 
BRANCH  25  26
ATOM     26  C   UNL     1       3.053   2.691  17.875  0.00  0.00    +0.000 C 
BRANCH  26  27
ATOM     27  O   UNL     1       1.991   1.788  17.578  0.00  0.00    +0.000 OA
ATOM     28  H   UNL     1       1.269   1.992  18.199  0.00  0.00    +0.000 HD
ENDBRANCH  26  27
ENDBRANCH  25  26
ENDBRANCH  23  25
ENDBRANCH  14  24
ENDBRANCH   1  15
BRANCH   8  29
ATOM     29  O   UNL     1      -2.988  12.998  22.742  0.00  0.00    +0.000 OA
BRANCH  29  30
ATOM     30  C   UNL     1      -2.742  14.354  23.230  0.00  0.00    +0.000 C 
ATOM     31  C   UNL     1      -1.320  14.813  22.877  0.00  0.00    +0.000 C 
ATOM     32  C   UNL     1      -3.731  15.280  22.495  0.00  0.00    +0.000 C 
ATOM     33  C   UNL     1      -3.030  14.472  24.731  0.00  0.00    +0.000 C 
ENDBRANCH  29  30
ENDBRANCH   8  29
TORSDOF 7
ENDMDL
MODEL 2
REMARK VINA RESULT:      -7.6      1.548      2.994
REMARK  Name = 
REMARK  11 active torsions:
REMARK  status: ('A' for Active; 'I' for Inactive)
REMARK    1  A    between atoms: C_1  and  C_2
REMARK    2  A    between atoms: C_6  and  C_7
REMARK    3  A    between atoms: C_7  and  C_8
REMARK    4  A    between atoms: C_8  and  O_9
REMARK    5  A    between atoms: C_10  and  N_11
REMARK    6  A    between atoms: C_12  and  C_14
REMARK    7  A    between atoms: C_21  and  O_23
REMARK    8  A    between atoms: O_23  and  C_24
REMARK    9  A    between atoms: C_24  and  C_25
REMARK   10  A    between atoms: C_24  and  C_26
REMARK   11  A    between atoms: C_24  and  C_27
REMARK                            x       y       z     vdW  Elec       q    Type
REMARK                         _______ _______ _______ _____ _____    ______ ____
ROOT
ATOM      1  C   UNL     1       2.142   7.712  19.241  0.00  0.00    +0.000 A 
ATOM      2  C   UNL     1       2.001   8.488  18.084  0.00  0.00    +0.000 A 
ATOM      3  C   UNL     1       1.257   9.674  18.103  0.00  0.00    +0.000 A 
ATOM      4  C   UNL     1       0.642  10.111  19.295  0.00  0.00    +0.000 A 
ATOM      5  N   UNL     1      -0.165  11.231  19.427  0.00  0.00    +0.000 NA
ATOM      6  C   UNL     1      -0.533  11.378  20.676  0.00  0.00    +0.000 A 
ATOM      7  N   UNL     1      -1.355  12.414  21.062  0.00  0.00    +0.000 N 
ATOM      8  C   UNL     1      -1.622  12.817  22.337  0.00  0.00    +0.000 C 
ATOM      9  O   UNL     1      -1.154  12.345  23.363  0.00  0.00    +0.000 OA
ATOM     10  S   UNL     1       0.027  10.172  21.751  0.00  0.00    +0.000 S 
ATOM     11  C   UNL     1       0.841   9.361  20.457  0.00  0.00    +0.000 A 
ATOM     12  C   UNL     1       1.594   8.163  20.457  0.00  0.00    +0.000 A 
ATOM     13  H   UNL     1      -1.713  12.988  20.315  0.00  0.00    +0.000 HD
ENDROOT
BRANCH   1  15
ATOM     14  N   UNL     1       2.167   5.361  18.613  0.00  0.00    +0.000 N 
ATOM     15  C   UNL     1       2.893   6.408  19.170  0.00  0.00    +0.000 C 
ATOM     16  O   UNL     1       4.019   6.337  19.652  0.00  0.00    +0.000 OA
ATOM     17  H   UNL     1       1.165   5.478  18.690  0.00  0.00    +0.000 HD
BRANCH  14  24
ATOM     18  C   UNL     1       0.802   3.263  20.105  0.00  0.00    +0.000 C 
ATOM     19  C   UNL     1       1.956   3.003  19.170  0.00  0.00    +0.000 A 
ATOM     20  C   UNL     1       2.429   1.680  19.109  0.00  0.00    +0.000 A 
ATOM     21  C   UNL     1       3.472   1.336  18.264  0.00  0.00    +0.000 A 
ATOM     22  C   UNL     1       4.052   2.312  17.462  0.00  0.00    +0.000 A 
ATOM     23  C   UNL     1       3.633   3.661  17.518  0.00  0.00    +0.000 A 
ATOM     24  C   UNL     1       2.616   4.023  18.435  0.00  0.00    +0.000 A 
BRANCH  23  25
ATOM     25  C   UNL     1       4.284   4.622  16.537  0.00  0.00    +0.000 C 
BRANCH  25  26
ATOM     26  C   UNL     1       5.784   4.868  16.760  0.00  0.00    +0.000 C 
BRANCH  26  27
ATOM     27  O   UNL     1       6.020   6.032  17.548  0.00  0.00    +0.000 OA
ATOM     28  H   UNL     1       5.209   6.568  17.505  0.00  0.00    +0.000 HD
ENDBRANCH  26  27
ENDBRANCH  25  26
ENDBRANCH  23  25
ENDBRANCH  14  24
ENDBRANCH   1  15
BRANCH   8  29
ATOM     29  O   UNL     1      -2.489  13.873  22.312  0.00  0.00    +0.000 OA
BRANCH  29  30
ATOM     30  C   UNL     1      -3.897  13.663  22.646  0.00  0.00    +0.000 C 
ATOM     31  C   UNL     1      -4.050  13.166  24.090  0.00  0.00    +0.000 C 
ATOM     32  C   UNL     1      -4.589  15.037  22.546  0.00  0.00    +0.000 C 
ATOM     33  C   UNL     1      -4.580  12.730  21.639  0.00  0.00    +0.000 C 
ENDBRANCH  29  30
ENDBRANCH   8  29
TORSDOF 7
ENDMDL
MODEL 3
REMARK VINA RESULT:      -7.5      1.727      2.622
REMARK  Name = 
REMARK  11 active torsions:
REMARK  status: ('A' for Active; 'I' for Inactive)
REMARK    1  A    between atoms: C_1  and  C_2
REMARK    2  A    between atoms: C_6  and  C_7
REMARK    3  A    between atoms: C_7  and  C_8
REMARK    4  A    between atoms: C_8  and  O_9
REMARK    5  A    between atoms: C_10  and  N_11
REMARK    6  A    between atoms: C_12  and  C_14
REMARK    7  A    between atoms: C_21  and  O_23
REMARK    8  A    between atoms: O_23  and  C_24
REMARK    9  A    between atoms: C_24  and  C_25
REMARK   10  A    between atoms: C_24  and  C_26
REMARK   11  A    between atoms: C_24  and  C_27
REMARK                            x       y       z     vdW  Elec       q    Type
REMARK                         _______ _______ _______ _____ _____    ______ ____
ROOT
ATOM      1  C   UNL     1       2.087   7.847  19.212  0.00  0.00    +0.000 A 
ATOM      2  C   UNL     1       2.025   8.574  18.016  0.00  0.00    +0.000 A 
ATOM      3  C   UNL     1       1.332   9.789  17.951  0.00  0.00    +0.000 A 
ATOM      4  C   UNL     1       0.689  10.305  19.096  0.00  0.00    +0.000 A 
ATOM      5  N   UNL     1      -0.074  11.462  19.144  0.00  0.00    +0.000 NA
ATOM      6  C   UNL     1      -0.486  11.682  20.368  0.00  0.00    +0.000 A 
ATOM      7  N   UNL     1      -1.277  12.767  20.672  0.00  0.00    +0.000 N 
ATOM      8  C   UNL     1      -1.578  13.239  21.915  0.00  0.00    +0.000 C 
ATOM      9  O   UNL     1      -1.172  12.797  22.980  0.00  0.00    +0.000 OA
ATOM     10  S   UNL     1      -0.021  10.505  21.518  0.00  0.00    +0.000 S 
ATOM     11  C   UNL     1       0.809   9.602  20.297  0.00  0.00    +0.000 A 
ATOM     12  C   UNL     1       1.510   8.376  20.383  0.00  0.00    +0.000 A 
ATOM     13  H   UNL     1      -1.581  13.320  19.886  0.00  0.00    +0.000 HD
ENDROOT
BRANCH   1  15
ATOM     14  N   UNL     1       2.122   5.513  18.524  0.00  0.00    +0.000 N 
ATOM     15  C   UNL     1       2.784   6.512  19.231  0.00  0.00    +0.000 C 
ATOM     16  O   UNL     1       3.804   6.377  19.897  0.00  0.00    +0.000 OA
ATOM     17  H   UNL     1       1.128   5.675  18.430  0.00  0.00    +0.000 HD
BRANCH  14  24
ATOM     18  C   UNL     1       4.342   4.961  16.721  0.00  0.00    +0.000 C 
ATOM     19  C   UNL     1       3.615   3.892  17.498  0.00  0.00    +0.000 A 
ATOM     20  C   UNL     1       3.998   2.562  17.244  0.00  0.00    +0.000 A 
ATOM     21  C   UNL     1       3.403   1.510  17.923  0.00  0.00    +0.000 A 
ATOM     22  C   UNL     1       2.422   1.776  18.872  0.00  0.00    +0.000 A 
ATOM     23  C   UNL     1       1.981   3.094  19.131  0.00  0.00    +0.000 A 
ATOM     24  C   UNL     1       2.539   4.161  18.384  0.00  0.00    +0.000 A 
BRANCH  23  25
ATOM     25  C   UNL     1       0.964   3.269  20.245  0.00  0.00    +0.000 C 
BRANCH  25  26
ATOM     26  C   UNL     1       1.341   2.616  21.584  0.00  0.00    +0.000 C 
BRANCH  26  27
ATOM     27  O   UNL     1       2.429   3.287  22.215  0.00  0.00    +0.000 OA
ATOM     28  H   UNL     1       2.917   3.751  21.512  0.00  0.00    +0.000 HD
ENDBRANCH  26  27
ENDBRANCH  25  26
ENDBRANCH  23  25
ENDBRANCH  14  24
ENDBRANCH   1  15
BRANCH   8  29
ATOM     29  O   UNL     1      -2.398  14.327  21.808  0.00  0.00    +0.000 OA
BRANCH  29  30
ATOM     30  C   UNL     1      -3.769  14.255  22.309  0.00  0.00    +0.000 C 
ATOM     31  C   UNL     1      -3.834  14.660  23.788  0.00  0.00    +0.000 C 
ATOM     32  C   UNL     1      -4.593  15.279  21.504  0.00  0.00    +0.000 C 
ATOM     33  C   UNL     1      -4.386  12.873  22.063  0.00  0.00    +0.000 C 
ENDBRANCH  29  30
ENDBRANCH   8  29
TORSDOF 7
ENDMDL
MODEL 4
REMARK VINA RESULT:      -7.5      1.077      1.270
REMARK  Name = 
REMARK  11 active torsions:
REMARK  status: ('A' for Active; 'I' for Inactive)
REMARK    1  A    between atoms: C_1  and  C_2
REMARK    2  A    between atoms: C_6  and  C_7
REMARK    3  A    between atoms: C_7  and  C_8
REMARK    4  A    between atoms: C_8  and  O_9
REMARK    5  A    between atoms: C_10  and  N_11
REMARK    6  A    between atoms: C_12  and  C_14
REMARK    7  A    between atoms: C_21  and  O_23
REMARK    8  A    between atoms: O_23  and  C_24
REMARK    9  A    between atoms: C_24  and  C_25
REMARK   10  A    between atoms: C_24  and  C_26
REMARK   11  A    between atoms: C_24  and  C_27
REMARK                            x       y       z     vdW  Elec       q    Type
REMARK                         _______ _______ _______ _____ _____    ______ ____
ROOT
ATOM      1  C   UNL     1       1.921   8.140  19.197  0.00  0.00    +0.000 A 
ATOM      2  C   UNL     1       1.573   8.888  18.065  0.00  0.00    +0.000 A 
ATOM      3  C   UNL     1       0.719   9.992  18.169  0.00  0.00    +0.000 A 
ATOM      4  C   UNL     1       0.200  10.375  19.424  0.00  0.00    +0.000 A 
ATOM      5  N   UNL     1      -0.697  11.409  19.648  0.00  0.00    +0.000 NA
ATOM      6  C   UNL     1      -0.938  11.529  20.931  0.00  0.00    +0.000 A 
ATOM      7  N   UNL     1      -1.812  12.480  21.408  0.00  0.00    +0.000 N 
ATOM      8  C   UNL     1      -1.975  12.865  22.706  0.00  0.00    +0.000 C 
ATOM      9  O   UNL     1      -1.350  12.452  23.672  0.00  0.00    +0.000 OA
ATOM     10  S   UNL     1      -0.141  10.395  21.933  0.00  0.00    +0.000 S 
ATOM     11  C   UNL     1       0.602   9.659  20.555  0.00  0.00    +0.000 A 
ATOM     12  C   UNL     1       1.468   8.544  20.468  0.00  0.00    +0.000 A 
ATOM     13  H   UNL     1      -2.308  13.007  20.707  0.00  0.00    +0.000 HD
ENDROOT
BRANCH   1  15
ATOM     14  N   UNL     1       3.235   6.700  17.740  0.00  0.00    +0.000 N 
ATOM     15  C   UNL     1       2.788   6.918  19.039  0.00  0.00    +0.000 C 
ATOM     16  O   UNL     1       2.975   6.187  20.006  0.00  0.00    +0.000 OA
ATOM     17  H   UNL     1       2.645   7.117  17.034  0.00  0.00    +0.000 HD
BRANCH  14  24
ATOM     18  C   UNL     1       6.060   7.243  17.281  0.00  0.00    +0.000 C 
ATOM     19  C   UNL     1       5.427   5.891  17.067  0.00  0.00    +0.000 A 
ATOM     20  C   UNL     1       6.255   4.888  16.531  0.00  0.00    +0.000 A 
ATOM     21  C   UNL     1       5.772   3.607  16.317  0.00  0.00    +0.000 A 
ATOM     22  C   UNL     1       4.453   3.310  16.645  0.00  0.00    +0.000 A 
ATOM     23  C   UNL     1       3.576   4.297  17.150  0.00  0.00    +0.000 A 
ATOM     24  C   UNL     1       4.052   5.623  17.300  0.00  0.00    +0.000 A 
BRANCH  23  25
ATOM     25  C   UNL     1       2.184   3.837  17.548  0.00  0.00    +0.000 C 
BRANCH  25  26
ATOM     26  C   UNL     1       2.123   2.935  18.791  0.00  0.00    +0.000 C 
BRANCH  26  27
ATOM     27  O   UNL     1       1.896   1.571  18.447  0.00  0.00    +0.000 OA
ATOM     28  H   UNL     1       1.121   1.279  18.958  0.00  0.00    +0.000 HD
ENDBRANCH  26  27
ENDBRANCH  25  26
ENDBRANCH  23  25
ENDBRANCH  14  24
ENDBRANCH   1  15
BRANCH   8  29
ATOM     29  O   UNL     1      -2.942  13.827  22.781  0.00  0.00    +0.000 OA
BRANCH  29  30
ATOM     30  C   UNL     1      -4.283  13.474  23.246  0.00  0.00    +0.000 C 
ATOM     31  C   UNL     1      -5.075  14.729  23.638  0.00  0.00    +0.000 C 
ATOM     32  C   UNL     1      -5.007  12.812  22.058  0.00  0.00    +0.000 C 
ATOM     33  C   UNL     1      -4.230  12.447  24.384  0.00  0.00    +0.000 C 
ENDBRANCH  29  30
ENDBRANCH   8  29
TORSDOF 7
ENDMDL
MODEL 5
REMARK VINA RESULT:      -7.5      1.790      2.302
REMARK  Name = 
REMARK  11 active torsions:
REMARK  status: ('A' for Active; 'I' for Inactive)
REMARK    1  A    between atoms: C_1  and  C_2
REMARK    2  A    between atoms: C_6  and  C_7
REMARK    3  A    between atoms: C_7  and  C_8
REMARK    4  A    between atoms: C_8  and  O_9
REMARK    5  A    between atoms: C_10  and  N_11
REMARK    6  A    between atoms: C_12  and  C_14
REMARK    7  A    between atoms: C_21  and  O_23
REMARK    8  A    between atoms: O_23  and  C_24
REMARK    9  A    between atoms: C_24  and  C_25
REMARK   10  A    between atoms: C_24  and  C_26
REMARK   11  A    between atoms: C_24  and  C_27
REMARK                            x       y       z     vdW  Elec       q    Type
REMARK                         _______ _______ _______ _____ _____    ______ ____
ROOT
ATOM      1  C   UNL     1       2.473   7.014  19.641  0.00  0.00    +0.000 A 
ATOM      2  C   UNL     1       1.828   6.710  20.846  0.00  0.00    +0.000 A 
ATOM      3  C   UNL     1       0.894   7.594  21.403  0.00  0.00    +0.000 A 
ATOM      4  C   UNL     1       0.584   8.805  20.750  0.00  0.00    +0.000 A 
ATOM      5  N   UNL     1      -0.275   9.785  21.227  0.00  0.00    +0.000 NA
ATOM      6  C   UNL     1      -0.379  10.758  20.355  0.00  0.00    +0.000 A 
ATOM      7  N   UNL     1      -1.166  11.860  20.605  0.00  0.00    +0.000 N 
ATOM      8  C   UNL     1      -1.545  12.816  19.710  0.00  0.00    +0.000 C 
ATOM      9  O   UNL     1      -1.275  12.846  18.519  0.00  0.00    +0.000 OA
ATOM     10  S   UNL     1       0.568  10.578  18.943  0.00  0.00    +0.000 S 
ATOM     11  C   UNL     1       1.188   9.069  19.518  0.00  0.00    +0.000 A 
ATOM     12  C   UNL     1       2.129   8.186  18.940  0.00  0.00    +0.000 A 
ATOM     13  H   UNL     1      -1.578  11.902  21.524  0.00  0.00    +0.000 HD
ENDROOT
BRANCH   1  15
ATOM     14  N   UNL     1       3.806   6.247  17.755  0.00  0.00    +0.000 N 
ATOM     15  C   UNL     1       3.521   6.074  19.105  0.00  0.00    +0.000 C 
ATOM     16  O   UNL     1       3.982   5.207  19.841  0.00  0.00    +0.000 OA
ATOM     17  H   UNL     1       3.050   6.670  17.233  0.00  0.00    +0.000 HD
BRANCH  14  24
ATOM     18  C   UNL     1       6.411   7.442  17.234  0.00  0.00    +0.000 C 
ATOM     19  C   UNL     1       6.002   6.083  16.725  0.00  0.00    +0.000 A 
ATOM     20  C   UNL     1       6.918   5.426  15.883  0.00  0.00    +0.000 A 
ATOM     21  C   UNL     1       6.643   4.164  15.380  0.00  0.00    +0.000 A 
ATOM     22  C   UNL     1       5.449   3.538  15.721  0.00  0.00    +0.000 A 
ATOM     23  C   UNL     1       4.484   4.176  16.533  0.00  0.00    +0.000 A 
ATOM     24  C   UNL     1       4.736   5.495  16.986  0.00  0.00    +0.000 A 
BRANCH  23  25
ATOM     25  C   UNL     1       3.256   3.363  16.904  0.00  0.00    +0.000 C 
BRANCH  25  26
ATOM     26  C   UNL     1       3.508   2.208  17.885  0.00  0.00    +0.000 C 
BRANCH  26  27
ATOM     27  O   UNL     1       4.483   2.547  18.867  0.00  0.00    +0.000 OA
ATOM     28  H   UNL     1       4.583   1.769  19.443  0.00  0.00    +0.000 HD
ENDBRANCH  26  27
ENDBRANCH  25  26
ENDBRANCH  23  25
ENDBRANCH  14  24
ENDBRANCH   1  15
BRANCH   8  29
ATOM     29  O   UNL     1      -2.317  13.753  20.338  0.00  0.00    +0.000 OA
BRANCH  29  30
ATOM     30  C   UNL     1      -3.687  13.422  20.728  0.00  0.00    +0.000 C 
ATOM     31  C   UNL     1      -3.725  12.826  22.142  0.00  0.00    +0.000 C 
ATOM     32  C   UNL     1      -4.475  14.746  20.754  0.00  0.00    +0.000 C 
ATOM     33  C   UNL     1      -4.358  12.506  19.698  0.00  0.00    +0.000 C 
ENDBRANCH  29  30
ENDBRANCH   8  29
TORSDOF 7
ENDMDL
MODEL 6
REMARK VINA RESULT:      -7.5      2.026      3.310
REMARK  Name = 
REMARK  11 active torsions:
REMARK  status: ('A' for Active; 'I' for Inactive)
REMARK    1  A    between atoms: C_1  and  C_2
REMARK    2  A    between atoms: C_6  and  C_7
REMARK    3  A    between atoms: C_7  and  C_8
REMARK    4  A    between atoms: C_8  and  O_9
REMARK    5  A    between atoms: C_10  and  N_11
REMARK    6  A    between atoms: C_12  and  C_14
REMARK    7  A    between atoms: C_21  and  O_23
REMARK    8  A    between atoms: O_23  and  C_24
REMARK    9  A    between atoms: C_24  and  C_25
REMARK   10  A    between atoms: C_24  and  C_26
REMARK   11  A    between atoms: C_24  and  C_27
REMARK                            x       y       z     vdW  Elec       q    Type
REMARK                         _______ _______ _______ _____ _____    ______ ____
ROOT
ATOM      1  C   UNL     1       1.683   8.566  19.471  0.00  0.00    +0.000 A 
ATOM      2  C   UNL     1       1.627   8.038  20.766  0.00  0.00    +0.000 A 
ATOM      3  C   UNL     1       1.081   8.780  21.821  0.00  0.00    +0.000 A 
ATOM      4  C   UNL     1       0.569  10.074  21.590  0.00  0.00    +0.000 A 
ATOM      5  N   UNL     1       0.059  10.928  22.557  0.00  0.00    +0.000 NA
ATOM      6  C   UNL     1      -0.377  12.032  22.001  0.00  0.00    +0.000 A 
ATOM      7  N   UNL     1      -0.918  13.047  22.758  0.00  0.00    +0.000 N 
ATOM      8  C   UNL     1      -1.611  14.129  22.301  0.00  0.00    +0.000 C 
ATOM      9  O   UNL     1      -1.898  14.372  21.138  0.00  0.00    +0.000 OA
ATOM     10  S   UNL     1      -0.166  12.130  20.307  0.00  0.00    +0.000 S 
ATOM     11  C   UNL     1       0.574  10.566  20.282  0.00  0.00    +0.000 A 
ATOM     12  C   UNL     1       1.117   9.828  19.205  0.00  0.00    +0.000 A 
ATOM     13  H   UNL     1      -0.877  12.917  23.756  0.00  0.00    +0.000 HD
ENDROOT
BRANCH   1  15
ATOM     14  N   UNL     1       2.890   6.563  18.796  0.00  0.00    +0.000 N 
ATOM     15  C   UNL     1       2.337   7.767  18.374  0.00  0.00    +0.000 C 
ATOM     16  O   UNL     1       2.404   8.241  17.244  0.00  0.00    +0.000 OA
ATOM     17  H   UNL     1       3.130   6.551  19.778  0.00  0.00    +0.000 HD
BRANCH  14  24
ATOM     18  C   UNL     1       1.437   4.178  17.965  0.00  0.00    +0.000 C 
ATOM     19  C   UNL     1       2.871   4.453  17.588  0.00  0.00    +0.000 A 
ATOM     20  C   UNL     1       3.537   3.440  16.873  0.00  0.00    +0.000 A 
ATOM     21  C   UNL     1       4.850   3.606  16.463  0.00  0.00    +0.000 A 
ATOM     22  C   UNL     1       5.513   4.793  16.757  0.00  0.00    +0.000 A 
ATOM     23  C   UNL     1       4.895   5.821  17.505  0.00  0.00    +0.000 A 
ATOM     24  C   UNL     1       3.577   5.619  17.985  0.00  0.00    +0.000 A 
BRANCH  23  25
ATOM     25  C   UNL     1       5.688   7.103  17.694  0.00  0.00    +0.000 C 
BRANCH  25  26
ATOM     26  C   UNL     1       7.209   6.920  17.812  0.00  0.00    +0.000 C 
BRANCH  26  27
ATOM     27  O   UNL     1       7.894   7.402  16.659  0.00  0.00    +0.000 OA
ATOM     28  H   UNL     1       7.906   8.373  16.727  0.00  0.00    +0.000 HD
ENDBRANCH  26  27
ENDBRANCH  25  26
ENDBRANCH  23  25
ENDBRANCH  14  24
ENDBRANCH   1  15
BRANCH   8  29
ATOM     29  O   UNL     1      -1.978  14.917  23.355  0.00  0.00    +0.000 OA
BRANCH  29  30
ATOM     30  C   UNL     1      -3.387  15.009  23.737  0.00  0.00    +0.000 C 
ATOM     31  C   UNL     1      -4.021  13.614  23.833  0.00  0.00    +0.000 C 
ATOM     32  C   UNL     1      -3.428  15.642  25.142  0.00  0.00    +0.000 C 
ATOM     33  C   UNL     1      -4.166  15.933  22.793  0.00  0.00    +0.000 C 
ENDBRANCH  29  30
ENDBRANCH   8  29
TORSDOF 7
ENDMDL
MODEL 7
REMARK VINA RESULT:      -7.4      0.793      1.115
REMARK  Name = 
REMARK  11 active torsions:
REMARK  status: ('A' for Active; 'I' for Inactive)
REMARK    1  A    between atoms: C_1  and  C_2
REMARK    2  A    between atoms: C_6  and  C_7
REMARK    3  A    between atoms: C_7  and  C_8
REMARK    4  A    between atoms: C_8  and  O_9
REMARK    5  A    between atoms: C_10  and  N_11
REMARK    6  A    between atoms: C_12  and  C_14
REMARK    7  A    between atoms: C_21  and  O_23
REMARK    8  A    between atoms: O_23  and  C_24
REMARK    9  A    between atoms: C_24  and  C_25
REMARK   10  A    between atoms: C_24  and  C_26
REMARK   11  A    between atoms: C_24  and  C_27
REMARK                            x       y       z     vdW  Elec       q    Type
REMARK                         _______ _______ _______ _____ _____    ______ ____
ROOT
ATOM      1  C   UNL     1       2.033   8.096  19.027  0.00  0.00    +0.000 A 
ATOM      2  C   UNL     1       1.518   8.711  17.880  0.00  0.00    +0.000 A 
ATOM      3  C   UNL     1       0.596   9.760  17.981  0.00  0.00    +0.000 A 
ATOM      4  C   UNL     1       0.176  10.220  19.247  0.00  0.00    +0.000 A 
ATOM      5  N   UNL     1      -0.771  11.206  19.477  0.00  0.00    +0.000 NA
ATOM      6  C   UNL     1      -0.891  11.427  20.763  0.00  0.00    +0.000 A 
ATOM      7  N   UNL     1      -1.784  12.355  21.249  0.00  0.00    +0.000 N 
ATOM      8  C   UNL     1      -1.847  12.846  22.519  0.00  0.00    +0.000 C 
ATOM      9  O   UNL     1      -1.099  12.566  23.445  0.00  0.00    +0.000 OA
ATOM     10  S   UNL     1       0.086  10.446  21.767  0.00  0.00    +0.000 S 
ATOM     11  C   UNL     1       0.743   9.639  20.385  0.00  0.00    +0.000 A 
ATOM     12  C   UNL     1       1.679   8.582  20.301  0.00  0.00    +0.000 A 
ATOM     13  H   UNL     1      -2.387  12.782  20.563  0.00  0.00    +0.000 HD
ENDROOT
BRANCH   1  15
ATOM     14  N   UNL     1       3.554   6.815  17.624  0.00  0.00    +0.000 N 
ATOM     15  C   UNL     1       2.972   6.926  18.882  0.00  0.00    +0.000 C 
ATOM     16  O   UNL     1       3.101   6.141  19.815  0.00  0.00    +0.000 OA
ATOM     17  H   UNL     1       3.015   7.252  16.889  0.00  0.00    +0.000 HD
BRANCH  14  24
ATOM     18  C   UNL     1       6.363   7.544  17.372  0.00  0.00    +0.000 C 
ATOM     19  C   UNL     1       5.831   6.166  17.070  0.00  0.00    +0.000 A 
ATOM     20  C   UNL     1       6.752   5.235  16.556  0.00  0.00    +0.000 A 
ATOM     21  C   UNL     1       6.365   3.936  16.267  0.00  0.00    +0.000 A 
ATOM     22  C   UNL     1       5.049   3.549  16.496  0.00  0.00    +0.000 A 
ATOM     23  C   UNL     1       4.082   4.461  16.975  0.00  0.00    +0.000 A 
ATOM     24  C   UNL     1       4.463   5.806  17.202  0.00  0.00    +0.000 A 
BRANCH  23  25
ATOM     25  C   UNL     1       2.698   3.904  17.264  0.00  0.00    +0.000 C 
BRANCH  25  26
ATOM     26  C   UNL     1       2.626   2.900  18.425  0.00  0.00    +0.000 C 
BRANCH  26  27
ATOM     27  O   UNL     1       2.047   1.662  18.023  0.00  0.00    +0.000 OA
ATOM     28  H   UNL     1       1.892   1.724  17.064  0.00  0.00    +0.000 HD
ENDBRANCH  26  27
ENDBRANCH  25  26
ENDBRANCH  23  25
ENDBRANCH  14  24
ENDBRANCH   1  15
BRANCH   8  29
ATOM     29  O   UNL     1      -2.873  13.742  22.616  0.00  0.00    +0.000 OA
BRANCH  29  30
ATOM     30  C   UNL     1      -3.801  13.667  23.744  0.00  0.00    +0.000 C 
ATOM     31  C   UNL     1      -3.957  12.219  24.228  0.00  0.00    +0.000 C 
ATOM     32  C   UNL     1      -3.174  14.483  24.892  0.00  0.00    +0.000 C 
ATOM     33  C   UNL     1      -5.151  14.311  23.405  0.00  0.00    +0.000 C 
ENDBRANCH  29  30
ENDBRANCH   8  29
TORSDOF 7
ENDMDL
MODEL 8
REMARK VINA RESULT:      -7.4      2.066      3.276
REMARK  Name = 
REMARK  11 active torsions:
REMARK  status: ('A' for Active; 'I' for Inactive)
REMARK    1  A    between atoms: C_1  and  C_2
REMARK    2  A    between atoms: C_6  and  C_7
REMARK    3  A    between atoms: C_7  and  C_8
REMARK    4  A    between atoms: C_8  and  O_9
REMARK    5  A    between atoms: C_10  and  N_11
REMARK    6  A    between atoms: C_12  and  C_14
REMARK    7  A    between atoms: C_21  and  O_23
REMARK    8  A    between atoms: O_23  and  C_24
REMARK    9  A    between atoms: C_24  and  C_25
REMARK   10  A    between atoms: C_24  and  C_26
REMARK   11  A    between atoms: C_24  and  C_27
REMARK                            x       y       z     vdW  Elec       q    Type
REMARK                         _______ _______ _______ _____ _____    ______ ____
ROOT
ATOM      1  C   UNL     1       1.924   8.430  18.920  0.00  0.00    +0.000 A 
ATOM      2  C   UNL     1       2.125   9.439  17.971  0.00  0.00    +0.000 A 
ATOM      3  C   UNL     1       1.618  10.729  18.177  0.00  0.00    +0.000 A 
ATOM      4  C   UNL     1       0.902  11.032  19.354  0.00  0.00    +0.000 A 
ATOM      5  N   UNL     1       0.303  12.249  19.646  0.00  0.00    +0.000 NA
ATOM      6  C   UNL     1      -0.238  12.212  20.839  0.00  0.00    +0.000 A 
ATOM      7  N   UNL     1      -0.909  13.299  21.354  0.00  0.00    +0.000 N 
ATOM      8  C   UNL     1      -1.309  13.478  22.645  0.00  0.00    +0.000 C 
ATOM      9  O   UNL     1      -1.115  12.715  23.580  0.00  0.00    +0.000 OA
ATOM     10  S   UNL     1      -0.098  10.717  21.659  0.00  0.00    +0.000 S 
ATOM     11  C   UNL     1       0.761  10.034  20.321  0.00  0.00    +0.000 A 
ATOM     12  C   UNL     1       1.270   8.728  20.131  0.00  0.00    +0.000 A 
ATOM     13  H   UNL     1      -1.025  14.077  20.725  0.00  0.00    +0.000 HD
ENDROOT
BRANCH   1  15
ATOM     14  N   UNL     1       2.781   6.317  19.771  0.00  0.00    +0.000 N 
ATOM     15  C   UNL     1       2.424   7.037  18.636  0.00  0.00    +0.000 C 
ATOM     16  O   UNL     1       2.548   6.670  17.473  0.00  0.00    +0.000 OA
ATOM     17  H   UNL     1       3.031   6.900  20.558  0.00  0.00    +0.000 HD
BRANCH  14  24
ATOM     18  C   UNL     1       0.941   4.167  20.463  0.00  0.00    +0.000 C 
ATOM     19  C   UNL     1       2.399   3.945  20.149  0.00  0.00    +0.000 A 
ATOM     20  C   UNL     1       2.880   2.631  20.295  0.00  0.00    +0.000 A 
ATOM     21  C   UNL     1       4.201   2.322  20.010  0.00  0.00    +0.000 A 
ATOM     22  C   UNL     1       5.056   3.324  19.566  0.00  0.00    +0.000 A 
ATOM     23  C   UNL     1       4.625   4.664  19.441  0.00  0.00    +0.000 A 
ATOM     24  C   UNL     1       3.295   4.991  19.802  0.00  0.00    +0.000 A 
BRANCH  23  25
ATOM     25  C   UNL     1       5.625   5.655  18.870  0.00  0.00    +0.000 C 
BRANCH  25  26
ATOM     26  C   UNL     1       7.097   5.222  18.954  0.00  0.00    +0.000 C 
BRANCH  26  27
ATOM     27  O   UNL     1       7.685   5.576  20.203  0.00  0.00    +0.000 OA
ATOM     28  H   UNL     1       7.501   6.522  20.340  0.00  0.00    +0.000 HD
ENDBRANCH  26  27
ENDBRANCH  25  26
ENDBRANCH  23  25
ENDBRANCH  14  24
ENDBRANCH   1  15
BRANCH   8  29
ATOM     29  O   UNL     1      -1.951  14.678  22.764  0.00  0.00    +0.000 OA
BRANCH  29  30
ATOM     30  C   UNL     1      -3.349  14.715  23.192  0.00  0.00    +0.000 C 
ATOM     31  C   UNL     1      -3.452  14.803  24.720  0.00  0.00    +0.000 C 
ATOM     32  C   UNL     1      -3.962  16.000  22.602  0.00  0.00    +0.000 C 
ATOM     33  C   UNL     1      -4.140  13.527  22.628  0.00  0.00    +0.000 C 
ENDBRANCH  29  30
ENDBRANCH   8  29
TORSDOF 7
ENDMDL
MODEL 9
REMARK VINA RESULT:      -7.3      1.857      3.152
REMARK  Name = 
REMARK  11 active torsions:
REMARK  status: ('A' for Active; 'I' for Inactive)
REMARK    1  A    between atoms: C_1  and  C_2
REMARK    2  A    between atoms: C_6  and  C_7
REMARK    3  A    between atoms: C_7  and  C_8
REMARK    4  A    between atoms: C_8  and  O_9
REMARK    5  A    between atoms: C_10  and  N_11
REMARK    6  A    between atoms: C_12  and  C_14
REMARK    7  A    between atoms: C_21  and  O_23
REMARK    8  A    between atoms: O_23  and  C_24
REMARK    9  A    between atoms: C_24  and  C_25
REMARK   10  A    between atoms: C_24  and  C_26
REMARK   11  A    between atoms: C_24  and  C_27
REMARK                            x       y       z     vdW  Elec       q    Type
REMARK                         _______ _______ _______ _____ _____    ______ ____
ROOT
ATOM      1  C   UNL     1       2.068   8.241  18.995  0.00  0.00    +0.000 A 
ATOM      2  C   UNL     1       1.932   7.580  20.222  0.00  0.00    +0.000 A 
ATOM      3  C   UNL     1       1.196   8.152  21.267  0.00  0.00    +0.000 A 
ATOM      4  C   UNL     1       0.571   9.405  21.096  0.00  0.00    +0.000 A 
ATOM      5  N   UNL     1      -0.131  10.099  22.070  0.00  0.00    +0.000 NA
ATOM      6  C   UNL     1      -0.624  11.205  21.569  0.00  0.00    +0.000 A 
ATOM      7  N   UNL     1      -1.353  12.078  22.346  0.00  0.00    +0.000 N 
ATOM      8  C   UNL     1      -2.109  13.127  21.911  0.00  0.00    +0.000 C 
ATOM      9  O   UNL     1      -2.294  13.458  20.749  0.00  0.00    +0.000 OA
ATOM     10  S   UNL     1      -0.245  11.498  19.928  0.00  0.00    +0.000 S 
ATOM     11  C   UNL     1       0.663  10.027  19.848  0.00  0.00    +0.000 A 
ATOM     12  C   UNL     1       1.397   9.461  18.780  0.00  0.00    +0.000 A 
ATOM     13  H   UNL     1      -1.405  11.851  23.326  0.00  0.00    +0.000 HD
ENDROOT
BRANCH   1  15
ATOM     14  N   UNL     1       3.696   6.555  18.340  0.00  0.00    +0.000 N 
ATOM     15  C   UNL     1       2.921   7.629  17.915  0.00  0.00    +0.000 C 
ATOM     16  O   UNL     1       2.934   8.139  16.799  0.00  0.00    +0.000 OA
ATOM     17  H   UNL     1       3.892   6.566  19.332  0.00  0.00    +0.000 HD
BRANCH  14  24
ATOM     18  C   UNL     1       2.785   3.980  17.328  0.00  0.00    +0.000 C 
ATOM     19  C   UNL     1       4.158   4.541  17.059  0.00  0.00    +0.000 A 
ATOM     20  C   UNL     1       5.049   3.710  16.356  0.00  0.00    +0.000 A 
ATOM     21  C   UNL     1       6.327   4.143  16.041  0.00  0.00    +0.000 A 
ATOM     22  C   UNL     1       6.729   5.419  16.421  0.00  0.00    +0.000 A 
ATOM     23  C   UNL     1       5.880   6.272  17.161  0.00  0.00    +0.000 A 
ATOM     24  C   UNL     1       4.600   5.800  17.544  0.00  0.00    +0.000 A 
BRANCH  23  25
ATOM     25  C   UNL     1       6.397   7.672  17.448  0.00  0.00    +0.000 C 
BRANCH  25  26
ATOM     26  C   UNL     1       7.899   7.763  17.762  0.00  0.00    +0.000 C 
BRANCH  26  27
ATOM     27  O   UNL     1       8.247   7.002  18.917  0.00  0.00    +0.000 OA
ATOM     28  H   UNL     1       8.890   6.332  18.626  0.00  0.00    +0.000 HD
ENDBRANCH  26  27
ENDBRANCH  25  26
ENDBRANCH  23  25
ENDBRANCH  14  24
ENDBRANCH   1  15
BRANCH   8  29
ATOM     29  O   UNL     1      -2.673  13.762  22.981  0.00  0.00    +0.000 OA
BRANCH  29  30
ATOM     30  C   UNL     1      -4.055  13.466  23.355  0.00  0.00    +0.000 C 
ATOM     31  C   UNL     1      -4.821  14.755  23.684  0.00  0.00    +0.000 C 
ATOM     32  C   UNL     1      -4.723  12.823  22.124  0.00  0.00    +0.000 C 
ATOM     33  C   UNL     1      -4.122  12.447  24.499  0.00  0.00    +0.000 C 
ENDBRANCH  29  30
ENDBRANCH   8  29
TORSDOF 7
ENDMDL
