MODEL 1
REMARK VINA RESULT:      -8.2      0.000      0.000
REMARK  Name = 
REMARK  14 active torsions:
REMARK  status: ('A' for Active; 'I' for Inactive)
REMARK    1  A    between atoms: C_1  and  C_2
REMARK    2  A    between atoms: C_2  and  C_3
REMARK    3  A    between atoms: C_3  and  C_4
REMARK    4  A    between atoms: C_4  and  C_5
REMARK    5  A    between atoms: C_5  and  N_6
REMARK    6  A    between atoms: N_9  and  C_10
REMARK    7  A    between atoms: C_11  and  O_12
REMARK    8  A    between atoms: C_16  and  O_17
REMARK    9  A    between atoms: O_17  and  C_18
REMARK   10  A    between atoms: C_18  and  C_19
REMARK   11  A    between atoms: C_19  and  C_20
REMARK   12  A    between atoms: C_20  and  N_21
REMARK   13  A    between atoms: C_24  and  C_25
REMARK   14  A    between atoms: C_31  and  C_32
REMARK                            x       y       z     vdW  Elec       q    Type
REMARK                         _______ _______ _______ _____ _____    ______ ____
ROOT
ATOM      1  C   UNL     1       2.465   4.670  18.370  0.00  0.00    +0.000 A 
ATOM      2  C   UNL     1       1.838   3.404  18.234  0.00  0.00    +0.000 A 
ATOM      3  C   UNL     1       1.045   2.858  19.230  0.00  0.00    +0.000 A 
ATOM      4  C   UNL     1       0.826   3.560  20.407  0.00  0.00    +0.000 A 
ATOM      5  C   UNL     1       1.433   4.775  20.576  0.00  0.00    +0.000 A 
ATOM      6  C   UNL     1       2.281   5.336  19.624  0.00  0.00    +0.000 A 
ENDROOT
BRANCH   1  10
ATOM      7  N   UNL     1       5.245   5.276  16.103  0.00  0.00    +0.000 N 
ATOM      8  C   UNL     1       4.554   4.642  17.112  0.00  0.00    +0.000 C 
ATOM      9  O   UNL     1       5.089   3.792  17.826  0.00  0.00    +0.000 OA
ATOM     10  N   UNL     1       3.286   5.147  17.322  0.00  0.00    +0.000 N 
ATOM     11  H   UNL     1       4.749   5.855  15.431  0.00  0.00    +0.000 HD
ATOM     12  H   UNL     1       2.830   5.497  16.482  0.00  0.00    +0.000 HD
BRANCH   7  13
ATOM     13  C   UNL     1       6.624   4.925  15.830  0.00  0.00    +0.000 C 
BRANCH  13  14
ATOM     14  C   UNL     1       6.873   4.609  14.356  0.00  0.00    +0.000 C 
BRANCH  14  15
ATOM     15  C   UNL     1       5.672   3.862  13.768  0.00  0.00    +0.000 C 
BRANCH  15  17
ATOM     16  C   UNL     1       4.611   3.133  11.602  0.00  0.00    +0.000 C 
ATOM     17  C   UNL     1       5.919   3.417  12.327  0.00  0.00    +0.000 C 
ENDBRANCH  15  17
ENDBRANCH  14  15
ENDBRANCH  13  14
ENDBRANCH   7  13
ENDBRANCH   1  10
BRANCH   2  18
ATOM     18  O   UNL     1       2.040   2.608  17.136  0.00  0.00    +0.000 OA
ATOM     19  H   UNL     1       2.399   3.177  16.438  0.00  0.00    +0.000 HD
ENDBRANCH   2  18
BRANCH   6  20
ATOM     20  O   UNL     1       2.862   6.558  19.914  0.00  0.00    +0.000 OA
BRANCH  20  21
ATOM     21  C   UNL     1       2.055   7.674  19.471  0.00  0.00    +0.000 C 
BRANCH  21  22
ATOM     22  C   UNL     1       1.601   8.463  20.678  0.00  0.00    +0.000 C 
BRANCH  22  23
ATOM     23  C   UNL     1       0.395   9.307  20.302  0.00  0.00    +0.000 C 
BRANCH  23  24
ATOM     24  N   UNL     1      -0.187  10.009  21.417  0.00  0.00    +0.000 N 
ATOM     25  C   UNL     1      -0.112   9.583  22.713  0.00  0.00    +0.000 A 
ATOM     26  N   UNL     1      -0.702  10.412  23.535  0.00  0.00    +0.000 NA
ATOM     27  C   UNL     1      -1.194  11.413  22.728  0.00  0.00    +0.000 A 
ATOM     28  C   UNL     1      -0.844  11.220  21.411  0.00  0.00    +0.000 A 
ATOM     29  C   UNL     1      -1.096  12.058  20.220  0.00  0.00    +0.000 C 
BRANCH  27  30
ATOM     30  C   UNL     1      -1.977  12.528  23.219  0.00  0.00    +0.000 A 
ATOM     31  C   UNL     1      -1.363  13.747  23.490  0.00  0.00    +0.000 A 
ATOM     32  C   UNL     1      -2.141  14.818  23.940  0.00  0.00    +0.000 A 
ATOM     33  C   UNL     1      -3.524  14.674  24.109  0.00  0.00    +0.000 A 
ATOM     34  C   UNL     1      -4.133  13.455  23.826  0.00  0.00    +0.000 A 
ATOM     35  C   UNL     1      -3.355  12.387  23.423  0.00  0.00    +0.000 A 
ENDBRANCH  27  30
ENDBRANCH  23  24
ENDBRANCH  22  23
ENDBRANCH  21  22
ENDBRANCH  20  21
ENDBRANCH   6  20
TORSDOF 12
ENDMDL
MODEL 2
REMARK VINA RESULT:      -8.2      3.194      4.794
REMARK  Name = 
REMARK  14 active torsions:
REMARK  status: ('A' for Active; 'I' for Inactive)
REMARK    1  A    between atoms: C_1  and  C_2
REMARK    2  A    between atoms: C_2  and  C_3
REMARK    3  A    between atoms: C_3  and  C_4
REMARK    4  A    between atoms: C_4  and  C_5
REMARK    5  A    between atoms: C_5  and  N_6
REMARK    6  A    between atoms: N_9  and  C_10
REMARK    7  A    between atoms: C_11  and  O_12
REMARK    8  A    between atoms: C_16  and  O_17
REMARK    9  A    between atoms: O_17  and  C_18
REMARK   10  A    between atoms: C_18  and  C_19
REMARK   11  A    between atoms: C_19  and  C_20
REMARK   12  A    between atoms: C_20  and  N_21
REMARK   13  A    between atoms: C_24  and  C_25
REMARK   14  A    between atoms: C_31  and  C_32
REMARK                            x       y       z     vdW  Elec       q    Type
REMARK                         _______ _______ _______ _____ _____    ______ ____
ROOT
ATOM      1  C   UNL     1       5.646   5.244  16.733  0.00  0.00    +0.000 A 
ATOM      2  C   UNL     1       6.943   5.785  16.931  0.00  0.00    +0.000 A 
ATOM      3  C   UNL     1       7.460   6.033  18.192  0.00  0.00    +0.000 A 
ATOM      4  C   UNL     1       6.710   5.735  19.321  0.00  0.00    +0.000 A 
ATOM      5  C   UNL     1       5.448   5.229  19.164  0.00  0.00    +0.000 A 
ATOM      6  C   UNL     1       4.869   5.016  17.914  0.00  0.00    +0.000 A 
ENDROOT
BRANCH   1  10
ATOM      7  N   UNL     1       5.234   4.132  13.294  0.00  0.00    +0.000 N 
ATOM      8  C   UNL     1       5.763   4.132  14.566  0.00  0.00    +0.000 C 
ATOM      9  O   UNL     1       6.751   3.455  14.855  0.00  0.00    +0.000 OA
ATOM     10  N   UNL     1       5.175   5.050  15.414  0.00  0.00    +0.000 N 
ATOM     11  H   UNL     1       4.335   4.571  13.117  0.00  0.00    +0.000 HD
ATOM     12  H   UNL     1       4.188   5.216  15.232  0.00  0.00    +0.000 HD
BRANCH   7  13
ATOM     13  C   UNL     1       5.812   3.294  12.263  0.00  0.00    +0.000 C 
BRANCH  13  14
ATOM     14  C   UNL     1       4.761   2.698  11.327  0.00  0.00    +0.000 C 
BRANCH  14  15
ATOM     15  C   UNL     1       3.635   3.709  11.089  0.00  0.00    +0.000 C 
BRANCH  15  17
ATOM     16  C   UNL     1       2.595   4.800   9.070  0.00  0.00    +0.000 C 
ATOM     17  C   UNL     1       2.929   3.481   9.753  0.00  0.00    +0.000 C 
ENDBRANCH  15  17
ENDBRANCH  14  15
ENDBRANCH  13  14
ENDBRANCH   7  13
ENDBRANCH   1  10
BRANCH   2  18
ATOM     18  O   UNL     1       7.738   6.168  15.881  0.00  0.00    +0.000 OA
ATOM     19  H   UNL     1       8.657   6.065  16.172  0.00  0.00    +0.000 HD
ENDBRANCH   2  18
BRANCH   6  20
ATOM     20  O   UNL     1       3.575   4.529  17.875  0.00  0.00    +0.000 OA
BRANCH  20  21
ATOM     21  C   UNL     1       3.064   4.208  19.191  0.00  0.00    +0.000 C 
BRANCH  21  22
ATOM     22  C   UNL     1       1.928   5.151  19.520  0.00  0.00    +0.000 C 
BRANCH  22  23
ATOM     23  C   UNL     1       2.495   6.429  20.114  0.00  0.00    +0.000 C 
BRANCH  23  24
ATOM     24  N   UNL     1       2.144   7.613  19.371  0.00  0.00    +0.000 N 
ATOM     25  C   UNL     1       2.506   7.837  18.074  0.00  0.00    +0.000 A 
ATOM     26  N   UNL     1       2.042   8.976  17.626  0.00  0.00    +0.000 NA
ATOM     27  C   UNL     1       1.362   9.519  18.692  0.00  0.00    +0.000 A 
ATOM     28  C   UNL     1       1.360   8.672  19.777  0.00  0.00    +0.000 A 
ATOM     29  C   UNL     1       0.712   8.807  21.098  0.00  0.00    +0.000 C 
BRANCH  27  30
ATOM     30  C   UNL     1       0.726  10.819  18.661  0.00  0.00    +0.000 A 
ATOM     31  C   UNL     1       1.473  11.969  18.898  0.00  0.00    +0.000 A 
ATOM     32  C   UNL     1       0.844  13.217  18.839  0.00  0.00    +0.000 A 
ATOM     33  C   UNL     1      -0.521  13.314  18.535  0.00  0.00    +0.000 A 
ATOM     34  C   UNL     1      -1.260  12.160  18.290  0.00  0.00    +0.000 A 
ATOM     35  C   UNL     1      -0.644  10.928  18.391  0.00  0.00    +0.000 A 
ENDBRANCH  27  30
ENDBRANCH  23  24
ENDBRANCH  22  23
ENDBRANCH  21  22
ENDBRANCH  20  21
ENDBRANCH   6  20
TORSDOF 12
ENDMDL
MODEL 3
REMARK VINA RESULT:      -8.1      2.927      3.567
REMARK  Name = 
REMARK  14 active torsions:
REMARK  status: ('A' for Active; 'I' for Inactive)
REMARK    1  A    between atoms: C_1  and  C_2
REMARK    2  A    between atoms: C_2  and  C_3
REMARK    3  A    between atoms: C_3  and  C_4
REMARK    4  A    between atoms: C_4  and  C_5
REMARK    5  A    between atoms: C_5  and  N_6
REMARK    6  A    between atoms: N_9  and  C_10
REMARK    7  A    between atoms: C_11  and  O_12
REMARK    8  A    between atoms: C_16  and  O_17
REMARK    9  A    between atoms: O_17  and  C_18
REMARK   10  A    between atoms: C_18  and  C_19
REMARK   11  A    between atoms: C_19  and  C_20
REMARK   12  A    between atoms: C_20  and  N_21
REMARK   13  A    between atoms: C_24  and  C_25
REMARK   14  A    between atoms: C_31  and  C_32
REMARK                            x       y       z     vdW  Elec       q    Type
REMARK                         _______ _______ _______ _____ _____    ______ ____
ROOT
ATOM      1  C   UNL     1       3.479   2.682  18.913  0.00  0.00    +0.000 A 
ATOM      2  C   UNL     1       3.943   2.199  20.165  0.00  0.00    +0.000 A 
ATOM      3  C   UNL     1       3.168   2.246  21.312  0.00  0.00    +0.000 A 
ATOM      4  C   UNL     1       1.881   2.763  21.261  0.00  0.00    +0.000 A 
ATOM      5  C   UNL     1       1.412   3.254  20.072  0.00  0.00    +0.000 A 
ATOM      6  C   UNL     1       2.177   3.277  18.908  0.00  0.00    +0.000 A 
ENDROOT
BRANCH   1  10
ATOM      7  N   UNL     1       5.983   3.447  16.388  0.00  0.00    +0.000 N 
ATOM      8  C   UNL     1       5.287   3.610  17.565  0.00  0.00    +0.000 C 
ATOM      9  O   UNL     1       5.429   4.614  18.266  0.00  0.00    +0.000 OA
ATOM     10  N   UNL     1       4.342   2.630  17.794  0.00  0.00    +0.000 N 
ATOM     11  H   UNL     1       5.970   2.551  15.908  0.00  0.00    +0.000 HD
ATOM     12  H   UNL     1       4.591   1.714  17.428  0.00  0.00    +0.000 HD
BRANCH   7  13
ATOM     13  C   UNL     1       6.940   4.448  15.961  0.00  0.00    +0.000 C 
BRANCH  13  14
ATOM     14  C   UNL     1       6.767   4.844  14.495  0.00  0.00    +0.000 C 
BRANCH  14  15
ATOM     15  C   UNL     1       5.612   4.056  13.870  0.00  0.00    +0.000 C 
BRANCH  15  17
ATOM     16  C   UNL     1       4.754   3.203  11.660  0.00  0.00    +0.000 C 
ATOM     17  C   UNL     1       5.987   3.460  12.514  0.00  0.00    +0.000 C 
ENDBRANCH  15  17
ENDBRANCH  14  15
ENDBRANCH  13  14
ENDBRANCH   7  13
ENDBRANCH   1  10
BRANCH   2  18
ATOM     18  O   UNL     1       5.219   1.725  20.333  0.00  0.00    +0.000 OA
ATOM     19  H   UNL     1       5.216   1.191  21.142  0.00  0.00    +0.000 HD
ENDBRANCH   2  18
BRANCH   6  20
ATOM     20  O   UNL     1       1.610   3.824  17.771  0.00  0.00    +0.000 OA
BRANCH  20  21
ATOM     21  C   UNL     1       1.275   5.222  17.938  0.00  0.00    +0.000 C 
BRANCH  21  22
ATOM     22  C   UNL     1       2.552   6.029  18.003  0.00  0.00    +0.000 C 
BRANCH  22  23
ATOM     23  C   UNL     1       2.755   6.532  19.423  0.00  0.00    +0.000 C 
BRANCH  23  24
ATOM     24  N   UNL     1       1.963   7.693  19.740  0.00  0.00    +0.000 N 
ATOM     25  C   UNL     1       1.336   7.889  20.937  0.00  0.00    +0.000 A 
ATOM     26  N   UNL     1       0.703   9.033  20.977  0.00  0.00    +0.000 NA
ATOM     27  C   UNL     1       0.920   9.595  19.739  0.00  0.00    +0.000 A 
ATOM     28  C   UNL     1       1.745   8.813  18.965  0.00  0.00    +0.000 A 
ATOM     29  C   UNL     1       2.291   9.042  17.611  0.00  0.00    +0.000 C 
BRANCH  27  30
ATOM     30  C   UNL     1       0.349  10.858  19.320  0.00  0.00    +0.000 A 
ATOM     31  C   UNL     1       1.123  12.015  19.334  0.00  0.00    +0.000 A 
ATOM     32  C   UNL     1       0.560  13.219  18.902  0.00  0.00    +0.000 A 
ATOM     33  C   UNL     1      -0.766  13.266  18.451  0.00  0.00    +0.000 A 
ATOM     34  C   UNL     1      -1.532  12.103  18.431  0.00  0.00    +0.000 A 
ATOM     35  C   UNL     1      -0.984  10.924  18.898  0.00  0.00    +0.000 A 
ENDBRANCH  27  30
ENDBRANCH  23  24
ENDBRANCH  22  23
ENDBRANCH  21  22
ENDBRANCH  20  21
ENDBRANCH   6  20
TORSDOF 12
ENDMDL
MODEL 4
REMARK VINA RESULT:      -8.0      2.104      3.168
REMARK  Name = 
REMARK  14 active torsions:
REMARK  status: ('A' for Active; 'I' for Inactive)
REMARK    1  A    between atoms: C_1  and  C_2
REMARK    2  A    between atoms: C_2  and  C_3
REMARK    3  A    between atoms: C_3  and  C_4
REMARK    4  A    between atoms: C_4  and  C_5
REMARK    5  A    between atoms: C_5  and  N_6
REMARK    6  A    between atoms: N_9  and  C_10
REMARK    7  A    between atoms: C_11  and  O_12
REMARK    8  A    between atoms: C_16  and  O_17
REMARK    9  A    between atoms: O_17  and  C_18
REMARK   10  A    between atoms: C_18  and  C_19
REMARK   11  A    between atoms: C_19  and  C_20
REMARK   12  A    between atoms: C_20  and  N_21
REMARK   13  A    between atoms: C_24  and  C_25
REMARK   14  A    between atoms: C_31  and  C_32
REMARK                            x       y       z     vdW  Elec       q    Type
REMARK                         _______ _______ _______ _____ _____    ______ ____
ROOT
ATOM      1  C   UNL     1       3.324   3.580  19.170  0.00  0.00    +0.000 A 
ATOM      2  C   UNL     1       2.880   2.361  18.594  0.00  0.00    +0.000 A 
ATOM      3  C   UNL     1       1.568   1.929  18.689  0.00  0.00    +0.000 A 
ATOM      4  C   UNL     1       0.627   2.706  19.352  0.00  0.00    +0.000 A 
ATOM      5  C   UNL     1       1.028   3.878  19.934  0.00  0.00    +0.000 A 
ATOM      6  C   UNL     1       2.348   4.322  19.909  0.00  0.00    +0.000 A 
ENDROOT
BRANCH   1  10
ATOM      7  N   UNL     1       6.484   5.032  18.102  0.00  0.00    +0.000 N 
ATOM      8  C   UNL     1       5.117   4.866  18.131  0.00  0.00    +0.000 C 
ATOM      9  O   UNL     1       4.382   5.416  17.308  0.00  0.00    +0.000 OA
ATOM     10  N   UNL     1       4.688   3.937  19.058  0.00  0.00    +0.000 N 
ATOM     11  H   UNL     1       7.054   4.700  18.875  0.00  0.00    +0.000 HD
ATOM     12  H   UNL     1       5.263   3.884  19.895  0.00  0.00    +0.000 HD
BRANCH   7  13
ATOM     13  C   UNL     1       7.093   5.900  17.114  0.00  0.00    +0.000 C 
BRANCH  13  14
ATOM     14  C   UNL     1       6.904   7.383  17.432  0.00  0.00    +0.000 C 
BRANCH  14  15
ATOM     15  C   UNL     1       8.247   8.016  17.808  0.00  0.00    +0.000 C 
BRANCH  15  17
ATOM     16  C   UNL     1       9.106  10.046  19.028  0.00  0.00    +0.000 C 
ATOM     17  C   UNL     1       8.146   9.533  17.965  0.00  0.00    +0.000 C 
ENDBRANCH  15  17
ENDBRANCH  14  15
ENDBRANCH  13  14
ENDBRANCH   7  13
ENDBRANCH   1  10
BRANCH   2  18
ATOM     18  O   UNL     1       3.743   1.496  17.970  0.00  0.00    +0.000 OA
ATOM     19  H   UNL     1       4.421   2.037  17.539  0.00  0.00    +0.000 HD
ENDBRANCH   2  18
BRANCH   6  20
ATOM     20  O   UNL     1       2.645   5.508  20.557  0.00  0.00    +0.000 OA
BRANCH  20  21
ATOM     21  C   UNL     1       1.972   6.645  19.965  0.00  0.00    +0.000 C 
BRANCH  21  22
ATOM     22  C   UNL     1       1.806   7.719  21.015  0.00  0.00    +0.000 C 
BRANCH  22  23
ATOM     23  C   UNL     1       0.911   8.819  20.469  0.00  0.00    +0.000 C 
BRANCH  23  24
ATOM     24  N   UNL     1       0.290   9.618  21.495  0.00  0.00    +0.000 N 
ATOM     25  C   UNL     1       0.335   9.322  22.828  0.00  0.00    +0.000 A 
ATOM     26  N   UNL     1      -0.288  10.218  23.549  0.00  0.00    +0.000 NA
ATOM     27  C   UNL     1      -0.771  11.127  22.636  0.00  0.00    +0.000 A 
ATOM     28  C   UNL     1      -0.383  10.812  21.354  0.00  0.00    +0.000 A 
ATOM     29  C   UNL     1      -0.614  11.525  20.080  0.00  0.00    +0.000 C 
BRANCH  27  30
ATOM     30  C   UNL     1      -1.581  12.273  22.994  0.00  0.00    +0.000 A 
ATOM     31  C   UNL     1      -2.951  12.128  23.187  0.00  0.00    +0.000 A 
ATOM     32  C   UNL     1      -3.711  13.241  23.557  0.00  0.00    +0.000 A 
ATOM     33  C   UNL     1      -3.103  14.491  23.742  0.00  0.00    +0.000 A 
ATOM     34  C   UNL     1      -1.730  14.626  23.557  0.00  0.00    +0.000 A 
ATOM     35  C   UNL     1      -0.990  13.533  23.150  0.00  0.00    +0.000 A 
ENDBRANCH  27  30
ENDBRANCH  23  24
ENDBRANCH  22  23
ENDBRANCH  21  22
ENDBRANCH  20  21
ENDBRANCH   6  20
TORSDOF 12
ENDMDL
MODEL 5
REMARK VINA RESULT:      -7.9      2.819      5.370
REMARK  Name = 
REMARK  14 active torsions:
REMARK  status: ('A' for Active; 'I' for Inactive)
REMARK    1  A    between atoms: C_1  and  C_2
REMARK    2  A    between atoms: C_2  and  C_3
REMARK    3  A    between atoms: C_3  and  C_4
REMARK    4  A    between atoms: C_4  and  C_5
REMARK    5  A    between atoms: C_5  and  N_6
REMARK    6  A    between atoms: N_9  and  C_10
REMARK    7  A    between atoms: C_11  and  O_12
REMARK    8  A    between atoms: C_16  and  O_17
REMARK    9  A    between atoms: O_17  and  C_18
REMARK   10  A    between atoms: C_18  and  C_19
REMARK   11  A    between atoms: C_19  and  C_20
REMARK   12  A    between atoms: C_20  and  N_21
REMARK   13  A    between atoms: C_24  and  C_25
REMARK   14  A    between atoms: C_31  and  C_32
REMARK                            x       y       z     vdW  Elec       q    Type
REMARK                         _______ _______ _______ _____ _____    ______ ____
ROOT
ATOM      1  C   UNL     1       6.649   5.555  18.204  0.00  0.00    +0.000 A 
ATOM      2  C   UNL     1       7.793   6.014  18.908  0.00  0.00    +0.000 A 
ATOM      3  C   UNL     1       8.332   7.274  18.707  0.00  0.00    +0.000 A 
ATOM      4  C   UNL     1       7.742   8.147  17.803  0.00  0.00    +0.000 A 
ATOM      5  C   UNL     1       6.648   7.727  17.095  0.00  0.00    +0.000 A 
ATOM      6  C   UNL     1       6.107   6.449  17.226  0.00  0.00    +0.000 A 
ENDROOT
BRANCH   1  10
ATOM      7  N   UNL     1       4.907   2.650  19.530  0.00  0.00    +0.000 N 
ATOM      8  C   UNL     1       5.186   3.989  19.368  0.00  0.00    +0.000 C 
ATOM      9  O   UNL     1       4.674   4.847  20.089  0.00  0.00    +0.000 OA
ATOM     10  N   UNL     1       6.177   4.244  18.441  0.00  0.00    +0.000 N 
ATOM     11  H   UNL     1       5.215   1.978  18.833  0.00  0.00    +0.000 HD
ATOM     12  H   UNL     1       6.208   3.581  17.669  0.00  0.00    +0.000 HD
BRANCH   7  13
ATOM     13  C   UNL     1       3.961   2.218  20.539  0.00  0.00    +0.000 C 
BRANCH  13  14
ATOM     14  C   UNL     1       2.550   2.026  19.984  0.00  0.00    +0.000 C 
BRANCH  14  15
ATOM     15  C   UNL     1       1.562   2.924  20.736  0.00  0.00    +0.000 C 
BRANCH  15  17
ATOM     16  C   UNL     1       1.268   3.743  18.372  0.00  0.00    +0.000 C 
ATOM     17  C   UNL     1       0.983   4.020  19.842  0.00  0.00    +0.000 C 
ENDBRANCH  15  17
ENDBRANCH  14  15
ENDBRANCH  13  14
ENDBRANCH   7  13
ENDBRANCH   1  10
BRANCH   2  18
ATOM     18  O   UNL     1       8.483   5.208  19.777  0.00  0.00    +0.000 OA
ATOM     19  H   UNL     1       9.410   5.491  19.747  0.00  0.00    +0.000 HD
ENDBRANCH   2  18
BRANCH   6  20
ATOM     20  O   UNL     1       5.017   6.124  16.438  0.00  0.00    +0.000 OA
BRANCH  20  21
ATOM     21  C   UNL     1       3.786   6.062  17.196  0.00  0.00    +0.000 C 
BRANCH  21  22
ATOM     22  C   UNL     1       3.399   7.460  17.620  0.00  0.00    +0.000 C 
BRANCH  22  23
ATOM     23  C   UNL     1       2.408   7.379  18.770  0.00  0.00    +0.000 C 
BRANCH  23  24
ATOM     24  N   UNL     1       1.714   8.617  19.020  0.00  0.00    +0.000 N 
ATOM     25  C   UNL     1       1.337   9.493  18.043  0.00  0.00    +0.000 A 
ATOM     26  N   UNL     1       0.702  10.528  18.533  0.00  0.00    +0.000 NA
ATOM     27  C   UNL     1       0.683  10.314  19.892  0.00  0.00    +0.000 A 
ATOM     28  C   UNL     1       1.256   9.108  20.224  0.00  0.00    +0.000 A 
ATOM     29  C   UNL     1       1.401   8.443  21.536  0.00  0.00    +0.000 C 
BRANCH  27  30
ATOM     30  C   UNL     1       0.120  11.249  20.844  0.00  0.00    +0.000 A 
ATOM     31  C   UNL     1      -0.874  10.836  21.725  0.00  0.00    +0.000 A 
ATOM     32  C   UNL     1      -1.387  11.748  22.652  0.00  0.00    +0.000 A 
ATOM     33  C   UNL     1      -0.902  13.062  22.704  0.00  0.00    +0.000 A 
ATOM     34  C   UNL     1       0.100  13.465  21.826  0.00  0.00    +0.000 A 
ATOM     35  C   UNL     1       0.574  12.573  20.884  0.00  0.00    +0.000 A 
ENDBRANCH  27  30
ENDBRANCH  23  24
ENDBRANCH  22  23
ENDBRANCH  21  22
ENDBRANCH  20  21
ENDBRANCH   6  20
TORSDOF 12
ENDMDL
MODEL 6
REMARK VINA RESULT:      -7.9      2.248      3.103
REMARK  Name = 
REMARK  14 active torsions:
REMARK  status: ('A' for Active; 'I' for Inactive)
REMARK    1  A    between atoms: C_1  and  C_2
REMARK    2  A    between atoms: C_2  and  C_3
REMARK    3  A    between atoms: C_3  and  C_4
REMARK    4  A    between atoms: C_4  and  C_5
REMARK    5  A    between atoms: C_5  and  N_6
REMARK    6  A    between atoms: N_9  and  C_10
REMARK    7  A    between atoms: C_11  and  O_12
REMARK    8  A    between atoms: C_16  and  O_17
REMARK    9  A    between atoms: O_17  and  C_18
REMARK   10  A    between atoms: C_18  and  C_19
REMARK   11  A    between atoms: C_19  and  C_20
REMARK   12  A    between atoms: C_20  and  N_21
REMARK   13  A    between atoms: C_24  and  C_25
REMARK   14  A    between atoms: C_31  and  C_32
REMARK                            x       y       z     vdW  Elec       q    Type
REMARK                         _______ _______ _______ _____ _____    ______ ____
ROOT
ATOM      1  C   UNL     1       3.230   3.647  19.187  0.00  0.00    +0.000 A 
ATOM      2  C   UNL     1       3.221   2.545  20.081  0.00  0.00    +0.000 A 
ATOM      3  C   UNL     1       2.324   2.449  21.132  0.00  0.00    +0.000 A 
ATOM      4  C   UNL     1       1.379   3.445  21.332  0.00  0.00    +0.000 A 
ATOM      5  C   UNL     1       1.374   4.531  20.498  0.00  0.00    +0.000 A 
ATOM      6  C   UNL     1       2.293   4.693  19.462  0.00  0.00    +0.000 A 
ENDROOT
BRANCH   1  10
ATOM      7  N   UNL     1       6.245   4.248  17.241  0.00  0.00    +0.000 N 
ATOM      8  C   UNL     1       5.459   4.209  18.371  0.00  0.00    +0.000 C 
ATOM      9  O   UNL     1       5.829   4.714  19.433  0.00  0.00    +0.000 OA
ATOM     10  N   UNL     1       4.198   3.689  18.157  0.00  0.00    +0.000 N 
ATOM     11  H   UNL     1       5.992   3.695  16.426  0.00  0.00    +0.000 HD
ATOM     12  H   UNL     1       4.159   2.970  17.438  0.00  0.00    +0.000 HD
BRANCH   7  13
ATOM     13  C   UNL     1       7.559   4.857  17.285  0.00  0.00    +0.000 C 
BRANCH  13  14
ATOM     14  C   UNL     1       7.554   6.308  16.805  0.00  0.00    +0.000 C 
BRANCH  14  15
ATOM     15  C   UNL     1       7.581   7.260  18.006  0.00  0.00    +0.000 C 
BRANCH  15  17
ATOM     16  C   UNL     1       8.748   9.409  18.606  0.00  0.00    +0.000 C 
ATOM     17  C   UNL     1       7.861   8.703  17.591  0.00  0.00    +0.000 C 
ENDBRANCH  15  17
ENDBRANCH  14  15
ENDBRANCH  13  14
ENDBRANCH   7  13
ENDBRANCH   1  10
BRANCH   2  18
ATOM     18  O   UNL     1       4.151   1.540  20.004  0.00  0.00    +0.000 OA
ATOM     19  H   UNL     1       4.874   1.867  19.447  0.00  0.00    +0.000 HD
ENDBRANCH   2  18
BRANCH   6  20
ATOM     20  O   UNL     1       2.212   5.845  18.701  0.00  0.00    +0.000 OA
BRANCH  20  21
ATOM     21  C   UNL     1       2.708   7.009  19.404  0.00  0.00    +0.000 C 
BRANCH  21  22
ATOM     22  C   UNL     1       1.625   8.063  19.433  0.00  0.00    +0.000 C 
BRANCH  22  23
ATOM     23  C   UNL     1       1.367   8.478  20.872  0.00  0.00    +0.000 C 
BRANCH  23  24
ATOM     24  N   UNL     1       0.620   9.704  20.992  0.00  0.00    +0.000 N 
ATOM     25  C   UNL     1       0.424  10.585  19.967  0.00  0.00    +0.000 A 
ATOM     26  N   UNL     1      -0.307  11.606  20.333  0.00  0.00    +0.000 NA
ATOM     27  C   UNL     1      -0.583  11.380  21.662  0.00  0.00    +0.000 A 
ATOM     28  C   UNL     1      -0.067  10.178  22.089  0.00  0.00    +0.000 A 
ATOM     29  C   UNL     1      -0.167   9.504  23.400  0.00  0.00    +0.000 C 
BRANCH  27  30
ATOM     30  C   UNL     1      -1.332  12.299  22.494  0.00  0.00    +0.000 A 
ATOM     31  C   UNL     1      -0.727  13.455  22.979  0.00  0.00    +0.000 A 
ATOM     32  C   UNL     1      -1.475  14.340  23.761  0.00  0.00    +0.000 A 
ATOM     33  C   UNL     1      -2.821  14.076  24.048  0.00  0.00    +0.000 A 
ATOM     34  C   UNL     1      -3.422  12.923  23.552  0.00  0.00    +0.000 A 
ATOM     35  C   UNL     1      -2.668  12.030  22.815  0.00  0.00    +0.000 A 
ENDBRANCH  27  30
ENDBRANCH  23  24
ENDBRANCH  22  23
ENDBRANCH  21  22
ENDBRANCH  20  21
ENDBRANCH   6  20
TORSDOF 12
ENDMDL
MODEL 7
REMARK VINA RESULT:      -7.8      1.471      1.884
REMARK  Name = 
REMARK  14 active torsions:
REMARK  status: ('A' for Active; 'I' for Inactive)
REMARK    1  A    between atoms: C_1  and  C_2
REMARK    2  A    between atoms: C_2  and  C_3
REMARK    3  A    between atoms: C_3  and  C_4
REMARK    4  A    between atoms: C_4  and  C_5
REMARK    5  A    between atoms: C_5  and  N_6
REMARK    6  A    between atoms: N_9  and  C_10
REMARK    7  A    between atoms: C_11  and  O_12
REMARK    8  A    between atoms: C_16  and  O_17
REMARK    9  A    between atoms: O_17  and  C_18
REMARK   10  A    between atoms: C_18  and  C_19
REMARK   11  A    between atoms: C_19  and  C_20
REMARK   12  A    between atoms: C_20  and  N_21
REMARK   13  A    between atoms: C_24  and  C_25
REMARK   14  A    between atoms: C_31  and  C_32
REMARK                            x       y       z     vdW  Elec       q    Type
REMARK                         _______ _______ _______ _____ _____    ______ ____
ROOT
ATOM      1  C   UNL     1       3.350   3.431  19.320  0.00  0.00    +0.000 A 
ATOM      2  C   UNL     1       3.666   2.465  20.310  0.00  0.00    +0.000 A 
ATOM      3  C   UNL     1       2.987   2.387  21.515  0.00  0.00    +0.000 A 
ATOM      4  C   UNL     1       1.945   3.264  21.783  0.00  0.00    +0.000 A 
ATOM      5  C   UNL     1       1.628   4.219  20.856  0.00  0.00    +0.000 A 
ATOM      6  C   UNL     1       2.320   4.367  19.656  0.00  0.00    +0.000 A 
ENDROOT
BRANCH   1  10
ATOM      7  N   UNL     1       5.930   4.063  16.834  0.00  0.00    +0.000 N 
ATOM      8  C   UNL     1       5.367   4.038  18.091  0.00  0.00    +0.000 C 
ATOM      9  O   UNL     1       5.905   4.594  19.051  0.00  0.00    +0.000 OA
ATOM     10  N   UNL     1       4.110   3.468  18.128  0.00  0.00    +0.000 N 
ATOM     11  H   UNL     1       5.555   3.473  16.097  0.00  0.00    +0.000 HD
ATOM     12  H   UNL     1       3.968   2.723  17.450  0.00  0.00    +0.000 HD
BRANCH   7  13
ATOM     13  C   UNL     1       7.204   4.718  16.617  0.00  0.00    +0.000 C 
BRANCH  13  14
ATOM     14  C   UNL     1       7.444   5.074  15.150  0.00  0.00    +0.000 C 
BRANCH  14  15
ATOM     15  C   UNL     1       6.161   4.861  14.341  0.00  0.00    +0.000 C 
BRANCH  15  17
ATOM     16  C   UNL     1       6.558   3.812  12.085  0.00  0.00    +0.000 C 
ATOM     17  C   UNL     1       6.194   3.559  13.541  0.00  0.00    +0.000 C 
ENDBRANCH  15  17
ENDBRANCH  14  15
ENDBRANCH  13  14
ENDBRANCH   7  13
ENDBRANCH   1  10
BRANCH   2  18
ATOM     18  O   UNL     1       4.716   1.594  20.167  0.00  0.00    +0.000 OA
ATOM     19  H   UNL     1       4.435   0.917  19.533  0.00  0.00    +0.000 HD
ENDBRANCH   2  18
BRANCH   6  20
ATOM     20  O   UNL     1       1.932   5.388  18.806  0.00  0.00    +0.000 OA
BRANCH  20  21
ATOM     21  C   UNL     1       2.593   6.640  19.107  0.00  0.00    +0.000 C 
BRANCH  21  22
ATOM     22  C   UNL     1       1.906   7.285  20.290  0.00  0.00    +0.000 C 
BRANCH  22  23
ATOM     23  C   UNL     1       1.428   8.673  19.895  0.00  0.00    +0.000 C 
BRANCH  23  24
ATOM     24  N   UNL     1       0.857   9.417  20.989  0.00  0.00    +0.000 N 
ATOM     25  C   UNL     1       1.095   9.147  22.306  0.00  0.00    +0.000 A 
ATOM     26  N   UNL     1       0.475   9.983  23.097  0.00  0.00    +0.000 NA
ATOM     27  C   UNL     1      -0.208  10.825  22.249  0.00  0.00    +0.000 A 
ATOM     28  C   UNL     1       0.051  10.534  20.929  0.00  0.00    +0.000 A 
ATOM     29  C   UNL     1      -0.406  11.201  19.692  0.00  0.00    +0.000 C 
BRANCH  27  30
ATOM     30  C   UNL     1      -1.083  11.885  22.703  0.00  0.00    +0.000 A 
ATOM     31  C   UNL     1      -2.366  11.589  23.155  0.00  0.00    +0.000 A 
ATOM     32  C   UNL     1      -3.186  12.625  23.612  0.00  0.00    +0.000 A 
ATOM     33  C   UNL     1      -2.724  13.948  23.625  0.00  0.00    +0.000 A 
ATOM     34  C   UNL     1      -1.437  14.236  23.180  0.00  0.00    +0.000 A 
ATOM     35  C   UNL     1      -0.645  13.215  22.690  0.00  0.00    +0.000 A 
ENDBRANCH  27  30
ENDBRANCH  23  24
ENDBRANCH  22  23
ENDBRANCH  21  22
ENDBRANCH  20  21
ENDBRANCH   6  20
TORSDOF 12
ENDMDL
MODEL 8
REMARK VINA RESULT:      -7.8      1.089      1.120
REMARK  Name = 
REMARK  14 active torsions:
REMARK  status: ('A' for Active; 'I' for Inactive)
REMARK    1  A    between atoms: C_1  and  C_2
REMARK    2  A    between atoms: C_2  and  C_3
REMARK    3  A    between atoms: C_3  and  C_4
REMARK    4  A    between atoms: C_4  and  C_5
REMARK    5  A    between atoms: C_5  and  N_6
REMARK    6  A    between atoms: N_9  and  C_10
REMARK    7  A    between atoms: C_11  and  O_12
REMARK    8  A    between atoms: C_16  and  O_17
REMARK    9  A    between atoms: O_17  and  C_18
REMARK   10  A    between atoms: C_18  and  C_19
REMARK   11  A    between atoms: C_19  and  C_20
REMARK   12  A    between atoms: C_20  and  N_21
REMARK   13  A    between atoms: C_24  and  C_25
REMARK   14  A    between atoms: C_31  and  C_32
REMARK                            x       y       z     vdW  Elec       q    Type
REMARK                         _______ _______ _______ _____ _____    ______ ____
ROOT
ATOM      1  C   UNL     1       3.321   3.592  18.916  0.00  0.00    +0.000 A 
ATOM      2  C   UNL     1       2.636   2.379  18.644  0.00  0.00    +0.000 A 
ATOM      3  C   UNL     1       1.334   2.153  19.058  0.00  0.00    +0.000 A 
ATOM      4  C   UNL     1       0.644   3.138  19.752  0.00  0.00    +0.000 A 
ATOM      5  C   UNL     1       1.284   4.311  20.046  0.00  0.00    +0.000 A 
ATOM      6  C   UNL     1       2.610   4.559  19.697  0.00  0.00    +0.000 A 
ENDROOT
BRANCH   1  10
ATOM      7  N   UNL     1       6.362   4.682  17.243  0.00  0.00    +0.000 N 
ATOM      8  C   UNL     1       5.038   4.740  17.619  0.00  0.00    +0.000 C 
ATOM      9  O   UNL     1       4.257   5.548  17.113  0.00  0.00    +0.000 OA
ATOM     10  N   UNL     1       4.661   3.736  18.489  0.00  0.00    +0.000 N 
ATOM     11  H   UNL     1       7.019   4.122  17.778  0.00  0.00    +0.000 HD
ATOM     12  H   UNL     1       5.398   3.432  19.122  0.00  0.00    +0.000 HD
BRANCH   7  13
ATOM     13  C   UNL     1       6.882   5.609  16.258  0.00  0.00    +0.000 C 
BRANCH  13  14
ATOM     14  C   UNL     1       6.330   5.354  14.856  0.00  0.00    +0.000 C 
BRANCH  14  15
ATOM     15  C   UNL     1       6.248   3.848  14.589  0.00  0.00    +0.000 C 
BRANCH  15  17
ATOM     16  C   UNL     1       6.561   3.506  12.113  0.00  0.00    +0.000 C 
ATOM     17  C   UNL     1       5.561   3.535  13.260  0.00  0.00    +0.000 C 
ENDBRANCH  15  17
ENDBRANCH  14  15
ENDBRANCH  13  14
ENDBRANCH   7  13
ENDBRANCH   1  10
BRANCH   2  18
ATOM     18  O   UNL     1       3.248   1.324  18.018  0.00  0.00    +0.000 OA
ATOM     19  H   UNL     1       2.859   1.257  17.133  0.00  0.00    +0.000 HD
ENDBRANCH   2  18
BRANCH   6  20
ATOM     20  O   UNL     1       3.163   5.770  20.073  0.00  0.00    +0.000 OA
BRANCH  20  21
ATOM     21  C   UNL     1       2.395   6.900  19.596  0.00  0.00    +0.000 C 
BRANCH  21  22
ATOM     22  C   UNL     1       1.847   7.657  20.785  0.00  0.00    +0.000 C 
BRANCH  22  23
ATOM     23  C   UNL     1       0.898   8.739  20.295  0.00  0.00    +0.000 C 
BRANCH  23  24
ATOM     24  N   UNL     1       0.341   9.538  21.356  0.00  0.00    +0.000 N 
ATOM     25  C   UNL     1       0.491   9.259  22.685  0.00  0.00    +0.000 A 
ATOM     26  N   UNL     1      -0.093  10.153  23.441  0.00  0.00    +0.000 NA
ATOM     27  C   UNL     1      -0.659  11.042  22.557  0.00  0.00    +0.000 A 
ATOM     28  C   UNL     1      -0.362  10.719  21.253  0.00  0.00    +0.000 A 
ATOM     29  C   UNL     1      -0.700  11.413  19.993  0.00  0.00    +0.000 C 
BRANCH  27  30
ATOM     30  C   UNL     1      -1.461  12.178  22.964  0.00  0.00    +0.000 A 
ATOM     31  C   UNL     1      -0.892  13.446  23.034  0.00  0.00    +0.000 A 
ATOM     32  C   UNL     1      -1.690  14.532  23.406  0.00  0.00    +0.000 A 
ATOM     33  C   UNL     1      -3.049  14.354  23.695  0.00  0.00    +0.000 A 
ATOM     34  C   UNL     1      -3.614  13.084  23.613  0.00  0.00    +0.000 A 
ATOM     35  C   UNL     1      -2.812  12.007  23.287  0.00  0.00    +0.000 A 
ENDBRANCH  27  30
ENDBRANCH  23  24
ENDBRANCH  22  23
ENDBRANCH  21  22
ENDBRANCH  20  21
ENDBRANCH   6  20
TORSDOF 12
ENDMDL
MODEL 9
REMARK VINA RESULT:      -7.7      2.704      4.017
REMARK  Name = 
REMARK  14 active torsions:
REMARK  status: ('A' for Active; 'I' for Inactive)
REMARK    1  A    between atoms: C_1  and  C_2
REMARK    2  A    between atoms: C_2  and  C_3
REMARK    3  A    between atoms: C_3  and  C_4
REMARK    4  A    between atoms: C_4  and  C_5
REMARK    5  A    between atoms: C_5  and  N_6
REMARK    6  A    between atoms: N_9  and  C_10
REMARK    7  A    between atoms: C_11  and  O_12
REMARK    8  A    between atoms: C_16  and  O_17
REMARK    9  A    between atoms: O_17  and  C_18
REMARK   10  A    between atoms: C_18  and  C_19
REMARK   11  A    between atoms: C_19  and  C_20
REMARK   12  A    between atoms: C_20  and  N_21
REMARK   13  A    between atoms: C_24  and  C_25
REMARK   14  A    between atoms: C_31  and  C_32
REMARK                            x       y       z     vdW  Elec       q    Type
REMARK                         _______ _______ _______ _____ _____    ______ ____
ROOT
ATOM      1  C   UNL     1       3.789   4.857  17.250  0.00  0.00    +0.000 A 
ATOM      2  C   UNL     1       3.980   3.452  17.182  0.00  0.00    +0.000 A 
ATOM      3  C   UNL     1       3.028   2.551  17.631  0.00  0.00    +0.000 A 
ATOM      4  C   UNL     1       1.828   3.011  18.155  0.00  0.00    +0.000 A 
ATOM      5  C   UNL     1       1.622   4.361  18.251  0.00  0.00    +0.000 A 
ATOM      6  C   UNL     1       2.574   5.301  17.863  0.00  0.00    +0.000 A 
ENDROOT
BRANCH   1  10
ATOM      7  N   UNL     1       6.736   6.981  17.056  0.00  0.00    +0.000 N 
ATOM      8  C   UNL     1       5.867   6.077  17.625  0.00  0.00    +0.000 C 
ATOM      9  O   UNL     1       5.968   5.741  18.807  0.00  0.00    +0.000 OA
ATOM     10  N   UNL     1       4.821   5.713  16.801  0.00  0.00    +0.000 N 
ATOM     11  H   UNL     1       6.733   7.126  16.050  0.00  0.00    +0.000 HD
ATOM     12  H   UNL     1       5.055   5.698  15.811  0.00  0.00    +0.000 HD
BRANCH   7  13
ATOM     13  C   UNL     1       7.828   7.533  17.832  0.00  0.00    +0.000 C 
BRANCH  13  14
ATOM     14  C   UNL     1       7.904   9.057  17.744  0.00  0.00    +0.000 C 
BRANCH  14  15
ATOM     15  C   UNL     1       8.943   9.590  18.735  0.00  0.00    +0.000 C 
BRANCH  15  17
ATOM     16  C   UNL     1       9.462  11.899  19.600  0.00  0.00    +0.000 C 
ATOM     17  C   UNL     1       9.415  10.998  18.374  0.00  0.00    +0.000 C 
ENDBRANCH  15  17
ENDBRANCH  14  15
ENDBRANCH  13  14
ENDBRANCH   7  13
ENDBRANCH   1  10
BRANCH   2  18
ATOM     18  O   UNL     1       5.153   2.899  16.736  0.00  0.00    +0.000 OA
ATOM     19  H   UNL     1       4.914   2.207  16.101  0.00  0.00    +0.000 HD
ENDBRANCH   2  18
BRANCH   6  20
ATOM     20  O   UNL     1       2.269   6.640  18.033  0.00  0.00    +0.000 OA
BRANCH  20  21
ATOM     21  C   UNL     1       2.315   7.045  19.422  0.00  0.00    +0.000 C 
BRANCH  21  22
ATOM     22  C   UNL     1       1.791   8.459  19.538  0.00  0.00    +0.000 C 
BRANCH  22  23
ATOM     23  C   UNL     1       1.249   8.678  20.940  0.00  0.00    +0.000 C 
BRANCH  23  24
ATOM     24  N   UNL     1       0.435   9.861  21.064  0.00  0.00    +0.000 N 
ATOM     25  C   UNL     1       0.125  10.689  20.024  0.00  0.00    +0.000 A 
ATOM     26  N   UNL     1      -0.646  11.677  20.398  0.00  0.00    +0.000 NA
ATOM     27  C   UNL     1      -0.830  11.484  21.748  0.00  0.00    +0.000 A 
ATOM     28  C   UNL     1      -0.216  10.333  22.184  0.00  0.00    +0.000 A 
ATOM     29  C   UNL     1      -0.197   9.703  23.521  0.00  0.00    +0.000 C 
BRANCH  27  30
ATOM     30  C   UNL     1      -1.585  12.386  22.593  0.00  0.00    +0.000 A 
ATOM     31  C   UNL     1      -2.926  12.131  22.866  0.00  0.00    +0.000 A 
ATOM     32  C   UNL     1      -3.630  13.002  23.703  0.00  0.00    +0.000 A 
ATOM     33  C   UNL     1      -2.995  14.115  24.271  0.00  0.00    +0.000 A 
ATOM     34  C   UNL     1      -1.652  14.359  24.001  0.00  0.00    +0.000 A 
ATOM     35  C   UNL     1      -0.971  13.520  23.140  0.00  0.00    +0.000 A 
ENDBRANCH  27  30
ENDBRANCH  23  24
ENDBRANCH  22  23
ENDBRANCH  21  22
ENDBRANCH  20  21
ENDBRANCH   6  20
TORSDOF 12
ENDMDL
