MODEL 1
REMARK VINA RESULT:      -6.4      0.000      0.000
REMARK  Name = 
REMARK  8 active torsions:
REMARK  status: ('A' for Active; 'I' for Inactive)
REMARK    1  A    between atoms: C_1  and  C_2
REMARK    2  A    between atoms: C_2  and  C_3
REMARK    3  A    between atoms: C_4  and  C_5
REMARK    4  A    between atoms: C_7  and  N_8
REMARK    5  A    between atoms: C_9  and  C_11
REMARK    6  A    between atoms: C_14  and  C_15
REMARK    7  A    between atoms: C_16  and  N_17
REMARK    8  A    between atoms: C_20  and  C_21
REMARK                            x       y       z     vdW  Elec       q    Type
REMARK                         _______ _______ _______ _____ _____    ______ ____
ROOT
ATOM      1  N   UNL     1       2.525   7.404  18.059  0.00  0.00    +0.000 N 
ATOM      2  C   UNL     1       2.097   7.745  19.335  0.00  0.00    +0.000 C 
ATOM      3  O   UNL     1       2.207   7.035  20.326  0.00  0.00    +0.000 OA
ATOM      4  H   UNL     1       2.036   7.855  17.293  0.00  0.00    +0.000 HD
ENDROOT
BRANCH   1   9
ATOM      5  C   UNL     1       4.516   4.394  17.224  0.00  0.00    +0.000 A 
ATOM      6  C   UNL     1       3.340   3.748  17.589  0.00  0.00    +0.000 A 
ATOM      7  C   UNL     1       3.053   2.282  17.672  0.00  0.00    +0.000 C 
ATOM      8  S   UNL     1       2.075   4.863  17.903  0.00  0.00    +0.000 S 
ATOM      9  C   UNL     1       3.130   6.190  17.803  0.00  0.00    +0.000 A 
ATOM     10  C   UNL     1       4.403   5.826  17.427  0.00  0.00    +0.000 A 
BRANCH   5  12
ATOM     11  C   UNL     1       5.898   3.862  15.178  0.00  0.00    +0.000 C 
ATOM     12  C   UNL     1       5.741   3.701  16.679  0.00  0.00    +0.000 C 
ENDBRANCH   5  12
BRANCH  10  13
ATOM     13  C   UNL     1       5.454   6.756  17.130  0.00  0.00    +0.000 C 
ATOM     14  N   UNL     1       6.347   7.473  16.939  0.00  0.00    +0.000 NA
ENDBRANCH  10  13
ENDBRANCH   1   9
BRANCH   2  15
ATOM     15  C   UNL     1       1.426   9.050  19.398  0.00  0.00    +0.000 A 
ATOM     16  N   UNL     1       1.367   9.852  18.318  0.00  0.00    +0.000 NA
ATOM     17  O   UNL     1       0.796  11.037  18.751  0.00  0.00    +0.000 OA
ATOM     18  C   UNL     1       0.467  10.937  20.063  0.00  0.00    +0.000 A 
ATOM     19  C   UNL     1      -0.179  12.120  20.674  0.00  0.00    +0.000 C 
ATOM     20  C   UNL     1       0.813   9.681  20.502  0.00  0.00    +0.000 A 
BRANCH  20  21
ATOM     21  N   UNL     1       0.535   9.147  21.784  0.00  0.00    +0.000 N 
ATOM     22  O   UNL     1      -0.494   8.479  21.882  0.00  0.00    +0.000 OA
ATOM     23  O   UNL     1       1.297   9.477  22.699  0.00  0.00    +0.000 OA
ENDBRANCH  20  21
ENDBRANCH   2  15
TORSDOF 5
ENDMDL
MODEL 2
REMARK VINA RESULT:      -6.3      4.469      7.275
REMARK  Name = 
REMARK  8 active torsions:
REMARK  status: ('A' for Active; 'I' for Inactive)
REMARK    1  A    between atoms: C_1  and  C_2
REMARK    2  A    between atoms: C_2  and  C_3
REMARK    3  A    between atoms: C_4  and  C_5
REMARK    4  A    between atoms: C_7  and  N_8
REMARK    5  A    between atoms: C_9  and  C_11
REMARK    6  A    between atoms: C_14  and  C_15
REMARK    7  A    between atoms: C_16  and  N_17
REMARK    8  A    between atoms: C_20  and  C_21
REMARK                            x       y       z     vdW  Elec       q    Type
REMARK                         _______ _______ _______ _____ _____    ______ ____
ROOT
ATOM      1  N   UNL     1       4.564   5.249  17.473  0.00  0.00    +0.000 N 
ATOM      2  C   UNL     1       4.407   4.334  16.441  0.00  0.00    +0.000 C 
ATOM      3  O   UNL     1       3.595   3.418  16.431  0.00  0.00    +0.000 OA
ATOM      4  H   UNL     1       5.483   5.671  17.555  0.00  0.00    +0.000 HD
ENDROOT
BRANCH   1   9
ATOM      5  C   UNL     1       2.650   4.659  20.589  0.00  0.00    +0.000 A 
ATOM      6  C   UNL     1       2.115   5.902  20.271  0.00  0.00    +0.000 A 
ATOM      7  C   UNL     1       1.130   6.730  21.034  0.00  0.00    +0.000 C 
ATOM      8  S   UNL     1       2.663   6.456  18.743  0.00  0.00    +0.000 S 
ATOM      9  C   UNL     1       3.786   5.190  18.611  0.00  0.00    +0.000 A 
ATOM     10  C   UNL     1       3.687   4.286  19.645  0.00  0.00    +0.000 A 
BRANCH   5  12
ATOM     11  C   UNL     1       1.239   2.707  21.351  0.00  0.00    +0.000 C 
ATOM     12  C   UNL     1       2.205   3.806  21.753  0.00  0.00    +0.000 C 
ENDBRANCH   5  12
BRANCH  10  13
ATOM     13  C   UNL     1       4.415   3.052  19.710  0.00  0.00    +0.000 C 
ATOM     14  N   UNL     1       4.962   2.033  19.822  0.00  0.00    +0.000 NA
ENDBRANCH  10  13
ENDBRANCH   1   9
BRANCH   2  15
ATOM     15  C   UNL     1       5.363   4.522  15.342  0.00  0.00    +0.000 A 
ATOM     16  N   UNL     1       5.075   4.110  14.093  0.00  0.00    +0.000 NA
ATOM     17  O   UNL     1       6.222   4.314  13.347  0.00  0.00    +0.000 OA
ATOM     18  C   UNL     1       7.177   4.889  14.119  0.00  0.00    +0.000 A 
ATOM     19  C   UNL     1       8.466   5.195  13.457  0.00  0.00    +0.000 C 
ATOM     20  C   UNL     1       6.661   5.074  15.380  0.00  0.00    +0.000 A 
BRANCH  20  21
ATOM     21  N   UNL     1       7.308   5.744  16.447  0.00  0.00    +0.000 N 
ATOM     22  O   UNL     1       7.851   5.027  17.288  0.00  0.00    +0.000 OA
ATOM     23  O   UNL     1       7.189   6.973  16.484  0.00  0.00    +0.000 OA
ENDBRANCH  20  21
ENDBRANCH   2  15
TORSDOF 5
ENDMDL
MODEL 3
REMARK VINA RESULT:      -6.3      0.869      2.080
REMARK  Name = 
REMARK  8 active torsions:
REMARK  status: ('A' for Active; 'I' for Inactive)
REMARK    1  A    between atoms: C_1  and  C_2
REMARK    2  A    between atoms: C_2  and  C_3
REMARK    3  A    between atoms: C_4  and  C_5
REMARK    4  A    between atoms: C_7  and  N_8
REMARK    5  A    between atoms: C_9  and  C_11
REMARK    6  A    between atoms: C_14  and  C_15
REMARK    7  A    between atoms: C_16  and  N_17
REMARK    8  A    between atoms: C_20  and  C_21
REMARK                            x       y       z     vdW  Elec       q    Type
REMARK                         _______ _______ _______ _____ _____    ______ ____
ROOT
ATOM      1  N   UNL     1       2.725   7.281  18.784  0.00  0.00    +0.000 N 
ATOM      2  C   UNL     1       2.005   7.240  19.970  0.00  0.00    +0.000 C 
ATOM      3  O   UNL     1       1.725   6.221  20.587  0.00  0.00    +0.000 OA
ATOM      4  H   UNL     1       2.544   8.078  18.183  0.00  0.00    +0.000 HD
ENDROOT
BRANCH   1   9
ATOM      5  C   UNL     1       4.356   4.445  17.047  0.00  0.00    +0.000 A 
ATOM      6  C   UNL     1       3.186   3.792  17.417  0.00  0.00    +0.000 A 
ATOM      7  C   UNL     1       2.797   2.361  17.215  0.00  0.00    +0.000 C 
ATOM      8  S   UNL     1       2.061   4.867  18.138  0.00  0.00    +0.000 S 
ATOM      9  C   UNL     1       3.196   6.128  18.188  0.00  0.00    +0.000 A 
ATOM     10  C   UNL     1       4.382   5.796  17.572  0.00  0.00    +0.000 A 
BRANCH   5  12
ATOM     11  C   UNL     1       5.481   4.381  14.785  0.00  0.00    +0.000 C 
ATOM     12  C   UNL     1       5.448   3.834  16.201  0.00  0.00    +0.000 C 
ENDBRANCH   5  12
BRANCH  10  13
ATOM     13  C   UNL     1       5.459   6.717  17.345  0.00  0.00    +0.000 C 
ATOM     14  N   UNL     1       6.359   7.413  17.113  0.00  0.00    +0.000 NA
ENDBRANCH  10  13
ENDBRANCH   1   9
BRANCH   2  15
ATOM     15  C   UNL     1       1.539   8.559  20.416  0.00  0.00    +0.000 A 
ATOM     16  N   UNL     1       1.544   8.892  21.721  0.00  0.00    +0.000 NA
ATOM     17  O   UNL     1       0.928  10.128  21.805  0.00  0.00    +0.000 OA
ATOM     18  C   UNL     1       0.599  10.564  20.563  0.00  0.00    +0.000 A 
ATOM     19  C   UNL     1      -0.051  11.891  20.479  0.00  0.00    +0.000 C 
ATOM     20  C   UNL     1       1.004   9.618  19.651  0.00  0.00    +0.000 A 
BRANCH  20  21
ATOM     21  N   UNL     1       0.938   9.747  18.242  0.00  0.00    +0.000 N 
ATOM     22  O   UNL     1       2.015   9.884  17.660  0.00  0.00    +0.000 OA
ATOM     23  O   UNL     1      -0.190   9.802  17.742  0.00  0.00    +0.000 OA
ENDBRANCH  20  21
ENDBRANCH   2  15
TORSDOF 5
ENDMDL
MODEL 4
REMARK VINA RESULT:      -6.3      2.249      3.493
REMARK  Name = 
REMARK  8 active torsions:
REMARK  status: ('A' for Active; 'I' for Inactive)
REMARK    1  A    between atoms: C_1  and  C_2
REMARK    2  A    between atoms: C_2  and  C_3
REMARK    3  A    between atoms: C_4  and  C_5
REMARK    4  A    between atoms: C_7  and  N_8
REMARK    5  A    between atoms: C_9  and  C_11
REMARK    6  A    between atoms: C_14  and  C_15
REMARK    7  A    between atoms: C_16  and  N_17
REMARK    8  A    between atoms: C_20  and  C_21
REMARK                            x       y       z     vdW  Elec       q    Type
REMARK                         _______ _______ _______ _____ _____    ______ ____
ROOT
ATOM      1  N   UNL     1       1.987   6.985  20.723  0.00  0.00    +0.000 N 
ATOM      2  C   UNL     1       1.588   8.207  20.199  0.00  0.00    +0.000 C 
ATOM      3  O   UNL     1       1.732   8.552  19.033  0.00  0.00    +0.000 OA
ATOM      4  H   UNL     1       2.189   6.975  21.718  0.00  0.00    +0.000 HD
ENDROOT
BRANCH   1   9
ATOM      5  C   UNL     1       3.557   4.127  18.967  0.00  0.00    +0.000 A 
ATOM      6  C   UNL     1       3.848   5.109  18.028  0.00  0.00    +0.000 A 
ATOM      7  C   UNL     1       4.523   4.976  16.699  0.00  0.00    +0.000 C 
ATOM      8  S   UNL     1       3.399   6.669  18.582  0.00  0.00    +0.000 S 
ATOM      9  C   UNL     1       2.603   6.032  19.938  0.00  0.00    +0.000 A 
ATOM     10  C   UNL     1       2.758   4.668  20.050  0.00  0.00    +0.000 A 
BRANCH   5  12
ATOM     11  C   UNL     1       3.073   1.808  18.088  0.00  0.00    +0.000 C 
ATOM     12  C   UNL     1       4.019   2.692  18.880  0.00  0.00    +0.000 C 
ENDBRANCH   5  12
BRANCH  10  13
ATOM     13  C   UNL     1       2.312   3.895  21.173  0.00  0.00    +0.000 C 
ATOM     14  N   UNL     1       1.908   3.230  22.035  0.00  0.00    +0.000 NA
ENDBRANCH  10  13
ENDBRANCH   1   9
BRANCH   2  15
ATOM     15  C   UNL     1       1.005   9.111  21.199  0.00  0.00    +0.000 A 
ATOM     16  N   UNL     1       1.301   8.983  22.506  0.00  0.00    +0.000 NA
ATOM     17  O   UNL     1       0.494   9.888  23.173  0.00  0.00    +0.000 OA
ATOM     18  C   UNL     1      -0.244  10.592  22.279  0.00  0.00    +0.000 A 
ATOM     19  C   UNL     1      -1.148  11.624  22.836  0.00  0.00    +0.000 C 
ATOM     20  C   UNL     1       0.077  10.159  21.015  0.00  0.00    +0.000 A 
BRANCH  20  21
ATOM     21  N   UNL     1      -0.398  10.719  19.803  0.00  0.00    +0.000 N 
ATOM     22  O   UNL     1      -1.287  10.090  19.228  0.00  0.00    +0.000 OA
ATOM     23  O   UNL     1       0.184  11.728  19.394  0.00  0.00    +0.000 OA
ENDBRANCH  20  21
ENDBRANCH   2  15
TORSDOF 5
ENDMDL
MODEL 5
REMARK VINA RESULT:      -6.2      1.467      2.620
REMARK  Name = 
REMARK  8 active torsions:
REMARK  status: ('A' for Active; 'I' for Inactive)
REMARK    1  A    between atoms: C_1  and  C_2
REMARK    2  A    between atoms: C_2  and  C_3
REMARK    3  A    between atoms: C_4  and  C_5
REMARK    4  A    between atoms: C_7  and  N_8
REMARK    5  A    between atoms: C_9  and  C_11
REMARK    6  A    between atoms: C_14  and  C_15
REMARK    7  A    between atoms: C_16  and  N_17
REMARK    8  A    between atoms: C_20  and  C_21
REMARK                            x       y       z     vdW  Elec       q    Type
REMARK                         _______ _______ _______ _____ _____    ______ ____
ROOT
ATOM      1  N   UNL     1       2.099   7.440  18.322  0.00  0.00    +0.000 N 
ATOM      2  C   UNL     1       1.853   8.036  19.551  0.00  0.00    +0.000 C 
ATOM      3  O   UNL     1       2.293   7.644  20.624  0.00  0.00    +0.000 OA
ATOM      4  H   UNL     1       1.392   7.586  17.609  0.00  0.00    +0.000 HD
ENDROOT
BRANCH   1   9
ATOM      5  C   UNL     1       3.920   4.214  18.338  0.00  0.00    +0.000 A 
ATOM      6  C   UNL     1       4.796   4.922  17.524  0.00  0.00    +0.000 A 
ATOM      7  C   UNL     1       6.036   4.448  16.832  0.00  0.00    +0.000 C 
ATOM      8  S   UNL     1       4.356   6.575  17.405  0.00  0.00    +0.000 S 
ATOM      9  C   UNL     1       2.888   6.312  18.215  0.00  0.00    +0.000 A 
ATOM     10  C   UNL     1       2.763   5.021  18.676  0.00  0.00    +0.000 A 
BRANCH   5  12
ATOM     11  C   UNL     1       3.395   1.766  17.999  0.00  0.00    +0.000 C 
ATOM     12  C   UNL     1       4.147   2.800  18.818  0.00  0.00    +0.000 C 
ENDBRANCH   5  12
BRANCH  10  13
ATOM     13  C   UNL     1       1.691   4.563  19.513  0.00  0.00    +0.000 C 
ATOM     14  N   UNL     1       0.876   4.160  20.234  0.00  0.00    +0.000 NA
ENDBRANCH  10  13
ENDBRANCH   1   9
BRANCH   2  15
ATOM     15  C   UNL     1       0.945   9.188  19.471  0.00  0.00    +0.000 A 
ATOM     16  N   UNL     1       0.786   9.868  18.319  0.00  0.00    +0.000 NA
ATOM     17  O   UNL     1      -0.018  10.952  18.621  0.00  0.00    +0.000 OA
ATOM     18  C   UNL     1      -0.384  10.905  19.927  0.00  0.00    +0.000 A 
ATOM     19  C   UNL     1      -1.271  11.990  20.404  0.00  0.00    +0.000 C 
ATOM     20  C   UNL     1       0.172   9.782  20.492  0.00  0.00    +0.000 A 
BRANCH  20  21
ATOM     21  N   UNL     1      -0.061   9.318  21.810  0.00  0.00    +0.000 N 
ATOM     22  O   UNL     1       0.550   9.901  22.706  0.00  0.00    +0.000 OA
ATOM     23  O   UNL     1      -0.780   8.320  21.927  0.00  0.00    +0.000 OA
ENDBRANCH  20  21
ENDBRANCH   2  15
TORSDOF 5
ENDMDL
MODEL 6
REMARK VINA RESULT:      -6.1      1.933      3.410
REMARK  Name = 
REMARK  8 active torsions:
REMARK  status: ('A' for Active; 'I' for Inactive)
REMARK    1  A    between atoms: C_1  and  C_2
REMARK    2  A    between atoms: C_2  and  C_3
REMARK    3  A    between atoms: C_4  and  C_5
REMARK    4  A    between atoms: C_7  and  N_8
REMARK    5  A    between atoms: C_9  and  C_11
REMARK    6  A    between atoms: C_14  and  C_15
REMARK    7  A    between atoms: C_16  and  N_17
REMARK    8  A    between atoms: C_20  and  C_21
REMARK                            x       y       z     vdW  Elec       q    Type
REMARK                         _______ _______ _______ _____ _____    ______ ____
ROOT
ATOM      1  N   UNL     1       2.113   7.028  20.011  0.00  0.00    +0.000 N 
ATOM      2  C   UNL     1       1.584   8.233  19.569  0.00  0.00    +0.000 C 
ATOM      3  O   UNL     1       1.527   8.588  18.399  0.00  0.00    +0.000 OA
ATOM      4  H   UNL     1       2.470   7.023  20.960  0.00  0.00    +0.000 HD
ENDROOT
BRANCH   1   9
ATOM      5  C   UNL     1       3.238   4.237  17.850  0.00  0.00    +0.000 A 
ATOM      6  C   UNL     1       4.100   5.213  17.364  0.00  0.00    +0.000 A 
ATOM      7  C   UNL     1       5.100   5.122  16.254  0.00  0.00    +0.000 C 
ATOM      8  S   UNL     1       3.984   6.668  18.264  0.00  0.00    +0.000 S 
ATOM      9  C   UNL     1       2.636   6.105  19.128  0.00  0.00    +0.000 A 
ATOM     10  C   UNL     1       2.330   4.795  18.835  0.00  0.00    +0.000 A 
BRANCH   5  12
ATOM     11  C   UNL     1       3.741   1.851  18.508  0.00  0.00    +0.000 C 
ATOM     12  C   UNL     1       3.250   2.789  17.422  0.00  0.00    +0.000 C 
ENDBRANCH   5  12
BRANCH  10  13
ATOM     13  C   UNL     1       1.331   4.027  19.521  0.00  0.00    +0.000 C 
ATOM     14  N   UNL     1       0.577   3.357  20.096  0.00  0.00    +0.000 NA
ENDBRANCH  10  13
ENDBRANCH   1   9
BRANCH   2  15
ATOM     15  C   UNL     1       1.130   9.108  20.658  0.00  0.00    +0.000 A 
ATOM     16  N   UNL     1       1.540   8.908  21.925  0.00  0.00    +0.000 NA
ATOM     17  O   UNL     1       0.833   9.807  22.703  0.00  0.00    +0.000 OA
ATOM     18  C   UNL     1       0.042  10.577  21.914  0.00  0.00    +0.000 A 
ATOM     19  C   UNL     1      -0.767  11.611  22.599  0.00  0.00    +0.000 C 
ATOM     20  C   UNL     1       0.230  10.193  20.608  0.00  0.00    +0.000 A 
BRANCH  20  21
ATOM     21  N   UNL     1      -0.333  10.826  19.472  0.00  0.00    +0.000 N 
ATOM     22  O   UNL     1       0.279  11.801  19.036  0.00  0.00    +0.000 OA
ATOM     23  O   UNL     1      -1.425  10.399  19.084  0.00  0.00    +0.000 OA
ENDBRANCH  20  21
ENDBRANCH   2  15
TORSDOF 5
ENDMDL
MODEL 7
REMARK VINA RESULT:      -6.1      4.335      7.530
REMARK  Name = 
REMARK  8 active torsions:
REMARK  status: ('A' for Active; 'I' for Inactive)
REMARK    1  A    between atoms: C_1  and  C_2
REMARK    2  A    between atoms: C_2  and  C_3
REMARK    3  A    between atoms: C_4  and  C_5
REMARK    4  A    between atoms: C_7  and  N_8
REMARK    5  A    between atoms: C_9  and  C_11
REMARK    6  A    between atoms: C_14  and  C_15
REMARK    7  A    between atoms: C_16  and  N_17
REMARK    8  A    between atoms: C_20  and  C_21
REMARK                            x       y       z     vdW  Elec       q    Type
REMARK                         _______ _______ _______ _____ _____    ______ ____
ROOT
ATOM      1  N   UNL     1       4.459   5.308  17.032  0.00  0.00    +0.000 N 
ATOM      2  C   UNL     1       5.817   5.122  17.251  0.00  0.00    +0.000 C 
ATOM      3  O   UNL     1       6.327   4.880  18.337  0.00  0.00    +0.000 OA
ATOM      4  H   UNL     1       4.215   5.880  16.230  0.00  0.00    +0.000 HD
ENDROOT
BRANCH   1   9
ATOM      5  C   UNL     1       1.982   4.653  19.707  0.00  0.00    +0.000 A 
ATOM      6  C   UNL     1       2.061   6.033  19.855  0.00  0.00    +0.000 A 
ATOM      7  C   UNL     1       1.386   6.916  20.858  0.00  0.00    +0.000 C 
ATOM      8  S   UNL     1       3.032   6.747  18.636  0.00  0.00    +0.000 S 
ATOM      9  C   UNL     1       3.547   5.234  18.065  0.00  0.00    +0.000 A 
ATOM     10  C   UNL     1       2.918   4.188  18.701  0.00  0.00    +0.000 A 
BRANCH   5  12
ATOM     11  C   UNL     1       1.715   3.041  21.634  0.00  0.00    +0.000 C 
ATOM     12  C   UNL     1       1.041   3.759  20.479  0.00  0.00    +0.000 C 
ENDBRANCH   5  12
BRANCH  10  13
ATOM     13  C   UNL     1       3.058   2.811  18.321  0.00  0.00    +0.000 C 
ATOM     14  N   UNL     1       3.213   1.720  17.955  0.00  0.00    +0.000 NA
ENDBRANCH  10  13
ENDBRANCH   1   9
BRANCH   2  15
ATOM     15  C   UNL     1       6.634   5.296  16.043  0.00  0.00    +0.000 A 
ATOM     16  N   UNL     1       7.660   6.167  16.018  0.00  0.00    +0.000 NA
ATOM     17  O   UNL     1       8.121   6.181  14.714  0.00  0.00    +0.000 OA
ATOM     18  C   UNL     1       7.419   5.291  13.968  0.00  0.00    +0.000 A 
ATOM     19  C   UNL     1       7.810   5.168  12.545  0.00  0.00    +0.000 C 
ATOM     20  C   UNL     1       6.493   4.681  14.780  0.00  0.00    +0.000 A 
BRANCH  20  21
ATOM     21  N   UNL     1       5.639   3.614  14.404  0.00  0.00    +0.000 N 
ATOM     22  O   UNL     1       5.438   2.754  15.261  0.00  0.00    +0.000 OA
ATOM     23  O   UNL     1       5.254   3.601  13.231  0.00  0.00    +0.000 OA
ENDBRANCH  20  21
ENDBRANCH   2  15
TORSDOF 5
ENDMDL
MODEL 8
REMARK VINA RESULT:      -6.1      3.249      7.125
REMARK  Name = 
REMARK  8 active torsions:
REMARK  status: ('A' for Active; 'I' for Inactive)
REMARK    1  A    between atoms: C_1  and  C_2
REMARK    2  A    between atoms: C_2  and  C_3
REMARK    3  A    between atoms: C_4  and  C_5
REMARK    4  A    between atoms: C_7  and  N_8
REMARK    5  A    between atoms: C_9  and  C_11
REMARK    6  A    between atoms: C_14  and  C_15
REMARK    7  A    between atoms: C_16  and  N_17
REMARK    8  A    between atoms: C_20  and  C_21
REMARK                            x       y       z     vdW  Elec       q    Type
REMARK                         _______ _______ _______ _____ _____    ______ ____
ROOT
ATOM      1  N   UNL     1       2.332   7.355  20.372  0.00  0.00    +0.000 N 
ATOM      2  C   UNL     1       1.839   6.057  20.345  0.00  0.00    +0.000 C 
ATOM      3  O   UNL     1       0.668   5.747  20.516  0.00  0.00    +0.000 OA
ATOM      4  H   UNL     1       3.310   7.452  20.623  0.00  0.00    +0.000 HD
ENDROOT
BRANCH   1   9
ATOM      5  C   UNL     1       0.224  10.395  20.570  0.00  0.00    +0.000 A 
ATOM      6  C   UNL     1       0.022   9.939  21.867  0.00  0.00    +0.000 A 
ATOM      7  C   UNL     1      -0.852  10.505  22.942  0.00  0.00    +0.000 C 
ATOM      8  S   UNL     1       1.001   8.577  22.221  0.00  0.00    +0.000 S 
ATOM      9  C   UNL     1       1.503   8.434  20.606  0.00  0.00    +0.000 A 
ATOM     10  C   UNL     1       1.037   9.460  19.815  0.00  0.00    +0.000 A 
BRANCH   5  12
ATOM     11  C   UNL     1      -1.682  11.543  19.374  0.00  0.00    +0.000 C 
ATOM     12  C   UNL     1      -0.318  11.693  20.022  0.00  0.00    +0.000 C 
ENDBRANCH   5  12
BRANCH  10  13
ATOM     13  C   UNL     1       1.423   9.664  18.449  0.00  0.00    +0.000 C 
ATOM     14  N   UNL     1       1.799   9.793  17.358  0.00  0.00    +0.000 NA
ENDBRANCH  10  13
ENDBRANCH   1   9
BRANCH   2  15
ATOM     15  C   UNL     1       2.880   5.041  20.140  0.00  0.00    +0.000 A 
ATOM     16  N   UNL     1       4.082   5.371  19.633  0.00  0.00    +0.000 NA
ATOM     17  O   UNL     1       4.762   4.180  19.449  0.00  0.00    +0.000 OA
ATOM     18  C   UNL     1       4.003   3.145  19.886  0.00  0.00    +0.000 A 
ATOM     19  C   UNL     1       4.602   1.795  19.779  0.00  0.00    +0.000 C 
ATOM     20  C   UNL     1       2.819   3.650  20.368  0.00  0.00    +0.000 A 
BRANCH  20  21
ATOM     21  N   UNL     1       1.802   2.901  21.012  0.00  0.00    +0.000 N 
ATOM     22  O   UNL     1       0.884   2.505  20.295  0.00  0.00    +0.000 OA
ATOM     23  O   UNL     1       1.885   2.797  22.240  0.00  0.00    +0.000 OA
ENDBRANCH  20  21
ENDBRANCH   2  15
TORSDOF 5
ENDMDL
MODEL 9
REMARK VINA RESULT:      -6.0      1.729      2.835
REMARK  Name = 
REMARK  8 active torsions:
REMARK  status: ('A' for Active; 'I' for Inactive)
REMARK    1  A    between atoms: C_1  and  C_2
REMARK    2  A    between atoms: C_2  and  C_3
REMARK    3  A    between atoms: C_4  and  C_5
REMARK    4  A    between atoms: C_7  and  N_8
REMARK    5  A    between atoms: C_9  and  C_11
REMARK    6  A    between atoms: C_14  and  C_15
REMARK    7  A    between atoms: C_16  and  N_17
REMARK    8  A    between atoms: C_20  and  C_21
REMARK                            x       y       z     vdW  Elec       q    Type
REMARK                         _______ _______ _______ _____ _____    ______ ____
ROOT
ATOM      1  N   UNL     1       2.053   7.911  19.279  0.00  0.00    +0.000 N 
ATOM      2  C   UNL     1       1.588   8.950  18.485  0.00  0.00    +0.000 C 
ATOM      3  O   UNL     1       1.693   9.004  17.267  0.00  0.00    +0.000 OA
ATOM      4  H   UNL     1       2.275   8.152  20.239  0.00  0.00    +0.000 HD
ENDROOT
BRANCH   1   9
ATOM      5  C   UNL     1       3.550   4.723  18.131  0.00  0.00    +0.000 A 
ATOM      6  C   UNL     1       4.250   5.577  17.286  0.00  0.00    +0.000 A 
ATOM      7  C   UNL     1       5.236   5.243  16.210  0.00  0.00    +0.000 C 
ATOM      8  S   UNL     1       3.931   7.224  17.642  0.00  0.00    +0.000 S 
ATOM      9  C   UNL     1       2.695   6.819  18.732  0.00  0.00    +0.000 A 
ATOM     10  C   UNL     1       2.584   5.460  18.923  0.00  0.00    +0.000 A 
BRANCH   5  12
ATOM     11  C   UNL     1       2.697   2.426  17.519  0.00  0.00    +0.000 C 
ATOM     12  C   UNL     1       3.773   3.233  18.221  0.00  0.00    +0.000 C 
ENDBRANCH   5  12
BRANCH  10  13
ATOM     13  C   UNL     1       1.721   4.850  19.893  0.00  0.00    +0.000 C 
ATOM     14  N   UNL     1       1.018   4.296  20.634  0.00  0.00    +0.000 NA
ENDBRANCH  10  13
ENDBRANCH   1   9
BRANCH   2  15
ATOM     15  C   UNL     1       0.986  10.048  19.252  0.00  0.00    +0.000 A 
ATOM     16  N   UNL     1       0.769  11.251  18.688  0.00  0.00    +0.000 NA
ATOM     17  O   UNL     1       0.324  12.078  19.705  0.00  0.00    +0.000 OA
ATOM     18  C   UNL     1       0.224  11.373  20.860  0.00  0.00    +0.000 A 
ATOM     19  C   UNL     1      -0.265  12.114  22.045  0.00  0.00    +0.000 C 
ATOM     20  C   UNL     1       0.596  10.074  20.608  0.00  0.00    +0.000 A 
BRANCH  20  21
ATOM     21  N   UNL     1       0.524   9.000  21.530  0.00  0.00    +0.000 N 
ATOM     22  O   UNL     1       1.502   8.849  22.262  0.00  0.00    +0.000 OA
ATOM     23  O   UNL     1      -0.466   8.266  21.450  0.00  0.00    +0.000 OA
ENDBRANCH  20  21
ENDBRANCH   2  15
TORSDOF 5
ENDMDL
