MODEL 1
REMARK VINA RESULT:      -7.6      0.000      0.000
REMARK  Name = 
REMARK  7 active torsions:
REMARK  status: ('A' for Active; 'I' for Inactive)
REMARK    1  A    between atoms: C_2  and  C_3
REMARK    2  A    between atoms: C_19  and  O_20
REMARK    3  A    between atoms: O_20  and  C_21
REMARK    4  A    between atoms: C_21  and  C_22
REMARK    5  A    between atoms: C_22  and  O_23
REMARK    6  A    between atoms: C_22  and  C_24
REMARK    7  A    between atoms: C_24  and  O_25
REMARK                            x       y       z     vdW  Elec       q    Type
REMARK                         _______ _______ _______ _____ _____    ______ ____
ROOT
ATOM      1  C   UNL     1       3.142   6.905  18.083  0.00  0.00    +0.000 A 
ATOM      2  C   UNL     1       2.860   6.518  19.398  0.00  0.00    +0.000 A 
ATOM      3  C   UNL     1       2.045   7.314  20.206  0.00  0.00    +0.000 A 
ATOM      4  C   UNL     1       1.521   8.516  19.695  0.00  0.00    +0.000 A 
ATOM      5  C   UNL     1       0.719   9.547  20.254  0.00  0.00    +0.000 A 
ATOM      6  C   UNL     1       0.551  10.537  19.299  0.00  0.00    +0.000 A 
ATOM      7  N   UNL     1       1.184  10.107  18.155  0.00  0.00    +0.000 N 
ATOM      8  C   UNL     1       1.805   8.888  18.381  0.00  0.00    +0.000 A 
ATOM      9  C   UNL     1       2.610   8.095  17.549  0.00  0.00    +0.000 A 
ATOM     10  C   UNL     1      -0.091  11.882  19.565  0.00  0.00    +0.000 C 
ATOM     11  C   UNL     1       1.030  12.887  19.978  0.00  0.00    +0.000 C 
ATOM     12  C   UNL     1       0.483  14.252  19.595  0.00  0.00    +0.000 C 
ATOM     13  C   UNL     1      -0.116  13.977  18.229  0.00  0.00    +0.000 C 
ATOM     14  C   UNL     1      -0.708  12.556  18.306  0.00  0.00    +0.000 C 
ATOM     15  C   UNL     1      -1.021  11.777  20.811  0.00  0.00    +0.000 A 
ATOM     16  C   UNL     1      -1.998  12.749  21.109  0.00  0.00    +0.000 A 
ATOM     17  C   UNL     1      -2.544  12.866  22.397  0.00  0.00    +0.000 A 
ATOM     18  C   UNL     1      -2.191  11.952  23.386  0.00  0.00    +0.000 A 
ATOM     19  C   UNL     1      -1.321  10.912  23.087  0.00  0.00    +0.000 A 
ATOM     20  C   UNL     1      -0.744  10.815  21.816  0.00  0.00    +0.000 A 
ATOM     21  C   UNL     1       0.187   9.672  21.592  0.00  0.00    +0.000 C 
ATOM     22  O   UNL     1       0.449   8.883  22.491  0.00  0.00    +0.000 OA
ATOM     23  H   UNL     1       1.251  10.616  17.282  0.00  0.00    +0.000 HD
ENDROOT
BRANCH   1  25
ATOM     24  N   UNL     1       4.678   5.376  16.653  0.00  0.00    +0.000 NA
ATOM     25  C   UNL     1       3.991   6.069  17.283  0.00  0.00    +0.000 C 
ENDBRANCH   1  25
BRANCH  17  26
ATOM     26  O   UNL     1      -3.370  13.944  22.586  0.00  0.00    +0.000 OA
BRANCH  26  27
ATOM     27  C   UNL     1      -4.767  13.720  22.339  0.00  0.00    +0.000 C 
BRANCH  27  28
ATOM     28  C   UNL     1      -5.545  13.992  23.629  0.00  0.00    +0.000 C 
BRANCH  28  29
ATOM     29  O   UNL     1      -4.645  14.427  24.662  0.00  0.00    +0.000 OA
ATOM     30  H   UNL     1      -5.166  15.008  25.251  0.00  0.00    +0.000 HD
ENDBRANCH  28  29
BRANCH  28  31
ATOM     31  C   UNL     1      -6.286  12.750  24.129  0.00  0.00    +0.000 C 
BRANCH  31  32
ATOM     32  O   UNL     1      -5.351  11.834  24.699  0.00  0.00    +0.000 OA
ATOM     33  H   UNL     1      -5.581  10.958  24.329  0.00  0.00    +0.000 HD
ENDBRANCH  31  32
ENDBRANCH  28  31
ENDBRANCH  27  28
ENDBRANCH  26  27
ENDBRANCH  17  26
TORSDOF 7
ENDMDL
MODEL 2
REMARK VINA RESULT:      -7.2      0.900      1.136
REMARK  Name = 
REMARK  7 active torsions:
REMARK  status: ('A' for Active; 'I' for Inactive)
REMARK    1  A    between atoms: C_2  and  C_3
REMARK    2  A    between atoms: C_19  and  O_20
REMARK    3  A    between atoms: O_20  and  C_21
REMARK    4  A    between atoms: C_21  and  C_22
REMARK    5  A    between atoms: C_22  and  O_23
REMARK    6  A    between atoms: C_22  and  C_24
REMARK    7  A    between atoms: C_24  and  O_25
REMARK                            x       y       z     vdW  Elec       q    Type
REMARK                         _______ _______ _______ _____ _____    ______ ____
ROOT
ATOM      1  C   UNL     1       2.942   6.965  18.284  0.00  0.00    +0.000 A 
ATOM      2  C   UNL     1       2.608   6.598  19.592  0.00  0.00    +0.000 A 
ATOM      3  C   UNL     1       1.801   7.429  20.371  0.00  0.00    +0.000 A 
ATOM      4  C   UNL     1       1.338   8.647  19.839  0.00  0.00    +0.000 A 
ATOM      5  C   UNL     1       0.560   9.712  20.368  0.00  0.00    +0.000 A 
ATOM      6  C   UNL     1       0.458  10.701  19.403  0.00  0.00    +0.000 A 
ATOM      7  N   UNL     1       1.106  10.239  18.280  0.00  0.00    +0.000 N 
ATOM      8  C   UNL     1       1.673   8.999  18.532  0.00  0.00    +0.000 A 
ATOM      9  C   UNL     1       2.470   8.170  17.727  0.00  0.00    +0.000 A 
ATOM     10  C   UNL     1      -0.140  12.071  19.643  0.00  0.00    +0.000 C 
ATOM     11  C   UNL     1       1.006  13.036  20.082  0.00  0.00    +0.000 C 
ATOM     12  C   UNL     1       0.523  14.418  19.675  0.00  0.00    +0.000 C 
ATOM     13  C   UNL     1      -0.047  14.156  18.295  0.00  0.00    +0.000 C 
ATOM     14  C   UNL     1      -0.694  12.759  18.363  0.00  0.00    +0.000 C 
ATOM     15  C   UNL     1      -1.109  12.010  20.863  0.00  0.00    +0.000 A 
ATOM     16  C   UNL     1      -2.056  13.021  21.126  0.00  0.00    +0.000 A 
ATOM     17  C   UNL     1      -2.634  13.167  22.398  0.00  0.00    +0.000 A 
ATOM     18  C   UNL     1      -2.344  12.247  23.401  0.00  0.00    +0.000 A 
ATOM     19  C   UNL     1      -1.506  11.172  23.134  0.00  0.00    +0.000 A 
ATOM     20  C   UNL     1      -0.897  11.045  21.881  0.00  0.00    +0.000 A 
ATOM     21  C   UNL     1      -0.005   9.866  21.690  0.00  0.00    +0.000 C 
ATOM     22  O   UNL     1       0.202   9.074  22.600  0.00  0.00    +0.000 OA
ATOM     23  H   UNL     1       1.216  10.739  17.407  0.00  0.00    +0.000 HD
ENDROOT
BRANCH   1  25
ATOM     24  N   UNL     1       4.439   5.371  16.884  0.00  0.00    +0.000 NA
ATOM     25  C   UNL     1       3.780   6.092  17.512  0.00  0.00    +0.000 C 
ENDBRANCH   1  25
BRANCH  17  26
ATOM     26  O   UNL     1      -3.423  14.277  22.557  0.00  0.00    +0.000 OA
BRANCH  26  27
ATOM     27  C   UNL     1      -4.809  14.030  22.840  0.00  0.00    +0.000 C 
BRANCH  27  28
ATOM     28  C   UNL     1      -5.324  15.129  23.774  0.00  0.00    +0.000 C 
BRANCH  28  29
ATOM     29  O   UNL     1      -6.068  16.103  23.024  0.00  0.00    +0.000 OA
ATOM     30  H   UNL     1      -5.830  15.964  22.086  0.00  0.00    +0.000 HD
ENDBRANCH  28  29
BRANCH  28  31
ATOM     31  C   UNL     1      -4.185  15.849  24.500  0.00  0.00    +0.000 C 
BRANCH  31  32
ATOM     32  O   UNL     1      -3.545  14.944  25.400  0.00  0.00    +0.000 OA
ATOM     33  H   UNL     1      -3.821  14.050  25.115  0.00  0.00    +0.000 HD
ENDBRANCH  31  32
ENDBRANCH  28  31
ENDBRANCH  27  28
ENDBRANCH  26  27
ENDBRANCH  17  26
TORSDOF 7
ENDMDL
MODEL 3
REMARK VINA RESULT:      -7.1      1.375      1.619
REMARK  Name = 
REMARK  7 active torsions:
REMARK  status: ('A' for Active; 'I' for Inactive)
REMARK    1  A    between atoms: C_2  and  C_3
REMARK    2  A    between atoms: C_19  and  O_20
REMARK    3  A    between atoms: O_20  and  C_21
REMARK    4  A    between atoms: C_21  and  C_22
REMARK    5  A    between atoms: C_22  and  O_23
REMARK    6  A    between atoms: C_22  and  C_24
REMARK    7  A    between atoms: C_24  and  O_25
REMARK                            x       y       z     vdW  Elec       q    Type
REMARK                         _______ _______ _______ _____ _____    ______ ____
ROOT
ATOM      1  C   UNL     1       3.077   6.662  18.256  0.00  0.00    +0.000 A 
ATOM      2  C   UNL     1       2.607   6.245  19.506  0.00  0.00    +0.000 A 
ATOM      3  C   UNL     1       1.830   7.104  20.288  0.00  0.00    +0.000 A 
ATOM      4  C   UNL     1       1.535   8.396  19.817  0.00  0.00    +0.000 A 
ATOM      5  C   UNL     1       0.830   9.500  20.369  0.00  0.00    +0.000 A 
ATOM      6  C   UNL     1       0.903  10.557  19.476  0.00  0.00    +0.000 A 
ATOM      7  N   UNL     1       1.587  10.106  18.370  0.00  0.00    +0.000 N 
ATOM      8  C   UNL     1       2.005   8.798  18.567  0.00  0.00    +0.000 A 
ATOM      9  C   UNL     1       2.775   7.946  17.761  0.00  0.00    +0.000 A 
ATOM     10  C   UNL     1       0.430  11.964  19.776  0.00  0.00    +0.000 C 
ATOM     11  C   UNL     1       1.630  12.769  20.366  0.00  0.00    +0.000 C 
ATOM     12  C   UNL     1       1.321  14.219  20.031  0.00  0.00    +0.000 C 
ATOM     13  C   UNL     1       0.837  14.113  18.598  0.00  0.00    +0.000 C 
ATOM     14  C   UNL     1       0.049  12.791  18.516  0.00  0.00    +0.000 C 
ATOM     15  C   UNL     1      -0.632  11.923  20.916  0.00  0.00    +0.000 A 
ATOM     16  C   UNL     1      -1.490  13.009  21.188  0.00  0.00    +0.000 A 
ATOM     17  C   UNL     1      -2.147  13.129  22.423  0.00  0.00    +0.000 A 
ATOM     18  C   UNL     1      -2.031  12.117  23.372  0.00  0.00    +0.000 A 
ATOM     19  C   UNL     1      -1.288  10.981  23.085  0.00  0.00    +0.000 A 
ATOM     20  C   UNL     1      -0.598  10.874  21.871  0.00  0.00    +0.000 A 
ATOM     21  C   UNL     1       0.183   9.623  21.655  0.00  0.00    +0.000 C 
ATOM     22  O   UNL     1       0.237   8.754  22.516  0.00  0.00    +0.000 OA
ATOM     23  H   UNL     1       1.815  10.649  17.547  0.00  0.00    +0.000 HD
ENDROOT
BRANCH   1  25
ATOM     24  N   UNL     1       4.537   5.047  16.841  0.00  0.00    +0.000 NA
ATOM     25  C   UNL     1       3.881   5.760  17.483  0.00  0.00    +0.000 C 
ENDBRANCH   1  25
BRANCH  17  26
ATOM     26  O   UNL     1      -2.831  14.303  22.609  0.00  0.00    +0.000 OA
BRANCH  26  27
ATOM     27  C   UNL     1      -2.030  15.492  22.701  0.00  0.00    +0.000 C 
BRANCH  27  28
ATOM     28  C   UNL     1      -1.958  15.925  24.167  0.00  0.00    +0.000 C 
BRANCH  28  29
ATOM     29  O   UNL     1      -0.971  15.145  24.862  0.00  0.00    +0.000 OA
ATOM     30  H   UNL     1      -0.135  15.263  24.370  0.00  0.00    +0.000 HD
ENDBRANCH  28  29
BRANCH  28  31
ATOM     31  C   UNL     1      -3.298  15.753  24.886  0.00  0.00    +0.000 C 
BRANCH  31  32
ATOM     32  O   UNL     1      -3.289  14.533  25.628  0.00  0.00    +0.000 OA
ATOM     33  H   UNL     1      -2.470  14.557  26.163  0.00  0.00    +0.000 HD
ENDBRANCH  31  32
ENDBRANCH  28  31
ENDBRANCH  27  28
ENDBRANCH  26  27
ENDBRANCH  17  26
TORSDOF 7
ENDMDL
MODEL 4
REMARK VINA RESULT:      -7.1      1.000      1.212
REMARK  Name = 
REMARK  7 active torsions:
REMARK  status: ('A' for Active; 'I' for Inactive)
REMARK    1  A    between atoms: C_2  and  C_3
REMARK    2  A    between atoms: C_19  and  O_20
REMARK    3  A    between atoms: O_20  and  C_21
REMARK    4  A    between atoms: C_21  and  C_22
REMARK    5  A    between atoms: C_22  and  O_23
REMARK    6  A    between atoms: C_22  and  C_24
REMARK    7  A    between atoms: C_24  and  O_25
REMARK                            x       y       z     vdW  Elec       q    Type
REMARK                         _______ _______ _______ _____ _____    ______ ____
ROOT
ATOM      1  C   UNL     1       3.381   6.750  17.948  0.00  0.00    +0.000 A 
ATOM      2  C   UNL     1       3.127   6.350  19.264  0.00  0.00    +0.000 A 
ATOM      3  C   UNL     1       2.302   7.120  20.087  0.00  0.00    +0.000 A 
ATOM      4  C   UNL     1       1.740   8.311  19.589  0.00  0.00    +0.000 A 
ATOM      5  C   UNL     1       0.919   9.318  20.164  0.00  0.00    +0.000 A 
ATOM      6  C   UNL     1       0.713  10.308  19.217  0.00  0.00    +0.000 A 
ATOM      7  N   UNL     1       1.342   9.900  18.062  0.00  0.00    +0.000 N 
ATOM      8  C   UNL     1       1.997   8.696  18.274  0.00  0.00    +0.000 A 
ATOM      9  C   UNL     1       2.811   7.928  17.427  0.00  0.00    +0.000 A 
ATOM     10  C   UNL     1       0.040  11.635  19.499  0.00  0.00    +0.000 C 
ATOM     11  C   UNL     1       1.140  12.667  19.901  0.00  0.00    +0.000 C 
ATOM     12  C   UNL     1       0.553  14.019  19.532  0.00  0.00    +0.000 C 
ATOM     13  C   UNL     1      -0.057  13.734  18.174  0.00  0.00    +0.000 C 
ATOM     14  C   UNL     1      -0.611  12.298  18.252  0.00  0.00    +0.000 C 
ATOM     15  C   UNL     1      -0.870  11.499  20.757  0.00  0.00    +0.000 A 
ATOM     16  C   UNL     1      -1.868  12.444  21.072  0.00  0.00    +0.000 A 
ATOM     17  C   UNL     1      -2.399  12.541  22.368  0.00  0.00    +0.000 A 
ATOM     18  C   UNL     1      -2.009  11.631  23.347  0.00  0.00    +0.000 A 
ATOM     19  C   UNL     1      -1.117  10.616  23.032  0.00  0.00    +0.000 A 
ATOM     20  C   UNL     1      -0.554  10.540  21.753  0.00  0.00    +0.000 A 
ATOM     21  C   UNL     1       0.403   9.422  21.510  0.00  0.00    +0.000 C 
ATOM     22  O   UNL     1       0.698   8.637  22.401  0.00  0.00    +0.000 OA
ATOM     23  H   UNL     1       1.383  10.414  17.191  0.00  0.00    +0.000 HD
ENDROOT
BRANCH   1  25
ATOM     24  N   UNL     1       4.936   5.304  16.454  0.00  0.00    +0.000 NA
ATOM     25  C   UNL     1       4.240   5.941  17.132  0.00  0.00    +0.000 C 
ENDBRANCH   1  25
BRANCH  17  26
ATOM     26  O   UNL     1      -3.250  13.596  22.574  0.00  0.00    +0.000 OA
BRANCH  26  27
ATOM     27  C   UNL     1      -3.885  13.654  23.860  0.00  0.00    +0.000 C 
BRANCH  27  28
ATOM     28  C   UNL     1      -3.467  14.950  24.558  0.00  0.00    +0.000 C 
BRANCH  28  29
ATOM     29  O   UNL     1      -3.374  14.736  25.977  0.00  0.00    +0.000 OA
ATOM     30  H   UNL     1      -3.997  14.013  26.185  0.00  0.00    +0.000 HD
ENDBRANCH  28  29
BRANCH  28  31
ATOM     31  C   UNL     1      -4.460  16.087  24.308  0.00  0.00    +0.000 C 
BRANCH  31  32
ATOM     32  O   UNL     1      -5.794  15.587  24.416  0.00  0.00    +0.000 OA
ATOM     33  H   UNL     1      -6.077  15.396  23.500  0.00  0.00    +0.000 HD
ENDBRANCH  31  32
ENDBRANCH  28  31
ENDBRANCH  27  28
ENDBRANCH  26  27
ENDBRANCH  17  26
TORSDOF 7
ENDMDL
MODEL 5
REMARK VINA RESULT:      -7.1      0.692      1.085
REMARK  Name = 
REMARK  7 active torsions:
REMARK  status: ('A' for Active; 'I' for Inactive)
REMARK    1  A    between atoms: C_2  and  C_3
REMARK    2  A    between atoms: C_19  and  O_20
REMARK    3  A    between atoms: O_20  and  C_21
REMARK    4  A    between atoms: C_21  and  C_22
REMARK    5  A    between atoms: C_22  and  O_23
REMARK    6  A    between atoms: C_22  and  C_24
REMARK    7  A    between atoms: C_24  and  O_25
REMARK                            x       y       z     vdW  Elec       q    Type
REMARK                         _______ _______ _______ _____ _____    ______ ____
ROOT
ATOM      1  C   UNL     1       3.316   6.766  17.928  0.00  0.00    +0.000 A 
ATOM      2  C   UNL     1       3.048   6.338  19.233  0.00  0.00    +0.000 A 
ATOM      3  C   UNL     1       2.234   7.103  20.071  0.00  0.00    +0.000 A 
ATOM      4  C   UNL     1       1.695   8.315  19.600  0.00  0.00    +0.000 A 
ATOM      5  C   UNL     1       0.890   9.323  20.195  0.00  0.00    +0.000 A 
ATOM      6  C   UNL     1       0.707  10.339  19.271  0.00  0.00    +0.000 A 
ATOM      7  N   UNL     1       1.333   9.948  18.109  0.00  0.00    +0.000 N 
ATOM      8  C   UNL     1       1.966   8.728  18.295  0.00  0.00    +0.000 A 
ATOM      9  C   UNL     1       2.769   7.966  17.433  0.00  0.00    +0.000 A 
ATOM     10  C   UNL     1       0.056  11.671  19.582  0.00  0.00    +0.000 C 
ATOM     11  C   UNL     1       1.172  12.673  20.015  0.00  0.00    +0.000 C 
ATOM     12  C   UNL     1       0.611  14.044  19.676  0.00  0.00    +0.000 C 
ATOM     13  C   UNL     1       0.002  13.803  18.308  0.00  0.00    +0.000 C 
ATOM     14  C   UNL     1      -0.577  12.376  18.349  0.00  0.00    +0.000 C 
ATOM     15  C   UNL     1      -0.863  11.521  20.832  0.00  0.00    +0.000 A 
ATOM     16  C   UNL     1      -1.845  12.477  21.166  0.00  0.00    +0.000 A 
ATOM     17  C   UNL     1      -2.381  12.551  22.461  0.00  0.00    +0.000 A 
ATOM     18  C   UNL     1      -2.012  11.611  23.420  0.00  0.00    +0.000 A 
ATOM     19  C   UNL     1      -1.136  10.588  23.084  0.00  0.00    +0.000 A 
ATOM     20  C   UNL     1      -0.569  10.533  21.806  0.00  0.00    +0.000 A 
ATOM     21  C   UNL     1       0.369   9.404  21.540  0.00  0.00    +0.000 C 
ATOM     22  O   UNL     1       0.645   8.592  22.414  0.00  0.00    +0.000 OA
ATOM     23  H   UNL     1       1.388  10.483  17.252  0.00  0.00    +0.000 HD
ENDROOT
BRANCH   1  25
ATOM     24  N   UNL     1       4.870   5.317  16.436  0.00  0.00    +0.000 NA
ATOM     25  C   UNL     1       4.164   5.961  17.096  0.00  0.00    +0.000 C 
ENDBRANCH   1  25
BRANCH  17  26
ATOM     26  O   UNL     1      -3.213  13.616  22.689  0.00  0.00    +0.000 OA
BRANCH  26  27
ATOM     27  C   UNL     1      -3.812  13.683  23.993  0.00  0.00    +0.000 C 
BRANCH  27  28
ATOM     28  C   UNL     1      -5.330  13.547  23.846  0.00  0.00    +0.000 C 
BRANCH  28  29
ATOM     29  O   UNL     1      -5.641  12.462  22.955  0.00  0.00    +0.000 OA
ATOM     30  H   UNL     1      -5.094  12.599  22.157  0.00  0.00    +0.000 HD
ENDBRANCH  28  29
BRANCH  28  31
ATOM     31  C   UNL     1      -5.973  14.821  23.293  0.00  0.00    +0.000 C 
BRANCH  31  32
ATOM     32  O   UNL     1      -6.104  15.782  24.342  0.00  0.00    +0.000 OA
ATOM     33  H   UNL     1      -6.884  15.499  24.860  0.00  0.00    +0.000 HD
ENDBRANCH  31  32
ENDBRANCH  28  31
ENDBRANCH  27  28
ENDBRANCH  26  27
ENDBRANCH  17  26
TORSDOF 7
ENDMDL
MODEL 6
REMARK VINA RESULT:      -7.0      1.021      1.455
REMARK  Name = 
REMARK  7 active torsions:
REMARK  status: ('A' for Active; 'I' for Inactive)
REMARK    1  A    between atoms: C_2  and  C_3
REMARK    2  A    between atoms: C_19  and  O_20
REMARK    3  A    between atoms: O_20  and  C_21
REMARK    4  A    between atoms: C_21  and  C_22
REMARK    5  A    between atoms: C_22  and  O_23
REMARK    6  A    between atoms: C_22  and  C_24
REMARK    7  A    between atoms: C_24  and  O_25
REMARK                            x       y       z     vdW  Elec       q    Type
REMARK                         _______ _______ _______ _____ _____    ______ ____
ROOT
ATOM      1  C   UNL     1       2.955   7.076  18.249  0.00  0.00    +0.000 A 
ATOM      2  C   UNL     1       2.597   6.687  19.545  0.00  0.00    +0.000 A 
ATOM      3  C   UNL     1       1.778   7.506  20.325  0.00  0.00    +0.000 A 
ATOM      4  C   UNL     1       1.326   8.733  19.805  0.00  0.00    +0.000 A 
ATOM      5  C   UNL     1       0.540   9.790  20.339  0.00  0.00    +0.000 A 
ATOM      6  C   UNL     1       0.456  10.796  19.390  0.00  0.00    +0.000 A 
ATOM      7  N   UNL     1       1.123  10.352  18.270  0.00  0.00    +0.000 N 
ATOM      8  C   UNL     1       1.685   9.107  18.510  0.00  0.00    +0.000 A 
ATOM      9  C   UNL     1       2.495   8.291  17.706  0.00  0.00    +0.000 A 
ATOM     10  C   UNL     1      -0.144  12.163  19.643  0.00  0.00    +0.000 C 
ATOM     11  C   UNL     1       0.995  13.118  20.118  0.00  0.00    +0.000 C 
ATOM     12  C   UNL     1       0.521  14.507  19.727  0.00  0.00    +0.000 C 
ATOM     13  C   UNL     1      -0.026  14.270  18.333  0.00  0.00    +0.000 C 
ATOM     14  C   UNL     1      -0.675  12.873  18.366  0.00  0.00    +0.000 C 
ATOM     15  C   UNL     1      -1.134  12.081  20.844  0.00  0.00    +0.000 A 
ATOM     16  C   UNL     1      -2.085  13.089  21.109  0.00  0.00    +0.000 A 
ATOM     17  C   UNL     1      -2.684  13.215  22.372  0.00  0.00    +0.000 A 
ATOM     18  C   UNL     1      -2.413  12.276  23.365  0.00  0.00    +0.000 A 
ATOM     19  C   UNL     1      -1.572  11.206  23.094  0.00  0.00    +0.000 A 
ATOM     20  C   UNL     1      -0.941  11.099  21.849  0.00  0.00    +0.000 A 
ATOM     21  C   UNL     1      -0.047   9.922  21.653  0.00  0.00    +0.000 C 
ATOM     22  O   UNL     1       0.143   9.114  22.553  0.00  0.00    +0.000 OA
ATOM     23  H   UNL     1       1.249  10.867  17.408  0.00  0.00    +0.000 HD
ENDROOT
BRANCH   1  25
ATOM     24  N   UNL     1       4.492   5.534  16.835  0.00  0.00    +0.000 NA
ATOM     25  C   UNL     1       3.805   6.215  17.478  0.00  0.00    +0.000 C 
ENDBRANCH   1  25
BRANCH  17  26
ATOM     26  O   UNL     1      -3.474  14.322  22.537  0.00  0.00    +0.000 OA
BRANCH  26  27
ATOM     27  C   UNL     1      -4.865  14.073  22.795  0.00  0.00    +0.000 C 
BRANCH  27  28
ATOM     28  C   UNL     1      -5.693  15.189  22.153  0.00  0.00    +0.000 C 
BRANCH  28  29
ATOM     29  O   UNL     1      -6.879  15.429  22.928  0.00  0.00    +0.000 OA
ATOM     30  H   UNL     1      -7.198  14.552  23.217  0.00  0.00    +0.000 HD
ENDBRANCH  28  29
BRANCH  28  31
ATOM     31  C   UNL     1      -6.116  14.843  20.723  0.00  0.00    +0.000 C 
BRANCH  31  32
ATOM     32  O   UNL     1      -4.959  14.758  19.891  0.00  0.00    +0.000 OA
ATOM     33  H   UNL     1      -4.726  15.682  19.669  0.00  0.00    +0.000 HD
ENDBRANCH  31  32
ENDBRANCH  28  31
ENDBRANCH  27  28
ENDBRANCH  26  27
ENDBRANCH  17  26
TORSDOF 7
ENDMDL
MODEL 7
REMARK VINA RESULT:      -6.9      1.019      1.788
REMARK  Name = 
REMARK  7 active torsions:
REMARK  status: ('A' for Active; 'I' for Inactive)
REMARK    1  A    between atoms: C_2  and  C_3
REMARK    2  A    between atoms: C_19  and  O_20
REMARK    3  A    between atoms: O_20  and  C_21
REMARK    4  A    between atoms: C_21  and  C_22
REMARK    5  A    between atoms: C_22  and  O_23
REMARK    6  A    between atoms: C_22  and  C_24
REMARK    7  A    between atoms: C_24  and  O_25
REMARK                            x       y       z     vdW  Elec       q    Type
REMARK                         _______ _______ _______ _____ _____    ______ ____
ROOT
ATOM      1  C   UNL     1       3.311   6.779  17.901  0.00  0.00    +0.000 A 
ATOM      2  C   UNL     1       3.088   6.380  19.223  0.00  0.00    +0.000 A 
ATOM      3  C   UNL     1       2.266   7.140  20.058  0.00  0.00    +0.000 A 
ATOM      4  C   UNL     1       1.674   8.318  19.566  0.00  0.00    +0.000 A 
ATOM      5  C   UNL     1       0.846   9.314  20.151  0.00  0.00    +0.000 A 
ATOM      6  C   UNL     1       0.605  10.296  19.203  0.00  0.00    +0.000 A 
ATOM      7  N   UNL     1       1.219   9.893  18.039  0.00  0.00    +0.000 N 
ATOM      8  C   UNL     1       1.899   8.702  18.244  0.00  0.00    +0.000 A 
ATOM      9  C   UNL     1       2.710   7.944  17.385  0.00  0.00    +0.000 A 
ATOM     10  C   UNL     1      -0.086  11.612  19.492  0.00  0.00    +0.000 C 
ATOM     11  C   UNL     1       1.004  12.665  19.869  0.00  0.00    +0.000 C 
ATOM     12  C   UNL     1       0.386  14.005  19.505  0.00  0.00    +0.000 C 
ATOM     13  C   UNL     1      -0.245  13.703  18.160  0.00  0.00    +0.000 C 
ATOM     14  C   UNL     1      -0.771  12.258  18.254  0.00  0.00    +0.000 C 
ATOM     15  C   UNL     1      -0.970  11.466  20.767  0.00  0.00    +0.000 A 
ATOM     16  C   UNL     1      -1.978  12.396  21.097  0.00  0.00    +0.000 A 
ATOM     17  C   UNL     1      -2.487  12.489  22.402  0.00  0.00    +0.000 A 
ATOM     18  C   UNL     1      -2.063  11.591  23.378  0.00  0.00    +0.000 A 
ATOM     19  C   UNL     1      -1.159  10.590  23.051  0.00  0.00    +0.000 A 
ATOM     20  C   UNL     1      -0.619  10.517  21.762  0.00  0.00    +0.000 A 
ATOM     21  C   UNL     1       0.353   9.416  21.506  0.00  0.00    +0.000 C 
ATOM     22  O   UNL     1       0.678   8.640  22.395  0.00  0.00    +0.000 OA
ATOM     23  H   UNL     1       1.235  10.404  17.165  0.00  0.00    +0.000 HD
ENDROOT
BRANCH   1  25
ATOM     24  N   UNL     1       4.843   5.328  16.388  0.00  0.00    +0.000 NA
ATOM     25  C   UNL     1       4.169   5.981  17.072  0.00  0.00    +0.000 C 
ENDBRANCH   1  25
BRANCH  17  26
ATOM     26  O   UNL     1      -3.352  13.530  22.619  0.00  0.00    +0.000 OA
BRANCH  26  27
ATOM     27  C   UNL     1      -4.676  13.373  22.085  0.00  0.00    +0.000 C 
BRANCH  27  28
ATOM     28  C   UNL     1      -4.999  14.582  21.204  0.00  0.00    +0.000 C 
BRANCH  28  29
ATOM     29  O   UNL     1      -4.922  14.213  19.817  0.00  0.00    +0.000 OA
ATOM     30  H   UNL     1      -4.181  14.726  19.439  0.00  0.00    +0.000 HD
ENDBRANCH  28  29
BRANCH  28  31
ATOM     31  C   UNL     1      -4.035  15.746  21.445  0.00  0.00    +0.000 C 
BRANCH  31  32
ATOM     32  O   UNL     1      -3.364  16.070  20.227  0.00  0.00    +0.000 OA
ATOM     33  H   UNL     1      -3.165  17.026  20.283  0.00  0.00    +0.000 HD
ENDBRANCH  31  32
ENDBRANCH  28  31
ENDBRANCH  27  28
ENDBRANCH  26  27
ENDBRANCH  17  26
TORSDOF 7
ENDMDL
MODEL 8
REMARK VINA RESULT:      -6.9      5.586      8.714
REMARK  Name = 
REMARK  7 active torsions:
REMARK  status: ('A' for Active; 'I' for Inactive)
REMARK    1  A    between atoms: C_2  and  C_3
REMARK    2  A    between atoms: C_19  and  O_20
REMARK    3  A    between atoms: O_20  and  C_21
REMARK    4  A    between atoms: C_21  and  C_22
REMARK    5  A    between atoms: C_22  and  O_23
REMARK    6  A    between atoms: C_22  and  C_24
REMARK    7  A    between atoms: C_24  and  O_25
REMARK                            x       y       z     vdW  Elec       q    Type
REMARK                         _______ _______ _______ _____ _____    ______ ____
ROOT
ATOM      1  C   UNL     1      -2.104  14.453  23.683  0.00  0.00    +0.000 A 
ATOM      2  C   UNL     1      -1.027  13.658  23.275  0.00  0.00    +0.000 A 
ATOM      3  C   UNL     1      -1.102  12.930  22.085  0.00  0.00    +0.000 A 
ATOM      4  C   UNL     1      -2.273  12.989  21.306  0.00  0.00    +0.000 A 
ATOM      5  C   UNL     1      -2.678  12.353  20.102  0.00  0.00    +0.000 A 
ATOM      6  C   UNL     1      -3.977  12.742  19.817  0.00  0.00    +0.000 A 
ATOM      7  N   UNL     1      -4.352  13.643  20.788  0.00  0.00    +0.000 N 
ATOM      8  C   UNL     1      -3.337  13.789  21.722  0.00  0.00    +0.000 A 
ATOM      9  C   UNL     1      -3.276  14.539  22.906  0.00  0.00    +0.000 A 
ATOM     10  C   UNL     1      -4.826  12.144  18.715  0.00  0.00    +0.000 C 
ATOM     11  C   UNL     1      -5.633  10.949  19.312  0.00  0.00    +0.000 C 
ATOM     12  C   UNL     1      -6.866  10.837  18.430  0.00  0.00    +0.000 C 
ATOM     13  C   UNL     1      -7.266  12.291  18.267  0.00  0.00    +0.000 C 
ATOM     14  C   UNL     1      -5.947  13.086  18.191  0.00  0.00    +0.000 C 
ATOM     15  C   UNL     1      -3.902  11.510  17.632  0.00  0.00    +0.000 A 
ATOM     16  C   UNL     1      -4.368  11.177  16.343  0.00  0.00    +0.000 A 
ATOM     17  C   UNL     1      -3.673  10.269  15.528  0.00  0.00    +0.000 A 
ATOM     18  C   UNL     1      -2.451   9.752  15.950  0.00  0.00    +0.000 A 
ATOM     19  C   UNL     1      -1.911  10.155  17.163  0.00  0.00    +0.000 A 
ATOM     20  C   UNL     1      -2.619  11.028  17.997  0.00  0.00    +0.000 A 
ATOM     21  C   UNL     1      -1.965  11.396  19.286  0.00  0.00    +0.000 C 
ATOM     22  O   UNL     1      -0.879  10.927  19.601  0.00  0.00    +0.000 OA
ATOM     23  H   UNL     1      -5.252  14.099  20.862  0.00  0.00    +0.000 HD
ENDROOT
BRANCH   1  25
ATOM     24  N   UNL     1      -1.893  15.757  25.918  0.00  0.00    +0.000 NA
ATOM     25  C   UNL     1      -1.999  15.180  24.916  0.00  0.00    +0.000 C 
ENDBRANCH   1  25
BRANCH  17  26
ATOM     26  O   UNL     1      -4.311   9.922  14.365  0.00  0.00    +0.000 OA
BRANCH  26  27
ATOM     27  C   UNL     1      -3.528  10.012  13.164  0.00  0.00    +0.000 C 
BRANCH  27  28
ATOM     28  C   UNL     1      -4.411   9.634  11.972  0.00  0.00    +0.000 C 
BRANCH  28  29
ATOM     29  O   UNL     1      -4.628  10.783  11.137  0.00  0.00    +0.000 OA
ATOM     30  H   UNL     1      -5.059  10.453  10.324  0.00  0.00    +0.000 HD
ENDBRANCH  28  29
BRANCH  28  31
ATOM     31  C   UNL     1      -5.774   9.095  12.411  0.00  0.00    +0.000 C 
BRANCH  31  32
ATOM     32  O   UNL     1      -6.808   9.934  11.893  0.00  0.00    +0.000 OA
ATOM     33  H   UNL     1      -7.640   9.436  12.023  0.00  0.00    +0.000 HD
ENDBRANCH  31  32
ENDBRANCH  28  31
ENDBRANCH  27  28
ENDBRANCH  26  27
ENDBRANCH  17  26
TORSDOF 7
ENDMDL
MODEL 9
REMARK VINA RESULT:      -6.9      1.325      1.553
REMARK  Name = 
REMARK  7 active torsions:
REMARK  status: ('A' for Active; 'I' for Inactive)
REMARK    1  A    between atoms: C_2  and  C_3
REMARK    2  A    between atoms: C_19  and  O_20
REMARK    3  A    between atoms: O_20  and  C_21
REMARK    4  A    between atoms: C_21  and  C_22
REMARK    5  A    between atoms: C_22  and  O_23
REMARK    6  A    between atoms: C_22  and  C_24
REMARK    7  A    between atoms: C_24  and  O_25
REMARK                            x       y       z     vdW  Elec       q    Type
REMARK                         _______ _______ _______ _____ _____    ______ ____
ROOT
ATOM      1  C   UNL     1       2.511   7.147  19.120  0.00  0.00    +0.000 A 
ATOM      2  C   UNL     1       2.052   6.862  20.410  0.00  0.00    +0.000 A 
ATOM      3  C   UNL     1       1.222   7.766  21.077  0.00  0.00    +0.000 A 
ATOM      4  C   UNL     1       0.861   8.972  20.449  0.00  0.00    +0.000 A 
ATOM      5  C   UNL     1       0.091  10.095  20.859  0.00  0.00    +0.000 A 
ATOM      6  C   UNL     1       0.116  11.036  19.842  0.00  0.00    +0.000 A 
ATOM      7  N   UNL     1       0.834  10.490  18.803  0.00  0.00    +0.000 N 
ATOM      8  C   UNL     1       1.321   9.242  19.161  0.00  0.00    +0.000 A 
ATOM      9  C   UNL     1       2.144   8.341  18.468  0.00  0.00    +0.000 A 
ATOM     10  C   UNL     1      -0.437  12.441  19.965  0.00  0.00    +0.000 C 
ATOM     11  C   UNL     1       0.712  13.378  20.454  0.00  0.00    +0.000 C 
ATOM     12  C   UNL     1       0.328  14.756  19.942  0.00  0.00    +0.000 C 
ATOM     13  C   UNL     1      -0.136  14.448  18.531  0.00  0.00    +0.000 C 
ATOM     14  C   UNL     1      -0.850  13.084  18.611  0.00  0.00    +0.000 C 
ATOM     15  C   UNL     1      -1.506  12.482  21.098  0.00  0.00    +0.000 A 
ATOM     16  C   UNL     1      -2.425  13.544  21.231  0.00  0.00    +0.000 A 
ATOM     17  C   UNL     1      -3.099  13.779  22.439  0.00  0.00    +0.000 A 
ATOM     18  C   UNL     1      -2.937  12.900  23.507  0.00  0.00    +0.000 A 
ATOM     19  C   UNL     1      -2.130  11.780  23.364  0.00  0.00    +0.000 A 
ATOM     20  C   UNL     1      -1.424  11.563  22.176  0.00  0.00    +0.000 A 
ATOM     21  C   UNL     1      -0.574  10.339  22.118  0.00  0.00    +0.000 C 
ATOM     22  O   UNL     1      -0.481   9.588  23.080  0.00  0.00    +0.000 OA
ATOM     23  H   UNL     1       1.040  10.940  17.919  0.00  0.00    +0.000 HD
ENDROOT
BRANCH   1  25
ATOM     24  N   UNL     1       4.072   5.428  17.959  0.00  0.00    +0.000 NA
ATOM     25  C   UNL     1       3.370   6.202  18.466  0.00  0.00    +0.000 C 
ENDBRANCH   1  25
BRANCH  17  26
ATOM     26  O   UNL     1      -3.847  14.927  22.477  0.00  0.00    +0.000 OA
BRANCH  26  27
ATOM     27  C   UNL     1      -3.233  16.061  23.110  0.00  0.00    +0.000 C 
BRANCH  27  28
ATOM     28  C   UNL     1      -4.090  16.481  24.307  0.00  0.00    +0.000 C 
BRANCH  28  29
ATOM     29  O   UNL     1      -3.782  15.659  25.445  0.00  0.00    +0.000 OA
ATOM     30  H   UNL     1      -2.863  15.877  25.696  0.00  0.00    +0.000 HD
ENDBRANCH  28  29
BRANCH  28  31
ATOM     31  C   UNL     1      -5.588  16.355  24.016  0.00  0.00    +0.000 C 
BRANCH  31  32
ATOM     32  O   UNL     1      -6.009  15.012  24.255  0.00  0.00    +0.000 OA
ATOM     33  H   UNL     1      -5.523  14.722  25.052  0.00  0.00    +0.000 HD
ENDBRANCH  31  32
ENDBRANCH  28  31
ENDBRANCH  27  28
ENDBRANCH  26  27
ENDBRANCH  17  26
TORSDOF 7
ENDMDL
