MODEL 1
REMARK VINA RESULT:      -7.4      0.000      0.000
REMARK  Name = 
REMARK  8 active torsions:
REMARK  status: ('A' for Active; 'I' for Inactive)
REMARK    1  A    between atoms: C_1  and  S_2
REMARK    2  A    between atoms: S_2  and  C_5
REMARK    3  A    between atoms: C_8  and  C_9
REMARK    4  A    between atoms: C_10  and  C_11
REMARK    5  A    between atoms: C_17  and  O_18
REMARK    6  A    between atoms: O_18  and  C_19
REMARK    7  A    between atoms: C_19  and  C_20
REMARK    8  A    between atoms: C_20  and  O_22
REMARK                            x       y       z     vdW  Elec       q    Type
REMARK                         _______ _______ _______ _____ _____    ______ ____
ROOT
ATOM      1  C   UNL     1       3.504   5.592  17.963  0.00  0.00    +0.000 A 
ATOM      2  C   UNL     1       4.486   5.960  17.033  0.00  0.00    +0.000 A 
ATOM      3  C   UNL     1       5.136   4.989  16.276  0.00  0.00    +0.000 A 
ATOM      4 CL   UNL     1       6.291   5.449  15.086  0.00  0.00    +0.000 Cl
ATOM      5  C   UNL     1       4.851   3.641  16.463  0.00  0.00    +0.000 A 
ATOM      6  C   UNL     1       3.887   3.263  17.399  0.00  0.00    +0.000 A 
ATOM      7  C   UNL     1       3.173   4.231  18.123  0.00  0.00    +0.000 A 
ENDROOT
BRANCH   1   9
ATOM      8  C   UNL     1       2.244   7.511  19.268  0.00  0.00    +0.000 C 
ATOM      9  C   UNL     1       2.830   6.634  18.693  0.00  0.00    +0.000 C 
BRANCH   8  13
ATOM     10  C   UNL     1       0.186  10.617  21.248  0.00  0.00    +0.000 A 
ATOM     11  C   UNL     1       0.612   9.504  21.980  0.00  0.00    +0.000 A 
ATOM     12  C   UNL     1       1.256   8.452  21.319  0.00  0.00    +0.000 A 
ATOM     13  C   UNL     1       1.466   8.513  19.936  0.00  0.00    +0.000 A 
ATOM     14  C   UNL     1       0.975   9.599  19.206  0.00  0.00    +0.000 A 
ATOM     15  C   UNL     1       0.334  10.655  19.860  0.00  0.00    +0.000 A 
BRANCH  10  17
ATOM     16  C   UNL     1      -1.994  12.357  21.062  0.00  0.00    +0.000 C 
ATOM     17  S   UNL     1      -0.589  11.986  22.081  0.00  0.00    +0.000 S 
ATOM     18  O   UNL     1       0.325  13.110  22.015  0.00  0.00    +0.000 OA
ATOM     19  O   UNL     1      -1.077  11.498  23.357  0.00  0.00    +0.000 OA
ENDBRANCH  10  17
ENDBRANCH   8  13
ENDBRANCH   1   9
BRANCH   7  20
ATOM     20  O   UNL     1       2.142   3.910  18.982  0.00  0.00    +0.000 OA
BRANCH  20  21
ATOM     21  C   UNL     1       2.474   2.923  19.967  0.00  0.00    +0.000 C 
BRANCH  21  22
ATOM     22  C   UNL     1       2.151   3.412  21.367  0.00  0.00    +0.000 C 
ATOM     23  O   UNL     1       1.682   2.699  22.243  0.00  0.00    +0.000 OA
BRANCH  22  24
ATOM     24  O   UNL     1       2.434   4.722  21.561  0.00  0.00    +0.000 OA
ATOM     25  H   UNL     1       2.969   4.827  22.379  0.00  0.00    +0.000 HD
ENDBRANCH  22  24
ENDBRANCH  21  22
ENDBRANCH  20  21
ENDBRANCH   7  20
TORSDOF 7
ENDMDL
MODEL 2
REMARK VINA RESULT:      -7.3      0.602      1.193
REMARK  Name = 
REMARK  8 active torsions:
REMARK  status: ('A' for Active; 'I' for Inactive)
REMARK    1  A    between atoms: C_1  and  S_2
REMARK    2  A    between atoms: S_2  and  C_5
REMARK    3  A    between atoms: C_8  and  C_9
REMARK    4  A    between atoms: C_10  and  C_11
REMARK    5  A    between atoms: C_17  and  O_18
REMARK    6  A    between atoms: O_18  and  C_19
REMARK    7  A    between atoms: C_19  and  C_20
REMARK    8  A    between atoms: C_20  and  O_22
REMARK                            x       y       z     vdW  Elec       q    Type
REMARK                         _______ _______ _______ _____ _____    ______ ____
ROOT
ATOM      1  C   UNL     1       3.508   5.703  17.825  0.00  0.00    +0.000 A 
ATOM      2  C   UNL     1       4.468   6.035  16.858  0.00  0.00    +0.000 A 
ATOM      3  C   UNL     1       5.158   5.032  16.183  0.00  0.00    +0.000 A 
ATOM      4 CL   UNL     1       6.284   5.440  14.947  0.00  0.00    +0.000 Cl
ATOM      5  C   UNL     1       4.936   3.693  16.488  0.00  0.00    +0.000 A 
ATOM      6  C   UNL     1       3.996   3.354  17.461  0.00  0.00    +0.000 A 
ATOM      7  C   UNL     1       3.241   4.348  18.105  0.00  0.00    +0.000 A 
ENDROOT
BRANCH   1   9
ATOM      8  C   UNL     1       2.202   7.648  19.045  0.00  0.00    +0.000 C 
ATOM      9  C   UNL     1       2.791   6.773  18.470  0.00  0.00    +0.000 C 
BRANCH   8  13
ATOM     10  C   UNL     1       0.117  10.639  21.169  0.00  0.00    +0.000 A 
ATOM     11  C   UNL     1       0.451  10.859  19.829  0.00  0.00    +0.000 A 
ATOM     12  C   UNL     1       1.181   9.888  19.134  0.00  0.00    +0.000 A 
ATOM     13  C   UNL     1       1.577   8.710  19.778  0.00  0.00    +0.000 A 
ATOM     14  C   UNL     1       1.296   8.532  21.136  0.00  0.00    +0.000 A 
ATOM     15  C   UNL     1       0.565   9.496  21.835  0.00  0.00    +0.000 A 
BRANCH  10  17
ATOM     16  C   UNL     1      -2.129  12.281  20.899  0.00  0.00    +0.000 C 
ATOM     17  S   UNL     1      -0.853  11.841  22.052  0.00  0.00    +0.000 S 
ATOM     18  O   UNL     1      -0.015  13.007  22.264  0.00  0.00    +0.000 OA
ATOM     19  O   UNL     1      -1.475  11.160  23.171  0.00  0.00    +0.000 OA
ENDBRANCH  10  17
ENDBRANCH   8  13
ENDBRANCH   1   9
BRANCH   7  20
ATOM     20  O   UNL     1       2.231   4.056  18.998  0.00  0.00    +0.000 OA
BRANCH  20  21
ATOM     21  C   UNL     1       2.678   3.502  20.243  0.00  0.00    +0.000 C 
BRANCH  21  22
ATOM     22  C   UNL     1       1.515   2.965  21.056  0.00  0.00    +0.000 C 
ATOM     23  O   UNL     1       1.640   2.445  22.155  0.00  0.00    +0.000 OA
BRANCH  22  24
ATOM     24  O   UNL     1       0.314   3.117  20.448  0.00  0.00    +0.000 OA
ATOM     25  H   UNL     1      -0.327   2.470  20.817  0.00  0.00    +0.000 HD
ENDBRANCH  22  24
ENDBRANCH  21  22
ENDBRANCH  20  21
ENDBRANCH   7  20
TORSDOF 7
ENDMDL
MODEL 3
REMARK VINA RESULT:      -7.2      3.181      4.224
REMARK  Name = 
REMARK  8 active torsions:
REMARK  status: ('A' for Active; 'I' for Inactive)
REMARK    1  A    between atoms: C_1  and  S_2
REMARK    2  A    between atoms: S_2  and  C_5
REMARK    3  A    between atoms: C_8  and  C_9
REMARK    4  A    between atoms: C_10  and  C_11
REMARK    5  A    between atoms: C_17  and  O_18
REMARK    6  A    between atoms: O_18  and  C_19
REMARK    7  A    between atoms: C_19  and  C_20
REMARK    8  A    between atoms: C_20  and  O_22
REMARK                            x       y       z     vdW  Elec       q    Type
REMARK                         _______ _______ _______ _____ _____    ______ ____
ROOT
ATOM      1  C   UNL     1       2.659   5.435  17.974  0.00  0.00    +0.000 A 
ATOM      2  C   UNL     1       1.661   4.514  18.324  0.00  0.00    +0.000 A 
ATOM      3  C   UNL     1       1.885   3.148  18.178  0.00  0.00    +0.000 A 
ATOM      4 CL   UNL     1       0.685   2.017  18.674  0.00  0.00    +0.000 Cl
ATOM      5  C   UNL     1       3.082   2.681  17.645  0.00  0.00    +0.000 A 
ATOM      6  C   UNL     1       4.074   3.591  17.278  0.00  0.00    +0.000 A 
ATOM      7  C   UNL     1       3.893   4.969  17.480  0.00  0.00    +0.000 A 
ENDROOT
BRANCH   1   9
ATOM      8  C   UNL     1       2.149   8.003  18.320  0.00  0.00    +0.000 C 
ATOM      9  C   UNL     1       2.397   6.836  18.180  0.00  0.00    +0.000 C 
BRANCH   8  13
ATOM     10  C   UNL     1       1.227  12.058  19.035  0.00  0.00    +0.000 A 
ATOM     11  C   UNL     1       0.471  11.064  19.663  0.00  0.00    +0.000 A 
ATOM     12  C   UNL     1       0.745   9.718  19.394  0.00  0.00    +0.000 A 
ATOM     13  C   UNL     1       1.765   9.373  18.500  0.00  0.00    +0.000 A 
ATOM     14  C   UNL     1       2.469  10.376  17.827  0.00  0.00    +0.000 A 
ATOM     15  C   UNL     1       2.202  11.722  18.093  0.00  0.00    +0.000 A 
BRANCH  10  17
ATOM     16  C   UNL     1       0.988  13.839  21.177  0.00  0.00    +0.000 C 
ATOM     17  S   UNL     1       0.925  13.773  19.404  0.00  0.00    +0.000 S 
ATOM     18  O   UNL     1      -0.433  14.074  18.990  0.00  0.00    +0.000 OA
ATOM     19  O   UNL     1       2.046  14.533  18.886  0.00  0.00    +0.000 OA
ENDBRANCH  10  17
ENDBRANCH   8  13
ENDBRANCH   1   9
BRANCH   7  20
ATOM     20  O   UNL     1       4.883   5.895  17.228  0.00  0.00    +0.000 OA
BRANCH  20  21
ATOM     21  C   UNL     1       6.127   5.634  17.892  0.00  0.00    +0.000 C 
BRANCH  21  22
ATOM     22  C   UNL     1       7.230   5.330  16.896  0.00  0.00    +0.000 C 
ATOM     23  O   UNL     1       7.480   6.031  15.927  0.00  0.00    +0.000 OA
BRANCH  22  24
ATOM     24  O   UNL     1       7.921   4.201  17.183  0.00  0.00    +0.000 OA
ATOM     25  H   UNL     1       7.876   4.022  18.148  0.00  0.00    +0.000 HD
ENDBRANCH  22  24
ENDBRANCH  21  22
ENDBRANCH  20  21
ENDBRANCH   7  20
TORSDOF 7
ENDMDL
MODEL 4
REMARK VINA RESULT:      -7.2      1.031      1.169
REMARK  Name = 
REMARK  8 active torsions:
REMARK  status: ('A' for Active; 'I' for Inactive)
REMARK    1  A    between atoms: C_1  and  S_2
REMARK    2  A    between atoms: S_2  and  C_5
REMARK    3  A    between atoms: C_8  and  C_9
REMARK    4  A    between atoms: C_10  and  C_11
REMARK    5  A    between atoms: C_17  and  O_18
REMARK    6  A    between atoms: O_18  and  C_19
REMARK    7  A    between atoms: C_19  and  C_20
REMARK    8  A    between atoms: C_20  and  O_22
REMARK                            x       y       z     vdW  Elec       q    Type
REMARK                         _______ _______ _______ _____ _____    ______ ____
ROOT
ATOM      1  C   UNL     1       3.569   5.665  17.794  0.00  0.00    +0.000 A 
ATOM      2  C   UNL     1       4.536   6.014  16.840  0.00  0.00    +0.000 A 
ATOM      3  C   UNL     1       5.252   5.024  16.173  0.00  0.00    +0.000 A 
ATOM      4 CL   UNL     1       6.388   5.453  14.953  0.00  0.00    +0.000 Cl
ATOM      5  C   UNL     1       5.049   3.682  16.473  0.00  0.00    +0.000 A 
ATOM      6  C   UNL     1       4.101   3.325  17.433  0.00  0.00    +0.000 A 
ATOM      7  C   UNL     1       3.322   4.305  18.068  0.00  0.00    +0.000 A 
ENDROOT
BRANCH   1   9
ATOM      8  C   UNL     1       2.237   7.630  18.952  0.00  0.00    +0.000 C 
ATOM      9  C   UNL     1       2.825   6.722  18.430  0.00  0.00    +0.000 C 
BRANCH   8  13
ATOM     10  C   UNL     1       0.448  11.079  20.598  0.00  0.00    +0.000 A 
ATOM     11  C   UNL     1       0.593   9.937  21.393  0.00  0.00    +0.000 A 
ATOM     12  C   UNL     1       1.145   8.777  20.837  0.00  0.00    +0.000 A 
ATOM     13  C   UNL     1       1.544   8.761  19.496  0.00  0.00    +0.000 A 
ATOM     14  C   UNL     1       1.332   9.886  18.694  0.00  0.00    +0.000 A 
ATOM     15  C   UNL     1       0.784  11.048  19.243  0.00  0.00    +0.000 A 
BRANCH  10  17
ATOM     16  C   UNL     1      -1.073  12.018  22.747  0.00  0.00    +0.000 C 
ATOM     17  S   UNL     1      -0.207  12.576  21.302  0.00  0.00    +0.000 S 
ATOM     18  O   UNL     1      -1.183  13.106  20.368  0.00  0.00    +0.000 OA
ATOM     19  O   UNL     1       0.919  13.380  21.736  0.00  0.00    +0.000 OA
ENDBRANCH  10  17
ENDBRANCH   8  13
ENDBRANCH   1   9
BRANCH   7  20
ATOM     20  O   UNL     1       2.305   3.995  18.947  0.00  0.00    +0.000 OA
BRANCH  20  21
ATOM     21  C   UNL     1       2.746   3.504  20.220  0.00  0.00    +0.000 C 
BRANCH  21  22
ATOM     22  C   UNL     1       1.577   3.024  21.060  0.00  0.00    +0.000 C 
ATOM     23  O   UNL     1       1.690   2.613  22.206  0.00  0.00    +0.000 OA
BRANCH  22  24
ATOM     24  O   UNL     1       0.386   3.095  20.421  0.00  0.00    +0.000 OA
ATOM     25  H   UNL     1      -0.071   2.226  20.476  0.00  0.00    +0.000 HD
ENDBRANCH  22  24
ENDBRANCH  21  22
ENDBRANCH  20  21
ENDBRANCH   7  20
TORSDOF 7
ENDMDL
MODEL 5
REMARK VINA RESULT:      -7.2      0.994      1.524
REMARK  Name = 
REMARK  8 active torsions:
REMARK  status: ('A' for Active; 'I' for Inactive)
REMARK    1  A    between atoms: C_1  and  S_2
REMARK    2  A    between atoms: S_2  and  C_5
REMARK    3  A    between atoms: C_8  and  C_9
REMARK    4  A    between atoms: C_10  and  C_11
REMARK    5  A    between atoms: C_17  and  O_18
REMARK    6  A    between atoms: O_18  and  C_19
REMARK    7  A    between atoms: C_19  and  C_20
REMARK    8  A    between atoms: C_20  and  O_22
REMARK                            x       y       z     vdW  Elec       q    Type
REMARK                         _______ _______ _______ _____ _____    ______ ____
ROOT
ATOM      1  C   UNL     1       2.970   6.057  18.637  0.00  0.00    +0.000 A 
ATOM      2  C   UNL     1       3.833   6.312  17.562  0.00  0.00    +0.000 A 
ATOM      3  C   UNL     1       4.430   5.257  16.877  0.00  0.00    +0.000 A 
ATOM      4 CL   UNL     1       5.433   5.570  15.513  0.00  0.00    +0.000 Cl
ATOM      5  C   UNL     1       4.215   3.943  17.277  0.00  0.00    +0.000 A 
ATOM      6  C   UNL     1       3.372   3.681  18.358  0.00  0.00    +0.000 A 
ATOM      7  C   UNL     1       2.707   4.726  19.018  0.00  0.00    +0.000 A 
ENDROOT
BRANCH   1   9
ATOM      8  C   UNL     1       1.783   8.090  19.834  0.00  0.00    +0.000 C 
ATOM      9  C   UNL     1       2.343   7.178  19.290  0.00  0.00    +0.000 C 
BRANCH   8  13
ATOM     10  C   UNL     1      -0.488  10.979  21.909  0.00  0.00    +0.000 A 
ATOM     11  C   UNL     1      -0.144  11.209  20.573  0.00  0.00    +0.000 A 
ATOM     12  C   UNL     1       0.647  10.274  19.895  0.00  0.00    +0.000 A 
ATOM     13  C   UNL     1       1.092   9.121  20.552  0.00  0.00    +0.000 A 
ATOM     14  C   UNL     1       0.798   8.936  21.906  0.00  0.00    +0.000 A 
ATOM     15  C   UNL     1       0.008   9.864  22.588  0.00  0.00    +0.000 A 
BRANCH  10  17
ATOM     16  C   UNL     1      -2.310  13.052  21.466  0.00  0.00    +0.000 C 
ATOM     17  S   UNL     1      -1.533  12.133  22.770  0.00  0.00    +0.000 S 
ATOM     18  O   UNL     1      -0.670  13.038  23.506  0.00  0.00    +0.000 OA
ATOM     19  O   UNL     1      -2.558  11.366  23.451  0.00  0.00    +0.000 OA
ENDBRANCH  10  17
ENDBRANCH   8  13
ENDBRANCH   1   9
BRANCH   7  20
ATOM     20  O   UNL     1       1.787   4.508  20.022  0.00  0.00    +0.000 OA
BRANCH  20  21
ATOM     21  C   UNL     1       1.435   3.132  20.219  0.00  0.00    +0.000 C 
BRANCH  21  22
ATOM     22  C   UNL     1       1.900   2.632  21.574  0.00  0.00    +0.000 C 
ATOM     23  O   UNL     1       1.153   2.465  22.527  0.00  0.00    +0.000 OA
BRANCH  22  24
ATOM     24  O   UNL     1       3.230   2.384  21.632  0.00  0.00    +0.000 OA
ATOM     25  H   UNL     1       3.405   1.677  22.292  0.00  0.00    +0.000 HD
ENDBRANCH  22  24
ENDBRANCH  21  22
ENDBRANCH  20  21
ENDBRANCH   7  20
TORSDOF 7
ENDMDL
MODEL 6
REMARK VINA RESULT:      -7.1      1.086      1.629
REMARK  Name = 
REMARK  8 active torsions:
REMARK  status: ('A' for Active; 'I' for Inactive)
REMARK    1  A    between atoms: C_1  and  S_2
REMARK    2  A    between atoms: S_2  and  C_5
REMARK    3  A    between atoms: C_8  and  C_9
REMARK    4  A    between atoms: C_10  and  C_11
REMARK    5  A    between atoms: C_17  and  O_18
REMARK    6  A    between atoms: O_18  and  C_19
REMARK    7  A    between atoms: C_19  and  C_20
REMARK    8  A    between atoms: C_20  and  O_22
REMARK                            x       y       z     vdW  Elec       q    Type
REMARK                         _______ _______ _______ _____ _____    ______ ____
ROOT
ATOM      1  C   UNL     1       3.485   5.993  17.653  0.00  0.00    +0.000 A 
ATOM      2  C   UNL     1       4.783   6.176  17.156  0.00  0.00    +0.000 A 
ATOM      3  C   UNL     1       5.489   5.100  16.624  0.00  0.00    +0.000 A 
ATOM      4 CL   UNL     1       7.055   5.341  15.951  0.00  0.00    +0.000 Cl
ATOM      5  C   UNL     1       4.934   3.825  16.618  0.00  0.00    +0.000 A 
ATOM      6  C   UNL     1       3.649   3.630  17.127  0.00  0.00    +0.000 A 
ATOM      7  C   UNL     1       2.895   4.714  17.605  0.00  0.00    +0.000 A 
ENDROOT
BRANCH   1   9
ATOM      8  C   UNL     1       2.158   8.076  18.589  0.00  0.00    +0.000 C 
ATOM      9  C   UNL     1       2.778   7.143  18.156  0.00  0.00    +0.000 C 
BRANCH   8  13
ATOM     10  C   UNL     1      -0.258  11.086  20.293  0.00  0.00    +0.000 A 
ATOM     11  C   UNL     1       0.233  11.257  18.995  0.00  0.00    +0.000 A 
ATOM     12  C   UNL     1       1.071  10.281  18.442  0.00  0.00    +0.000 A 
ATOM     13  C   UNL     1       1.416   9.147  19.187  0.00  0.00    +0.000 A 
ATOM     14  C   UNL     1       0.974   9.021  20.507  0.00  0.00    +0.000 A 
ATOM     15  C   UNL     1       0.136   9.990  21.064  0.00  0.00    +0.000 A 
BRANCH  10  17
ATOM     16  C   UNL     1      -2.706  12.355  19.830  0.00  0.00    +0.000 C 
ATOM     17  S   UNL     1      -1.365  12.293  20.991  0.00  0.00    +0.000 S 
ATOM     18  O   UNL     1      -0.685  13.575  20.963  0.00  0.00    +0.000 OA
ATOM     19  O   UNL     1      -1.872  11.748  22.235  0.00  0.00    +0.000 OA
ENDBRANCH  10  17
ENDBRANCH   8  13
ENDBRANCH   1   9
BRANCH   7  20
ATOM     20  O   UNL     1       1.587   4.586  18.021  0.00  0.00    +0.000 OA
BRANCH  20  21
ATOM     21  C   UNL     1       1.341   3.462  18.876  0.00  0.00    +0.000 C 
BRANCH  21  22
ATOM     22  C   UNL     1       1.133   3.899  20.315  0.00  0.00    +0.000 C 
ATOM     23  O   UNL     1       1.271   5.052  20.699  0.00  0.00    +0.000 OA
BRANCH  22  24
ATOM     24  O   UNL     1       0.776   2.888  21.141  0.00  0.00    +0.000 OA
ATOM     25  H   UNL     1       1.531   2.267  21.248  0.00  0.00    +0.000 HD
ENDBRANCH  22  24
ENDBRANCH  21  22
ENDBRANCH  20  21
ENDBRANCH   7  20
TORSDOF 7
ENDMDL
MODEL 7
REMARK VINA RESULT:      -7.1      1.269      1.724
REMARK  Name = 
REMARK  8 active torsions:
REMARK  status: ('A' for Active; 'I' for Inactive)
REMARK    1  A    between atoms: C_1  and  S_2
REMARK    2  A    between atoms: S_2  and  C_5
REMARK    3  A    between atoms: C_8  and  C_9
REMARK    4  A    between atoms: C_10  and  C_11
REMARK    5  A    between atoms: C_17  and  O_18
REMARK    6  A    between atoms: O_18  and  C_19
REMARK    7  A    between atoms: C_19  and  C_20
REMARK    8  A    between atoms: C_20  and  O_22
REMARK                            x       y       z     vdW  Elec       q    Type
REMARK                         _______ _______ _______ _____ _____    ______ ____
ROOT
ATOM      1  C   UNL     1       3.655   5.737  17.634  0.00  0.00    +0.000 A 
ATOM      2  C   UNL     1       4.633   6.026  16.672  0.00  0.00    +0.000 A 
ATOM      3  C   UNL     1       5.348   4.995  16.067  0.00  0.00    +0.000 A 
ATOM      4 CL   UNL     1       6.498   5.348  14.836  0.00  0.00    +0.000 Cl
ATOM      5  C   UNL     1       5.132   3.673  16.439  0.00  0.00    +0.000 A 
ATOM      6  C   UNL     1       4.173   3.377  17.408  0.00  0.00    +0.000 A 
ATOM      7  C   UNL     1       3.395   4.396  17.981  0.00  0.00    +0.000 A 
ENDROOT
BRANCH   1   9
ATOM      8  C   UNL     1       2.296   7.766  18.641  0.00  0.00    +0.000 C 
ATOM      9  C   UNL     1       2.914   6.832  18.204  0.00  0.00    +0.000 C 
BRANCH   8  13
ATOM     10  C   UNL     1      -0.277  10.843  19.950  0.00  0.00    +0.000 A 
ATOM     11  C   UNL     1       0.171  10.844  18.625  0.00  0.00    +0.000 A 
ATOM     12  C   UNL     1       1.060   9.850  18.199  0.00  0.00    +0.000 A 
ATOM     13  C   UNL     1       1.499   8.867  19.095  0.00  0.00    +0.000 A 
ATOM     14  C   UNL     1       1.096   8.917  20.432  0.00  0.00    +0.000 A 
ATOM     15  C   UNL     1       0.207   9.905  20.864  0.00  0.00    +0.000 A 
BRANCH  10  17
ATOM     16  C   UNL     1      -0.585  13.604  20.260  0.00  0.00    +0.000 C 
ATOM     17  S   UNL     1      -1.446  12.070  20.494  0.00  0.00    +0.000 S 
ATOM     18  O   UNL     1      -1.646  11.878  21.918  0.00  0.00    +0.000 OA
ATOM     19  O   UNL     1      -2.567  12.039  19.575  0.00  0.00    +0.000 OA
ENDBRANCH  10  17
ENDBRANCH   8  13
ENDBRANCH   1   9
BRANCH   7  20
ATOM     20  O   UNL     1       2.367   4.142  18.866  0.00  0.00    +0.000 OA
BRANCH  20  21
ATOM     21  C   UNL     1       2.794   3.732  20.172  0.00  0.00    +0.000 C 
BRANCH  21  22
ATOM     22  C   UNL     1       1.632   3.200  20.989  0.00  0.00    +0.000 C 
ATOM     23  O   UNL     1       1.752   2.721  22.107  0.00  0.00    +0.000 OA
BRANCH  22  24
ATOM     24  O   UNL     1       0.436   3.305  20.362  0.00  0.00    +0.000 OA
ATOM     25  H   UNL     1      -0.287   3.091  20.992  0.00  0.00    +0.000 HD
ENDBRANCH  22  24
ENDBRANCH  21  22
ENDBRANCH  20  21
ENDBRANCH   7  20
TORSDOF 7
ENDMDL
MODEL 8
REMARK VINA RESULT:      -7.1      3.084      4.162
REMARK  Name = 
REMARK  8 active torsions:
REMARK  status: ('A' for Active; 'I' for Inactive)
REMARK    1  A    between atoms: C_1  and  S_2
REMARK    2  A    between atoms: S_2  and  C_5
REMARK    3  A    between atoms: C_8  and  C_9
REMARK    4  A    between atoms: C_10  and  C_11
REMARK    5  A    between atoms: C_17  and  O_18
REMARK    6  A    between atoms: O_18  and  C_19
REMARK    7  A    between atoms: C_19  and  C_20
REMARK    8  A    between atoms: C_20  and  O_22
REMARK                            x       y       z     vdW  Elec       q    Type
REMARK                         _______ _______ _______ _____ _____    ______ ____
ROOT
ATOM      1  C   UNL     1       2.694   5.582  17.954  0.00  0.00    +0.000 A 
ATOM      2  C   UNL     1       1.809   4.568  18.349  0.00  0.00    +0.000 A 
ATOM      3  C   UNL     1       2.144   3.231  18.156  0.00  0.00    +0.000 A 
ATOM      4 CL   UNL     1       1.088   1.987  18.705  0.00  0.00    +0.000 Cl
ATOM      5  C   UNL     1       3.337   2.885  17.531  0.00  0.00    +0.000 A 
ATOM      6  C   UNL     1       4.216   3.887  17.118  0.00  0.00    +0.000 A 
ATOM      7  C   UNL     1       3.927   5.239  17.365  0.00  0.00    +0.000 A 
ENDROOT
BRANCH   1   9
ATOM      8  C   UNL     1       1.987   8.077  18.457  0.00  0.00    +0.000 C 
ATOM      9  C   UNL     1       2.322   6.950  18.211  0.00  0.00    +0.000 C 
BRANCH   8  13
ATOM     10  C   UNL     1       1.148  12.022  19.698  0.00  0.00    +0.000 A 
ATOM     11  C   UNL     1       0.636  10.949  20.435  0.00  0.00    +0.000 A 
ATOM     12  C   UNL     1       0.875   9.640  20.002  0.00  0.00    +0.000 A 
ATOM     13  C   UNL     1       1.617   9.409  18.837  0.00  0.00    +0.000 A 
ATOM     14  C   UNL     1       2.065  10.490  18.072  0.00  0.00    +0.000 A 
ATOM     15  C   UNL     1       1.832  11.799  18.501  0.00  0.00    +0.000 A 
BRANCH  10  17
ATOM     16  C   UNL     1       2.257  14.583  19.556  0.00  0.00    +0.000 C 
ATOM     17  S   UNL     1       0.896  13.690  20.262  0.00  0.00    +0.000 S 
ATOM     18  O   UNL     1       1.056  13.691  21.704  0.00  0.00    +0.000 OA
ATOM     19  O   UNL     1      -0.326  14.176  19.650  0.00  0.00    +0.000 OA
ENDBRANCH  10  17
ENDBRANCH   8  13
ENDBRANCH   1   9
BRANCH   7  20
ATOM     20  O   UNL     1       4.810   6.256  17.068  0.00  0.00    +0.000 OA
BRANCH  20  21
ATOM     21  C   UNL     1       6.048   6.199  17.789  0.00  0.00    +0.000 C 
BRANCH  21  22
ATOM     22  C   UNL     1       7.200   6.715  16.946  0.00  0.00    +0.000 C 
ATOM     23  O   UNL     1       7.775   7.773  17.160  0.00  0.00    +0.000 OA
BRANCH  22  24
ATOM     24  O   UNL     1       7.538   5.890  15.928  0.00  0.00    +0.000 OA
ATOM     25  H   UNL     1       8.467   5.589  16.041  0.00  0.00    +0.000 HD
ENDBRANCH  22  24
ENDBRANCH  21  22
ENDBRANCH  20  21
ENDBRANCH   7  20
TORSDOF 7
ENDMDL
MODEL 9
REMARK VINA RESULT:      -7.1      1.107      1.280
REMARK  Name = 
REMARK  8 active torsions:
REMARK  status: ('A' for Active; 'I' for Inactive)
REMARK    1  A    between atoms: C_1  and  S_2
REMARK    2  A    between atoms: S_2  and  C_5
REMARK    3  A    between atoms: C_8  and  C_9
REMARK    4  A    between atoms: C_10  and  C_11
REMARK    5  A    between atoms: C_17  and  O_18
REMARK    6  A    between atoms: O_18  and  C_19
REMARK    7  A    between atoms: C_19  and  C_20
REMARK    8  A    between atoms: C_20  and  O_22
REMARK                            x       y       z     vdW  Elec       q    Type
REMARK                         _______ _______ _______ _____ _____    ______ ____
ROOT
ATOM      1  C   UNL     1       3.732   5.666  17.567  0.00  0.00    +0.000 A 
ATOM      2  C   UNL     1       4.718   5.973  16.618  0.00  0.00    +0.000 A 
ATOM      3  C   UNL     1       5.478   4.957  16.043  0.00  0.00    +0.000 A 
ATOM      4 CL   UNL     1       6.639   5.328  14.828  0.00  0.00    +0.000 Cl
ATOM      5  C   UNL     1       5.298   3.634  16.433  0.00  0.00    +0.000 A 
ATOM      6  C   UNL     1       4.332   3.322  17.390  0.00  0.00    +0.000 A 
ATOM      7  C   UNL     1       3.510   4.324  17.931  0.00  0.00    +0.000 A 
ENDROOT
BRANCH   1   9
ATOM      8  C   UNL     1       2.304   7.638  18.591  0.00  0.00    +0.000 C 
ATOM      9  C   UNL     1       2.944   6.746  18.104  0.00  0.00    +0.000 C 
BRANCH   8  13
ATOM     10  C   UNL     1       0.536  10.984  20.457  0.00  0.00    +0.000 A 
ATOM     11  C   UNL     1       0.617   9.775  21.155  0.00  0.00    +0.000 A 
ATOM     12  C   UNL     1       1.162   8.651  20.524  0.00  0.00    +0.000 A 
ATOM     13  C   UNL     1       1.618   8.738  19.203  0.00  0.00    +0.000 A 
ATOM     14  C   UNL     1       1.470   9.933  18.494  0.00  0.00    +0.000 A 
ATOM     15  C   UNL     1       0.929  11.060  19.119  0.00  0.00    +0.000 A 
BRANCH  10  17
ATOM     16  C   UNL     1       1.193  13.628  21.083  0.00  0.00    +0.000 C 
ATOM     17  S   UNL     1      -0.109  12.435  21.261  0.00  0.00    +0.000 S 
ATOM     18  O   UNL     1      -0.246  12.126  22.672  0.00  0.00    +0.000 OA
ATOM     19  O   UNL     1      -1.246  12.892  20.486  0.00  0.00    +0.000 OA
ENDBRANCH  10  17
ENDBRANCH   8  13
ENDBRANCH   1   9
BRANCH   7  20
ATOM     20  O   UNL     1       2.475   4.049  18.801  0.00  0.00    +0.000 OA
BRANCH  20  21
ATOM     21  C   UNL     1       2.773   3.050  19.785  0.00  0.00    +0.000 C 
BRANCH  21  22
ATOM     22  C   UNL     1       1.850   3.165  20.984  0.00  0.00    +0.000 C 
ATOM     23  O   UNL     1       2.237   3.121  22.143  0.00  0.00    +0.000 OA
BRANCH  22  24
ATOM     24  O   UNL     1       0.548   3.325  20.651  0.00  0.00    +0.000 OA
ATOM     25  H   UNL     1       0.362   2.850  19.810  0.00  0.00    +0.000 HD
ENDBRANCH  22  24
ENDBRANCH  21  22
ENDBRANCH  20  21
ENDBRANCH   7  20
TORSDOF 7
ENDMDL
