MODEL 1
REMARK VINA RESULT:      -5.9      0.000      0.000
REMARK  Name = 
REMARK  4 active torsions:
REMARK  status: ('A' for Active; 'I' for Inactive)
REMARK    1  A    between atoms: C_2  and  O_3
REMARK    2  A    between atoms: C_2  and  C_4
REMARK    3  A    between atoms: C_6  and  C_7
REMARK    4  A    between atoms: C_7  and  O_8
REMARK                            x       y       z     vdW  Elec       q    Type
REMARK                         _______ _______ _______ _____ _____    ______ ____
ROOT
ATOM      1  C   UNL     1       3.597   3.498  18.642  0.00  0.00    +0.000 C 
ATOM      2  C   UNL     1       2.330   4.114  19.206  0.00  0.00    +0.000 C 
ATOM      3  C   UNL     1       1.492   3.725  20.182  0.00  0.00    +0.000 C 
ATOM      4  O   UNL     1       2.201   5.447  18.749  0.00  0.00    +0.000 OA
ATOM      5  C   UNL     1       3.586   5.867  18.852  0.00  0.00    +0.000 C 
ATOM      6  C   UNL     1       4.306   6.461  17.642  0.00  0.00    +0.000 C 
ATOM      7  C   UNL     1       5.043   5.120  17.587  0.00  0.00    +0.000 C 
ATOM      8  O   UNL     1       5.748   4.531  16.798  0.00  0.00    +0.000 OA
ATOM      9  N   UNL     1       4.465   4.673  18.746  0.00  0.00    +0.000 N 
ENDROOT
BRANCH   1  11
ATOM     10  O   UNL     1       4.811   2.232  20.330  0.00  0.00    +0.000 OA
ATOM     11  C   UNL     1       4.146   2.234  19.302  0.00  0.00    +0.000 C 
BRANCH  11  12
ATOM     12  O   UNL     1       3.940   1.107  18.575  0.00  0.00    +0.000 OA
ATOM     13  H   UNL     1       4.292   0.325  19.049  0.00  0.00    +0.000 HD
ENDBRANCH  11  12
ENDBRANCH   1  11
BRANCH   3  14
ATOM     14  C   UNL     1       1.622   2.561  21.111  0.00  0.00    +0.000 C 
BRANCH  14  15
ATOM     15  O   UNL     1       2.459   2.970  22.189  0.00  0.00    +0.000 OA
ATOM     16  H   UNL     1       2.039   2.661  23.011  0.00  0.00    +0.000 HD
ENDBRANCH  14  15
ENDBRANCH   3  14
TORSDOF 4
ENDMDL
MODEL 2
REMARK VINA RESULT:      -5.9      1.965      4.581
REMARK  Name = 
REMARK  4 active torsions:
REMARK  status: ('A' for Active; 'I' for Inactive)
REMARK    1  A    between atoms: C_2  and  O_3
REMARK    2  A    between atoms: C_2  and  C_4
REMARK    3  A    between atoms: C_6  and  C_7
REMARK    4  A    between atoms: C_7  and  O_8
REMARK                            x       y       z     vdW  Elec       q    Type
REMARK                         _______ _______ _______ _____ _____    ______ ____
ROOT
ATOM      1  C   UNL     1       5.347   4.938  18.865  0.00  0.00    +0.000 C 
ATOM      2  C   UNL     1       4.841   5.974  17.879  0.00  0.00    +0.000 C 
ATOM      3  C   UNL     1       5.457   6.970  17.219  0.00  0.00    +0.000 C 
ATOM      4  O   UNL     1       3.545   5.620  17.437  0.00  0.00    +0.000 OA
ATOM      5  C   UNL     1       3.726   4.188  17.295  0.00  0.00    +0.000 C 
ATOM      6  C   UNL     1       2.783   3.216  18.004  0.00  0.00    +0.000 C 
ATOM      7  C   UNL     1       3.966   2.958  18.942  0.00  0.00    +0.000 C 
ATOM      8  O   UNL     1       4.142   2.423  20.014  0.00  0.00    +0.000 OA
ATOM      9  N   UNL     1       4.813   3.744  18.206  0.00  0.00    +0.000 N 
ENDROOT
BRANCH   1  11
ATOM     10  O   UNL     1       7.377   5.475  20.098  0.00  0.00    +0.000 OA
ATOM     11  C   UNL     1       6.845   4.889  19.164  0.00  0.00    +0.000 C 
BRANCH  11  12
ATOM     12  O   UNL     1       7.567   4.233  18.222  0.00  0.00    +0.000 OA
ATOM     13  H   UNL     1       8.479   4.589  18.178  0.00  0.00    +0.000 HD
ENDBRANCH  11  12
ENDBRANCH   1  11
BRANCH   3  14
ATOM     14  C   UNL     1       6.913   7.306  17.188  0.00  0.00    +0.000 C 
BRANCH  14  15
ATOM     15  O   UNL     1       7.523   6.459  16.218  0.00  0.00    +0.000 OA
ATOM     16  H   UNL     1       8.482   6.619  16.260  0.00  0.00    +0.000 HD
ENDBRANCH  14  15
ENDBRANCH   3  14
TORSDOF 4
ENDMDL
MODEL 3
REMARK VINA RESULT:      -5.8      1.388      1.456
REMARK  Name = 
REMARK  4 active torsions:
REMARK  status: ('A' for Active; 'I' for Inactive)
REMARK    1  A    between atoms: C_2  and  O_3
REMARK    2  A    between atoms: C_2  and  C_4
REMARK    3  A    between atoms: C_6  and  C_7
REMARK    4  A    between atoms: C_7  and  O_8
REMARK                            x       y       z     vdW  Elec       q    Type
REMARK                         _______ _______ _______ _____ _____    ______ ____
ROOT
ATOM      1  C   UNL     1       4.141   3.335  18.366  0.00  0.00    +0.000 C 
ATOM      2  C   UNL     1       2.830   3.972  17.946  0.00  0.00    +0.000 C 
ATOM      3  C   UNL     1       1.548   3.626  18.156  0.00  0.00    +0.000 C 
ATOM      4  O   UNL     1       3.067   5.281  17.464  0.00  0.00    +0.000 OA
ATOM      5  C   UNL     1       4.063   5.711  18.427  0.00  0.00    +0.000 C 
ATOM      6  C   UNL     1       5.413   6.250  17.955  0.00  0.00    +0.000 C 
ATOM      7  C   UNL     1       5.971   4.911  18.445  0.00  0.00    +0.000 C 
ATOM      8  O   UNL     1       7.002   4.288  18.328  0.00  0.00    +0.000 OA
ATOM      9  N   UNL     1       4.765   4.517  18.965  0.00  0.00    +0.000 N 
ENDROOT
BRANCH   1  11
ATOM     10  O   UNL     1       4.127   2.156  20.496  0.00  0.00    +0.000 OA
ATOM     11  C   UNL     1       4.094   2.106  19.274  0.00  0.00    +0.000 C 
BRANCH  11  12
ATOM     12  O   UNL     1       4.140   0.930  18.600  0.00  0.00    +0.000 OA
ATOM     13  H   UNL     1       3.311   0.425  18.734  0.00  0.00    +0.000 HD
ENDBRANCH  11  12
ENDBRANCH   1  11
BRANCH   3  14
ATOM     14  C   UNL     1       1.010   2.509  18.990  0.00  0.00    +0.000 C 
BRANCH  14  15
ATOM     15  O   UNL     1       0.504   3.082  20.192  0.00  0.00    +0.000 OA
ATOM     16  H   UNL     1      -0.342   2.641  20.386  0.00  0.00    +0.000 HD
ENDBRANCH  14  15
ENDBRANCH   3  14
TORSDOF 4
ENDMDL
MODEL 4
REMARK VINA RESULT:      -5.8      2.314      4.274
REMARK  Name = 
REMARK  4 active torsions:
REMARK  status: ('A' for Active; 'I' for Inactive)
REMARK    1  A    between atoms: C_2  and  O_3
REMARK    2  A    between atoms: C_2  and  C_4
REMARK    3  A    between atoms: C_6  and  C_7
REMARK    4  A    between atoms: C_7  and  O_8
REMARK                            x       y       z     vdW  Elec       q    Type
REMARK                         _______ _______ _______ _____ _____    ______ ____
ROOT
ATOM      1  C   UNL     1       4.519   4.298  17.727  0.00  0.00    +0.000 C 
ATOM      2  C   UNL     1       5.322   4.813  18.907  0.00  0.00    +0.000 C 
ATOM      3  C   UNL     1       6.599   5.218  19.023  0.00  0.00    +0.000 C 
ATOM      4  O   UNL     1       4.453   5.127  19.977  0.00  0.00    +0.000 OA
ATOM      5  C   UNL     1       3.369   5.738  19.230  0.00  0.00    +0.000 C 
ATOM      6  C   UNL     1       1.937   5.227  19.387  0.00  0.00    +0.000 C 
ATOM      7  C   UNL     1       2.140   4.622  17.994  0.00  0.00    +0.000 C 
ATOM      8  O   UNL     1       1.574   3.816  17.290  0.00  0.00    +0.000 OA
ATOM      9  N   UNL     1       3.373   5.202  17.844  0.00  0.00    +0.000 N 
ENDROOT
BRANCH   1  11
ATOM     10  O   UNL     1       5.065   5.170  15.521  0.00  0.00    +0.000 OA
ATOM     11  C   UNL     1       5.181   4.277  16.350  0.00  0.00    +0.000 C 
BRANCH  11  12
ATOM     12  O   UNL     1       5.818   3.113  16.069  0.00  0.00    +0.000 OA
ATOM     13  H   UNL     1       6.454   2.889  16.780  0.00  0.00    +0.000 HD
ENDBRANCH  11  12
ENDBRANCH   1  11
BRANCH   3  14
ATOM     14  C   UNL     1       7.626   5.379  17.950  0.00  0.00    +0.000 C 
BRANCH  14  15
ATOM     15  O   UNL     1       8.214   4.101  17.730  0.00  0.00    +0.000 OA
ATOM     16  H   UNL     1       8.521   4.081  16.807  0.00  0.00    +0.000 HD
ENDBRANCH  14  15
ENDBRANCH   3  14
TORSDOF 4
ENDMDL
MODEL 5
REMARK VINA RESULT:      -5.8      1.456      1.617
REMARK  Name = 
REMARK  4 active torsions:
REMARK  status: ('A' for Active; 'I' for Inactive)
REMARK    1  A    between atoms: C_2  and  O_3
REMARK    2  A    between atoms: C_2  and  C_4
REMARK    3  A    between atoms: C_6  and  C_7
REMARK    4  A    between atoms: C_7  and  O_8
REMARK                            x       y       z     vdW  Elec       q    Type
REMARK                         _______ _______ _______ _____ _____    ______ ____
ROOT
ATOM      1  C   UNL     1       3.446   3.668  18.371  0.00  0.00    +0.000 C 
ATOM      2  C   UNL     1       3.076   4.526  19.567  0.00  0.00    +0.000 C 
ATOM      3  C   UNL     1       2.317   4.287  20.650  0.00  0.00    +0.000 C 
ATOM      4  O   UNL     1       3.901   5.674  19.607  0.00  0.00    +0.000 OA
ATOM      5  C   UNL     1       5.165   5.069  19.231  0.00  0.00    +0.000 C 
ATOM      6  C   UNL     1       5.968   5.624  18.054  0.00  0.00    +0.000 C 
ATOM      7  C   UNL     1       5.503   4.366  17.314  0.00  0.00    +0.000 C 
ATOM      8  O   UNL     1       5.485   3.971  16.170  0.00  0.00    +0.000 OA
ATOM      9  N   UNL     1       4.899   3.847  18.429  0.00  0.00    +0.000 N 
ENDROOT
BRANCH   1  11
ATOM     10  O   UNL     1       3.690   1.261  18.642  0.00  0.00    +0.000 OA
ATOM     11  C   UNL     1       2.979   2.213  18.348  0.00  0.00    +0.000 C 
BRANCH  11  12
ATOM     12  O   UNL     1       1.729   2.051  17.847  0.00  0.00    +0.000 OA
ATOM     13  H   UNL     1       1.425   2.873  17.409  0.00  0.00    +0.000 HD
ENDBRANCH  11  12
ENDBRANCH   1  11
BRANCH   3  14
ATOM     14  C   UNL     1       1.660   3.010  21.064  0.00  0.00    +0.000 C 
BRANCH  14  15
ATOM     15  O   UNL     1       0.379   2.970  20.442  0.00  0.00    +0.000 OA
ATOM     16  H   UNL     1      -0.285   3.085  21.144  0.00  0.00    +0.000 HD
ENDBRANCH  14  15
ENDBRANCH   3  14
TORSDOF 4
ENDMDL
MODEL 6
REMARK VINA RESULT:      -5.7      1.882      2.632
REMARK  Name = 
REMARK  4 active torsions:
REMARK  status: ('A' for Active; 'I' for Inactive)
REMARK    1  A    between atoms: C_2  and  O_3
REMARK    2  A    between atoms: C_2  and  C_4
REMARK    3  A    between atoms: C_6  and  C_7
REMARK    4  A    between atoms: C_7  and  O_8
REMARK                            x       y       z     vdW  Elec       q    Type
REMARK                         _______ _______ _______ _____ _____    ______ ____
ROOT
ATOM      1  C   UNL     1       5.067   4.285  17.666  0.00  0.00    +0.000 C 
ATOM      2  C   UNL     1       4.029   5.366  17.429  0.00  0.00    +0.000 C 
ATOM      3  C   UNL     1       2.737   5.471  17.785  0.00  0.00    +0.000 C 
ATOM      4  O   UNL     1       4.660   6.541  16.960  0.00  0.00    +0.000 OA
ATOM      5  C   UNL     1       5.839   6.530  17.806  0.00  0.00    +0.000 C 
ATOM      6  C   UNL     1       7.235   6.599  17.188  0.00  0.00    +0.000 C 
ATOM      7  C   UNL     1       7.332   5.118  17.566  0.00  0.00    +0.000 C 
ATOM      8  O   UNL     1       8.060   4.186  17.304  0.00  0.00    +0.000 OA
ATOM      9  N   UNL     1       6.127   5.132  18.218  0.00  0.00    +0.000 N 
ENDROOT
BRANCH   1  11
ATOM     10  O   UNL     1       4.971   2.984  19.721  0.00  0.00    +0.000 OA
ATOM     11  C   UNL     1       4.685   3.088  18.536  0.00  0.00    +0.000 C 
BRANCH  11  12
ATOM     12  O   UNL     1       4.102   2.077  17.844  0.00  0.00    +0.000 OA
ATOM     13  H   UNL     1       3.130   2.093  17.966  0.00  0.00    +0.000 HD
ENDBRANCH  11  12
ENDBRANCH   1  11
BRANCH   3  14
ATOM     14  C   UNL     1       1.930   4.554  18.645  0.00  0.00    +0.000 C 
BRANCH  14  15
ATOM     15  O   UNL     1       1.332   3.586  17.789  0.00  0.00    +0.000 OA
ATOM     16  H   UNL     1       1.401   3.925  16.879  0.00  0.00    +0.000 HD
ENDBRANCH  14  15
ENDBRANCH   3  14
TORSDOF 4
ENDMDL
MODEL 7
REMARK VINA RESULT:      -5.7      1.649      4.455
REMARK  Name = 
REMARK  4 active torsions:
REMARK  status: ('A' for Active; 'I' for Inactive)
REMARK    1  A    between atoms: C_2  and  O_3
REMARK    2  A    between atoms: C_2  and  C_4
REMARK    3  A    between atoms: C_6  and  C_7
REMARK    4  A    between atoms: C_7  and  O_8
REMARK                            x       y       z     vdW  Elec       q    Type
REMARK                         _______ _______ _______ _____ _____    ______ ____
ROOT
ATOM      1  C   UNL     1       5.175   4.611  19.108  0.00  0.00    +0.000 C 
ATOM      2  C   UNL     1       4.221   5.478  18.307  0.00  0.00    +0.000 C 
ATOM      3  C   UNL     1       4.423   6.522  17.485  0.00  0.00    +0.000 C 
ATOM      4  O   UNL     1       2.942   4.875  18.272  0.00  0.00    +0.000 OA
ATOM      5  C   UNL     1       3.338   3.490  18.096  0.00  0.00    +0.000 C 
ATOM      6  C   UNL     1       2.838   2.415  19.061  0.00  0.00    +0.000 C 
ATOM      7  C   UNL     1       4.268   2.429  19.609  0.00  0.00    +0.000 C 
ATOM      8  O   UNL     1       4.844   2.003  20.585  0.00  0.00    +0.000 OA
ATOM      9  N   UNL     1       4.705   3.302  18.648  0.00  0.00    +0.000 N 
ENDROOT
BRANCH   1  11
ATOM     10  O   UNL     1       7.346   4.396  18.028  0.00  0.00    +0.000 OA
ATOM     11  C   UNL     1       6.677   4.844  18.949  0.00  0.00    +0.000 C 
BRANCH  11  12
ATOM     12  O   UNL     1       7.240   5.496  19.997  0.00  0.00    +0.000 OA
ATOM     13  H   UNL     1       6.711   5.359  20.811  0.00  0.00    +0.000 HD
ENDBRANCH  11  12
ENDBRANCH   1  11
BRANCH   3  14
ATOM     14  C   UNL     1       5.718   7.105  17.020  0.00  0.00    +0.000 C 
BRANCH  14  15
ATOM     15  O   UNL     1       6.150   6.339  15.899  0.00  0.00    +0.000 OA
ATOM     16  H   UNL     1       6.956   5.865  16.169  0.00  0.00    +0.000 HD
ENDBRANCH  14  15
ENDBRANCH   3  14
TORSDOF 4
ENDMDL
MODEL 8
REMARK VINA RESULT:      -5.7      1.091      1.157
REMARK  Name = 
REMARK  4 active torsions:
REMARK  status: ('A' for Active; 'I' for Inactive)
REMARK    1  A    between atoms: C_2  and  O_3
REMARK    2  A    between atoms: C_2  and  C_4
REMARK    3  A    between atoms: C_6  and  C_7
REMARK    4  A    between atoms: C_7  and  O_8
REMARK                            x       y       z     vdW  Elec       q    Type
REMARK                         _______ _______ _______ _____ _____    ______ ____
ROOT
ATOM      1  C   UNL     1       3.494   3.712  18.200  0.00  0.00    +0.000 C 
ATOM      2  C   UNL     1       2.573   4.788  18.745  0.00  0.00    +0.000 C 
ATOM      3  C   UNL     1       1.819   4.854  19.856  0.00  0.00    +0.000 C 
ATOM      4  O   UNL     1       2.778   5.996  18.039  0.00  0.00    +0.000 OA
ATOM      5  C   UNL     1       4.224   5.958  17.922  0.00  0.00    +0.000 C 
ATOM      6  C   UNL     1       4.892   6.082  16.553  0.00  0.00    +0.000 C 
ATOM      7  C   UNL     1       5.177   4.585  16.703  0.00  0.00    +0.000 C 
ATOM      8  O   UNL     1       5.542   3.679  15.987  0.00  0.00    +0.000 OA
ATOM      9  N   UNL     1       4.679   4.545  17.979  0.00  0.00    +0.000 N 
ENDROOT
BRANCH   1  11
ATOM     10  O   UNL     1       4.685   2.329  19.810  0.00  0.00    +0.000 OA
ATOM     11  C   UNL     1       3.737   2.465  19.049  0.00  0.00    +0.000 C 
BRANCH  11  12
ATOM     12  O   UNL     1       2.869   1.454  18.791  0.00  0.00    +0.000 OA
ATOM     13  H   UNL     1       3.026   0.703  19.401  0.00  0.00    +0.000 HD
ENDBRANCH  11  12
ENDBRANCH   1  11
BRANCH   3  14
ATOM     14  C   UNL     1       1.738   3.880  20.986  0.00  0.00    +0.000 C 
BRANCH  14  15
ATOM     15  O   UNL     1       0.715   2.942  20.664  0.00  0.00    +0.000 OA
ATOM     16  H   UNL     1       0.541   3.022  19.710  0.00  0.00    +0.000 HD
ENDBRANCH  14  15
ENDBRANCH   3  14
TORSDOF 4
ENDMDL
MODEL 9
REMARK VINA RESULT:      -5.6      1.544      3.977
REMARK  Name = 
REMARK  4 active torsions:
REMARK  status: ('A' for Active; 'I' for Inactive)
REMARK    1  A    between atoms: C_2  and  O_3
REMARK    2  A    between atoms: C_2  and  C_4
REMARK    3  A    between atoms: C_6  and  C_7
REMARK    4  A    between atoms: C_7  and  O_8
REMARK                            x       y       z     vdW  Elec       q    Type
REMARK                         _______ _______ _______ _____ _____    ______ ____
ROOT
ATOM      1  C   UNL     1       3.236   3.562  18.956  0.00  0.00    +0.000 C 
ATOM      2  C   UNL     1       4.032   4.776  18.515  0.00  0.00    +0.000 C 
ATOM      3  C   UNL     1       4.747   5.034  17.406  0.00  0.00    +0.000 C 
ATOM      4  O   UNL     1       3.726   5.878  19.347  0.00  0.00    +0.000 OA
ATOM      5  C   UNL     1       2.294   5.682  19.481  0.00  0.00    +0.000 C 
ATOM      6  C   UNL     1       1.652   5.595  20.865  0.00  0.00    +0.000 C 
ATOM      7  C   UNL     1       1.513   4.100  20.562  0.00  0.00    +0.000 C 
ATOM      8  O   UNL     1       1.257   3.092  21.183  0.00  0.00    +0.000 OA
ATOM      9  N   UNL     1       1.980   4.243  19.281  0.00  0.00    +0.000 N 
ENDROOT
BRANCH   1  11
ATOM     10  O   UNL     1       2.132   2.222  17.250  0.00  0.00    +0.000 OA
ATOM     11  C   UNL     1       3.096   2.392  17.983  0.00  0.00    +0.000 C 
BRANCH  11  12
ATOM     12  O   UNL     1       4.089   1.473  18.091  0.00  0.00    +0.000 OA
ATOM     13  H   UNL     1       3.959   0.749  17.444  0.00  0.00    +0.000 HD
ENDBRANCH  11  12
ENDBRANCH   1  11
BRANCH   3  14
ATOM     14  C   UNL     1       4.896   4.196  16.178  0.00  0.00    +0.000 C 
BRANCH  14  15
ATOM     15  O   UNL     1       5.989   3.309  16.399  0.00  0.00    +0.000 OA
ATOM     16  H   UNL     1       6.443   3.194  15.546  0.00  0.00    +0.000 HD
ENDBRANCH  14  15
ENDBRANCH   3  14
TORSDOF 4
ENDMDL
