MODEL 1
REMARK VINA RESULT:      -7.2      0.000      0.000
REMARK  Name = 
REMARK  11 active torsions:
REMARK  status: ('A' for Active; 'I' for Inactive)
REMARK    1  A    between atoms: C_1  and  C_2
REMARK    2  A    between atoms: C_2  and  C_3
REMARK    3  A    between atoms: C_3  and  C_4
REMARK    4  A    between atoms: C_3  and  N_5
REMARK    5  A    between atoms: C_6  and  C_8
REMARK    6  A    between atoms: C_8  and  C_9
REMARK    7  A    between atoms: C_8  and  N_16
REMARK    8  A    between atoms: C_9  and  C_10
REMARK    9  A    between atoms: N_16  and  S_17
REMARK   10  A    between atoms: S_17  and  C_20
REMARK   11  A    between atoms: N_29  and  C_30
REMARK                            x       y       z     vdW  Elec       q    Type
REMARK                         _______ _______ _______ _____ _____    ______ ____
ROOT
ATOM      1  C   UNL     1       5.534   4.170  15.767  0.00  0.00    +0.000 C 
ENDROOT
BRANCH   1   3
ATOM      2  N   UNL     1       6.015   3.218  13.543  0.00  0.00    +0.000 N 
ATOM      3  C   UNL     1       5.702   4.369  14.252  0.00  0.00    +0.000 C 
ATOM      4  O   UNL     1       5.568   5.470  13.724  0.00  0.00    +0.000 OA
ATOM      5  H   UNL     1       6.496   2.473  14.032  0.00  0.00    +0.000 HD
BRANCH   2   6
ATOM      6  C   UNL     1       6.045   3.184  12.080  0.00  0.00    +0.000 C 
ATOM      7  C   UNL     1       4.617   3.035  11.542  0.00  0.00    +0.000 C 
BRANCH   6   9
ATOM      8  C   UNL     1       6.116   0.822  11.078  0.00  0.00    +0.000 C 
ATOM      9  C   UNL     1       6.910   2.032  11.542  0.00  0.00    +0.000 C 
ENDBRANCH   6   9
ENDBRANCH   2   6
ENDBRANCH   1   3
BRANCH   1  10
ATOM     10  N   UNL     1       6.855   4.218  16.466  0.00  0.00    +0.000 NA
ATOM     11  H   UNL     1       7.644   4.193  15.816  0.00  0.00    +0.000 HD
BRANCH  10  12
ATOM     12  S   UNL     1       7.139   5.447  17.617  0.00  0.00    +0.000 S 
ATOM     13  O   UNL     1       7.881   4.838  18.698  0.00  0.00    +0.000 OA
ATOM     14  O   UNL     1       7.608   6.630  16.947  0.00  0.00    +0.000 OA
BRANCH  12  15
ATOM     15  C   UNL     1       5.499   5.768  18.205  0.00  0.00    +0.000 A 
ATOM     16  C   UNL     1       5.008   5.183  19.397  0.00  0.00    +0.000 A 
ATOM     17  C   UNL     1       3.798   5.640  19.956  0.00  0.00    +0.000 A 
ATOM     18  C   UNL     1       3.166   6.693  19.322  0.00  0.00    +0.000 A 
ATOM     19  C   UNL     1       3.666   7.237  18.153  0.00  0.00    +0.000 A 
ATOM     20  C   UNL     1       4.795   6.777  17.541  0.00  0.00    +0.000 A 
ATOM     21  O   UNL     1       2.975   8.344  17.703  0.00  0.00    +0.000 OA
ATOM     22  C   UNL     1       1.997   8.490  18.681  0.00  0.00    +0.000 A 
ATOM     23  O   UNL     1       1.203   9.418  18.687  0.00  0.00    +0.000 OA
ATOM     24  N   UNL     1       2.070   7.475  19.621  0.00  0.00    +0.000 N 
ATOM     25  C   UNL     1       1.102   7.340  20.663  0.00  0.00    +0.000 C 
ENDBRANCH  12  15
ENDBRANCH  10  12
ENDBRANCH   1  10
BRANCH   1  26
ATOM     26  C   UNL     1       4.832   2.824  16.037  0.00  0.00    +0.000 C 
BRANCH  26  27
ATOM     27  C   UNL     1       3.696   2.827  17.051  0.00  0.00    +0.000 A 
ATOM     28  C   UNL     1       2.617   3.721  16.971  0.00  0.00    +0.000 A 
ATOM     29  C   UNL     1       1.530   3.614  17.860  0.00  0.00    +0.000 A 
ATOM     30  C   UNL     1       1.519   2.619  18.835  0.00  0.00    +0.000 A 
ATOM     31  C   UNL     1       2.595   1.744  18.937  0.00  0.00    +0.000 A 
ATOM     32  C   UNL     1       3.673   1.844  18.053  0.00  0.00    +0.000 A 
ENDBRANCH  26  27
ENDBRANCH   1  26
TORSDOF 8
ENDMDL
MODEL 2
REMARK VINA RESULT:      -7.1      1.318      1.794
REMARK  Name = 
REMARK  11 active torsions:
REMARK  status: ('A' for Active; 'I' for Inactive)
REMARK    1  A    between atoms: C_1  and  C_2
REMARK    2  A    between atoms: C_2  and  C_3
REMARK    3  A    between atoms: C_3  and  C_4
REMARK    4  A    between atoms: C_3  and  N_5
REMARK    5  A    between atoms: C_6  and  C_8
REMARK    6  A    between atoms: C_8  and  C_9
REMARK    7  A    between atoms: C_8  and  N_16
REMARK    8  A    between atoms: C_9  and  C_10
REMARK    9  A    between atoms: N_16  and  S_17
REMARK   10  A    between atoms: S_17  and  C_20
REMARK   11  A    between atoms: N_29  and  C_30
REMARK                            x       y       z     vdW  Elec       q    Type
REMARK                         _______ _______ _______ _____ _____    ______ ____
ROOT
ATOM      1  C   UNL     1       4.966   4.209  15.788  0.00  0.00    +0.000 C 
ENDROOT
BRANCH   1   3
ATOM      2  N   UNL     1       4.913   3.454  13.441  0.00  0.00    +0.000 N 
ATOM      3  C   UNL     1       5.701   3.972  14.458  0.00  0.00    +0.000 C 
ATOM      4  O   UNL     1       6.894   4.226  14.323  0.00  0.00    +0.000 OA
ATOM      5  H   UNL     1       4.101   2.905  13.699  0.00  0.00    +0.000 HD
BRANCH   2   6
ATOM      6  C   UNL     1       5.397   3.324  12.066  0.00  0.00    +0.000 C 
ATOM      7  C   UNL     1       4.233   3.542  11.091  0.00  0.00    +0.000 C 
BRANCH   6   9
ATOM      8  C   UNL     1       7.329   2.000  11.015  0.00  0.00    +0.000 C 
ATOM      9  C   UNL     1       6.028   1.946  11.798  0.00  0.00    +0.000 C 
ENDBRANCH   6   9
ENDBRANCH   2   6
ENDBRANCH   1   3
BRANCH   1  10
ATOM     10  N   UNL     1       5.731   5.146  16.666  0.00  0.00    +0.000 NA
ATOM     11  H   UNL     1       6.740   4.984  16.629  0.00  0.00    +0.000 HD
BRANCH  10  12
ATOM     12  S   UNL     1       5.448   6.825  16.531  0.00  0.00    +0.000 S 
ATOM     13  O   UNL     1       6.569   7.486  17.160  0.00  0.00    +0.000 OA
ATOM     14  O   UNL     1       5.044   7.134  15.185  0.00  0.00    +0.000 OA
BRANCH  12  15
ATOM     15  C   UNL     1       4.040   7.033  17.585  0.00  0.00    +0.000 A 
ATOM     16  C   UNL     1       3.840   6.222  18.728  0.00  0.00    +0.000 A 
ATOM     17  C   UNL     1       2.846   6.566  19.667  0.00  0.00    +0.000 A 
ATOM     18  C   UNL     1       2.138   7.731  19.440  0.00  0.00    +0.000 A 
ATOM     19  C   UNL     1       2.350   8.498  18.308  0.00  0.00    +0.000 A 
ATOM     20  C   UNL     1       3.251   8.162  17.340  0.00  0.00    +0.000 A 
ATOM     21  O   UNL     1       1.636   9.678  18.283  0.00  0.00    +0.000 OA
ATOM     22  C   UNL     1       0.956   9.630  19.495  0.00  0.00    +0.000 A 
ATOM     23  O   UNL     1       0.249  10.544  19.892  0.00  0.00    +0.000 OA
ATOM     24  N   UNL     1       1.207   8.445  20.166  0.00  0.00    +0.000 N 
ATOM     25  C   UNL     1       0.536   8.109  21.381  0.00  0.00    +0.000 C 
ENDBRANCH  12  15
ENDBRANCH  10  12
ENDBRANCH   1  10
BRANCH   1  26
ATOM     26  C   UNL     1       4.746   2.862  16.504  0.00  0.00    +0.000 C 
BRANCH  26  27
ATOM     27  C   UNL     1       3.684   2.823  17.596  0.00  0.00    +0.000 A 
ATOM     28  C   UNL     1       3.979   2.477  18.924  0.00  0.00    +0.000 A 
ATOM     29  C   UNL     1       2.993   2.566  19.923  0.00  0.00    +0.000 A 
ATOM     30  C   UNL     1       1.706   2.995  19.602  0.00  0.00    +0.000 A 
ATOM     31  C   UNL     1       1.399   3.317  18.284  0.00  0.00    +0.000 A 
ATOM     32  C   UNL     1       2.377   3.235  17.290  0.00  0.00    +0.000 A 
ENDBRANCH  26  27
ENDBRANCH   1  26
TORSDOF 8
ENDMDL
MODEL 3
REMARK VINA RESULT:      -7.1      0.763      1.160
REMARK  Name = 
REMARK  11 active torsions:
REMARK  status: ('A' for Active; 'I' for Inactive)
REMARK    1  A    between atoms: C_1  and  C_2
REMARK    2  A    between atoms: C_2  and  C_3
REMARK    3  A    between atoms: C_3  and  C_4
REMARK    4  A    between atoms: C_3  and  N_5
REMARK    5  A    between atoms: C_6  and  C_8
REMARK    6  A    between atoms: C_8  and  C_9
REMARK    7  A    between atoms: C_8  and  N_16
REMARK    8  A    between atoms: C_9  and  C_10
REMARK    9  A    between atoms: N_16  and  S_17
REMARK   10  A    between atoms: S_17  and  C_20
REMARK   11  A    between atoms: N_29  and  C_30
REMARK                            x       y       z     vdW  Elec       q    Type
REMARK                         _______ _______ _______ _____ _____    ______ ____
ROOT
ATOM      1  C   UNL     1       5.197   4.215  15.964  0.00  0.00    +0.000 C 
ENDROOT
BRANCH   1   3
ATOM      2  N   UNL     1       5.110   3.527  13.598  0.00  0.00    +0.000 N 
ATOM      3  C   UNL     1       5.802   4.260  14.551  0.00  0.00    +0.000 C 
ATOM      4  O   UNL     1       6.820   4.899  14.303  0.00  0.00    +0.000 OA
ATOM      5  H   UNL     1       4.561   2.735  13.910  0.00  0.00    +0.000 HD
BRANCH   2   6
ATOM      6  C   UNL     1       5.440   3.590  12.173  0.00  0.00    +0.000 C 
ATOM      7  C   UNL     1       4.207   3.208  11.345  0.00  0.00    +0.000 C 
BRANCH   6   9
ATOM      8  C   UNL     1       6.173   1.333  11.195  0.00  0.00    +0.000 C 
ATOM      9  C   UNL     1       6.606   2.657  11.803  0.00  0.00    +0.000 C 
ENDBRANCH   6   9
ENDBRANCH   2   6
ENDBRANCH   1   3
BRANCH   1  10
ATOM     10  N   UNL     1       6.267   4.173  17.007  0.00  0.00    +0.000 NA
ATOM     11  H   UNL     1       7.154   3.816  16.645  0.00  0.00    +0.000 HD
BRANCH  10  12
ATOM     12  S   UNL     1       6.583   5.577  17.927  0.00  0.00    +0.000 S 
ATOM     13  O   UNL     1       7.230   5.138  19.143  0.00  0.00    +0.000 OA
ATOM     14  O   UNL     1       7.164   6.583  17.079  0.00  0.00    +0.000 OA
BRANCH  12  15
ATOM     15  C   UNL     1       4.945   6.100  18.350  0.00  0.00    +0.000 A 
ATOM     16  C   UNL     1       4.332   5.718  19.567  0.00  0.00    +0.000 A 
ATOM     17  C   UNL     1       3.134   6.338  19.975  0.00  0.00    +0.000 A 
ATOM     18  C   UNL     1       2.636   7.344  19.169  0.00  0.00    +0.000 A 
ATOM     19  C   UNL     1       3.253   7.689  17.980  0.00  0.00    +0.000 A 
ATOM     20  C   UNL     1       4.373   7.065  17.514  0.00  0.00    +0.000 A 
ATOM     21  O   UNL     1       2.689   8.777  17.345  0.00  0.00    +0.000 OA
ATOM     22  C   UNL     1       1.670   9.127  18.224  0.00  0.00    +0.000 A 
ATOM     23  O   UNL     1       0.961  10.108  18.055  0.00  0.00    +0.000 OA
ATOM     24  N   UNL     1       1.596   8.243  19.287  0.00  0.00    +0.000 N 
ATOM     25  C   UNL     1       0.558   8.322  20.264  0.00  0.00    +0.000 C 
ENDBRANCH  12  15
ENDBRANCH  10  12
ENDBRANCH   1  10
BRANCH   1  26
ATOM     26  C   UNL     1       4.273   2.987  16.093  0.00  0.00    +0.000 C 
BRANCH  26  27
ATOM     27  C   UNL     1       3.321   2.959  17.281  0.00  0.00    +0.000 A 
ATOM     28  C   UNL     1       3.634   2.306  18.484  0.00  0.00    +0.000 A 
ATOM     29  C   UNL     1       2.777   2.402  19.596  0.00  0.00    +0.000 A 
ATOM     30  C   UNL     1       1.600   3.144  19.511  0.00  0.00    +0.000 A 
ATOM     31  C   UNL     1       1.271   3.775  18.316  0.00  0.00    +0.000 A 
ATOM     32  C   UNL     1       2.122   3.686  17.212  0.00  0.00    +0.000 A 
ENDBRANCH  26  27
ENDBRANCH   1  26
TORSDOF 8
ENDMDL
MODEL 4
REMARK VINA RESULT:      -7.1      2.101      6.896
REMARK  Name = 
REMARK  11 active torsions:
REMARK  status: ('A' for Active; 'I' for Inactive)
REMARK    1  A    between atoms: C_1  and  C_2
REMARK    2  A    between atoms: C_2  and  C_3
REMARK    3  A    between atoms: C_3  and  C_4
REMARK    4  A    between atoms: C_3  and  N_5
REMARK    5  A    between atoms: C_6  and  C_8
REMARK    6  A    between atoms: C_8  and  C_9
REMARK    7  A    between atoms: C_8  and  N_16
REMARK    8  A    between atoms: C_9  and  C_10
REMARK    9  A    between atoms: N_16  and  S_17
REMARK   10  A    between atoms: S_17  and  C_20
REMARK   11  A    between atoms: N_29  and  C_30
REMARK                            x       y       z     vdW  Elec       q    Type
REMARK                         _______ _______ _______ _____ _____    ______ ____
ROOT
ATOM      1  C   UNL     1       3.097   6.829  19.231  0.00  0.00    +0.000 C 
ENDROOT
BRANCH   1   3
ATOM      2  N   UNL     1       1.512   8.683  18.879  0.00  0.00    +0.000 N 
ATOM      3  C   UNL     1       2.517   7.914  18.310  0.00  0.00    +0.000 C 
ATOM      4  O   UNL     1       2.921   8.075  17.163  0.00  0.00    +0.000 OA
ATOM      5  H   UNL     1       0.959   8.274  19.622  0.00  0.00    +0.000 HD
BRANCH   2   6
ATOM      6  C   UNL     1       0.962   9.867  18.214  0.00  0.00    +0.000 C 
ATOM      7  C   UNL     1       1.804  11.096  18.578  0.00  0.00    +0.000 C 
BRANCH   6   9
ATOM      8  C   UNL     1      -1.485   9.992  17.452  0.00  0.00    +0.000 C 
ATOM      9  C   UNL     1      -0.503  10.126  18.603  0.00  0.00    +0.000 C 
ENDBRANCH   6   9
ENDBRANCH   2   6
ENDBRANCH   1   3
BRANCH   1  10
ATOM     10  N   UNL     1       3.512   5.625  18.448  0.00  0.00    +0.000 NA
ATOM     11  H   UNL     1       3.488   5.785  17.439  0.00  0.00    +0.000 HD
BRANCH  10  12
ATOM     12  S   UNL     1       4.983   4.849  18.838  0.00  0.00    +0.000 S 
ATOM     13  O   UNL     1       5.872   5.874  19.337  0.00  0.00    +0.000 OA
ATOM     14  O   UNL     1       4.708   3.653  19.589  0.00  0.00    +0.000 OA
BRANCH  12  15
ATOM     15  C   UNL     1       5.565   4.367  17.237  0.00  0.00    +0.000 A 
ATOM     16  C   UNL     1       4.846   3.454  16.428  0.00  0.00    +0.000 A 
ATOM     17  C   UNL     1       5.210   3.276  15.078  0.00  0.00    +0.000 A 
ATOM     18  C   UNL     1       6.242   4.057  14.592  0.00  0.00    +0.000 A 
ATOM     19  C   UNL     1       6.932   4.933  15.411  0.00  0.00    +0.000 A 
ATOM     20  C   UNL     1       6.659   5.083  16.739  0.00  0.00    +0.000 A 
ATOM     21  O   UNL     1       7.864   5.709  14.751  0.00  0.00    +0.000 OA
ATOM     22  C   UNL     1       7.713   5.284  13.436  0.00  0.00    +0.000 A 
ATOM     23  O   UNL     1       8.326   5.786  12.506  0.00  0.00    +0.000 OA
ATOM     24  N   UNL     1       6.787   4.258  13.342  0.00  0.00    +0.000 N 
ATOM     25  C   UNL     1       6.541   3.575  12.112  0.00  0.00    +0.000 C 
ENDBRANCH  12  15
ENDBRANCH  10  12
ENDBRANCH   1  10
BRANCH   1  26
ATOM     26  C   UNL     1       2.054   6.442  20.298  0.00  0.00    +0.000 C 
BRANCH  26  27
ATOM     27  C   UNL     1       1.724   4.962  20.440  0.00  0.00    +0.000 A 
ATOM     28  C   UNL     1       1.070   4.236  19.432  0.00  0.00    +0.000 A 
ATOM     29  C   UNL     1       0.888   2.846  19.554  0.00  0.00    +0.000 A 
ATOM     30  C   UNL     1       1.351   2.175  20.685  0.00  0.00    +0.000 A 
ATOM     31  C   UNL     1       1.977   2.891  21.699  0.00  0.00    +0.000 A 
ATOM     32  C   UNL     1       2.165   4.270  21.579  0.00  0.00    +0.000 A 
ENDBRANCH  26  27
ENDBRANCH   1  26
TORSDOF 8
ENDMDL
MODEL 5
REMARK VINA RESULT:      -7.0      1.812      7.115
REMARK  Name = 
REMARK  11 active torsions:
REMARK  status: ('A' for Active; 'I' for Inactive)
REMARK    1  A    between atoms: C_1  and  C_2
REMARK    2  A    between atoms: C_2  and  C_3
REMARK    3  A    between atoms: C_3  and  C_4
REMARK    4  A    between atoms: C_3  and  N_5
REMARK    5  A    between atoms: C_6  and  C_8
REMARK    6  A    between atoms: C_8  and  C_9
REMARK    7  A    between atoms: C_8  and  N_16
REMARK    8  A    between atoms: C_9  and  C_10
REMARK    9  A    between atoms: N_16  and  S_17
REMARK   10  A    between atoms: S_17  and  C_20
REMARK   11  A    between atoms: N_29  and  C_30
REMARK                            x       y       z     vdW  Elec       q    Type
REMARK                         _______ _______ _______ _____ _____    ______ ____
ROOT
ATOM      1  C   UNL     1       3.127   6.915  18.465  0.00  0.00    +0.000 C 
ENDROOT
BRANCH   1   3
ATOM      2  N   UNL     1       1.528   8.482  19.497  0.00  0.00    +0.000 N 
ATOM      3  C   UNL     1       2.237   8.163  18.348  0.00  0.00    +0.000 C 
ATOM      4  O   UNL     1       2.168   8.816  17.311  0.00  0.00    +0.000 OA
ATOM      5  H   UNL     1       1.304   7.735  20.143  0.00  0.00    +0.000 HD
BRANCH   2   6
ATOM      6  C   UNL     1       0.766   9.725  19.626  0.00  0.00    +0.000 C 
ATOM      7  C   UNL     1       1.567  10.883  19.017  0.00  0.00    +0.000 C 
BRANCH   6   9
ATOM      8  C   UNL     1      -0.247   8.927  21.846  0.00  0.00    +0.000 C 
ATOM      9  C   UNL     1       0.435  10.057  21.091  0.00  0.00    +0.000 C 
ENDBRANCH   6   9
ENDBRANCH   2   6
ENDBRANCH   1   3
BRANCH   1  10
ATOM     10  N   UNL     1       4.424   7.111  17.748  0.00  0.00    +0.000 NA
ATOM     11  H   UNL     1       4.720   8.089  17.732  0.00  0.00    +0.000 HD
BRANCH  10  12
ATOM     12  S   UNL     1       5.765   6.146  18.183  0.00  0.00    +0.000 S 
ATOM     13  O   UNL     1       6.908   7.030  18.243  0.00  0.00    +0.000 OA
ATOM     14  O   UNL     1       5.405   5.297  19.286  0.00  0.00    +0.000 OA
BRANCH  12  15
ATOM     15  C   UNL     1       5.950   5.127  16.747  0.00  0.00    +0.000 A 
ATOM     16  C   UNL     1       5.035   4.088  16.450  0.00  0.00    +0.000 A 
ATOM     17  C   UNL     1       5.075   3.457  15.190  0.00  0.00    +0.000 A 
ATOM     18  C   UNL     1       5.994   3.932  14.273  0.00  0.00    +0.000 A 
ATOM     19  C   UNL     1       6.881   4.944  14.597  0.00  0.00    +0.000 A 
ATOM     20  C   UNL     1       6.923   5.531  15.827  0.00  0.00    +0.000 A 
ATOM     21  O   UNL     1       7.662   5.370  13.542  0.00  0.00    +0.000 OA
ATOM     22  C   UNL     1       7.201   4.571  12.501  0.00  0.00    +0.000 A 
ATOM     23  O   UNL     1       7.601   4.688  11.352  0.00  0.00    +0.000 OA
ATOM     24  N   UNL     1       6.245   3.672  12.942  0.00  0.00    +0.000 N 
ATOM     25  C   UNL     1       5.702   2.667  12.085  0.00  0.00    +0.000 C 
ENDBRANCH  12  15
ENDBRANCH  10  12
ENDBRANCH   1  10
BRANCH   1  26
ATOM     26  C   UNL     1       2.380   5.691  17.898  0.00  0.00    +0.000 C 
BRANCH  26  27
ATOM     27  C   UNL     1       1.926   4.634  18.896  0.00  0.00    +0.000 A 
ATOM     28  C   UNL     1       1.418   3.388  18.496  0.00  0.00    +0.000 A 
ATOM     29  C   UNL     1       1.119   2.397  19.449  0.00  0.00    +0.000 A 
ATOM     30  C   UNL     1       1.319   2.647  20.806  0.00  0.00    +0.000 A 
ATOM     31  C   UNL     1       1.799   3.887  21.212  0.00  0.00    +0.000 A 
ATOM     32  C   UNL     1       2.102   4.871  20.269  0.00  0.00    +0.000 A 
ENDBRANCH  26  27
ENDBRANCH   1  26
TORSDOF 8
ENDMDL
MODEL 6
REMARK VINA RESULT:      -7.0      2.126      3.722
REMARK  Name = 
REMARK  11 active torsions:
REMARK  status: ('A' for Active; 'I' for Inactive)
REMARK    1  A    between atoms: C_1  and  C_2
REMARK    2  A    between atoms: C_2  and  C_3
REMARK    3  A    between atoms: C_3  and  C_4
REMARK    4  A    between atoms: C_3  and  N_5
REMARK    5  A    between atoms: C_6  and  C_8
REMARK    6  A    between atoms: C_8  and  C_9
REMARK    7  A    between atoms: C_8  and  N_16
REMARK    8  A    between atoms: C_9  and  C_10
REMARK    9  A    between atoms: N_16  and  S_17
REMARK   10  A    between atoms: S_17  and  C_20
REMARK   11  A    between atoms: N_29  and  C_30
REMARK                            x       y       z     vdW  Elec       q    Type
REMARK                         _______ _______ _______ _____ _____    ______ ____
ROOT
ATOM      1  C   UNL     1       5.680   3.868  16.075  0.00  0.00    +0.000 C 
ENDROOT
BRANCH   1   3
ATOM      2  N   UNL     1       6.145   3.352  13.710  0.00  0.00    +0.000 N 
ATOM      3  C   UNL     1       5.642   4.291  14.598  0.00  0.00    +0.000 C 
ATOM      4  O   UNL     1       5.197   5.380  14.247  0.00  0.00    +0.000 OA
ATOM      5  H   UNL     1       6.837   2.695  14.051  0.00  0.00    +0.000 HD
BRANCH   2   6
ATOM      6  C   UNL     1       6.035   3.510  12.258  0.00  0.00    +0.000 C 
ATOM      7  C   UNL     1       4.600   3.196  11.817  0.00  0.00    +0.000 C 
BRANCH   6   9
ATOM      8  C   UNL     1       6.406   1.268  11.064  0.00  0.00    +0.000 C 
ATOM      9  C   UNL     1       7.008   2.594  11.497  0.00  0.00    +0.000 C 
ENDBRANCH   6   9
ENDBRANCH   2   6
ENDBRANCH   1   3
BRANCH   1  10
ATOM     10  N   UNL     1       4.701   4.655  16.886  0.00  0.00    +0.000 NA
ATOM     11  H   UNL     1       4.243   5.390  16.343  0.00  0.00    +0.000 HD
BRANCH  10  12
ATOM     12  S   UNL     1       3.512   3.824  17.787  0.00  0.00    +0.000 S 
ATOM     13  O   UNL     1       2.616   3.216  16.828  0.00  0.00    +0.000 OA
ATOM     14  O   UNL     1       4.148   3.055  18.823  0.00  0.00    +0.000 OA
BRANCH  12  15
ATOM     15  C   UNL     1       2.647   5.164  18.555  0.00  0.00    +0.000 A 
ATOM     16  C   UNL     1       2.375   5.176  19.944  0.00  0.00    +0.000 A 
ATOM     17  C   UNL     1       1.900   6.353  20.557  0.00  0.00    +0.000 A 
ATOM     18  C   UNL     1       1.771   7.474  19.758  0.00  0.00    +0.000 A 
ATOM     19  C   UNL     1       2.036   7.429  18.401  0.00  0.00    +0.000 A 
ATOM     20  C   UNL     1       2.428   6.292  17.757  0.00  0.00    +0.000 A 
ATOM     21  O   UNL     1       1.956   8.653  17.769  0.00  0.00    +0.000 OA
ATOM     22  C   UNL     1       1.637   9.502  18.822  0.00  0.00    +0.000 A 
ATOM     23  O   UNL     1       1.541  10.712  18.689  0.00  0.00    +0.000 OA
ATOM     24  N   UNL     1       1.469   8.797  20.003  0.00  0.00    +0.000 N 
ATOM     25  C   UNL     1       1.027   9.431  21.204  0.00  0.00    +0.000 C 
ENDBRANCH  12  15
ENDBRANCH  10  12
ENDBRANCH   1  10
BRANCH   1  26
ATOM     26  C   UNL     1       7.107   4.050  16.630  0.00  0.00    +0.000 C 
BRANCH  26  27
ATOM     27  C   UNL     1       7.398   5.344  17.378  0.00  0.00    +0.000 A 
ATOM     28  C   UNL     1       7.867   5.362  18.701  0.00  0.00    +0.000 A 
ATOM     29  C   UNL     1       8.234   6.573  19.315  0.00  0.00    +0.000 A 
ATOM     30  C   UNL     1       8.129   7.774  18.615  0.00  0.00    +0.000 A 
ATOM     31  C   UNL     1       7.643   7.769  17.312  0.00  0.00    +0.000 A 
ATOM     32  C   UNL     1       7.283   6.567  16.697  0.00  0.00    +0.000 A 
ENDBRANCH  26  27
ENDBRANCH   1  26
TORSDOF 8
ENDMDL
MODEL 7
REMARK VINA RESULT:      -6.9      0.681      1.343
REMARK  Name = 
REMARK  11 active torsions:
REMARK  status: ('A' for Active; 'I' for Inactive)
REMARK    1  A    between atoms: C_1  and  C_2
REMARK    2  A    between atoms: C_2  and  C_3
REMARK    3  A    between atoms: C_3  and  C_4
REMARK    4  A    between atoms: C_3  and  N_5
REMARK    5  A    between atoms: C_6  and  C_8
REMARK    6  A    between atoms: C_8  and  C_9
REMARK    7  A    between atoms: C_8  and  N_16
REMARK    8  A    between atoms: C_9  and  C_10
REMARK    9  A    between atoms: N_16  and  S_17
REMARK   10  A    between atoms: S_17  and  C_20
REMARK   11  A    between atoms: N_29  and  C_30
REMARK                            x       y       z     vdW  Elec       q    Type
REMARK                         _______ _______ _______ _____ _____    ______ ____
ROOT
ATOM      1  C   UNL     1       5.714   4.001  15.847  0.00  0.00    +0.000 C 
ENDROOT
BRANCH   1   3
ATOM      2  N   UNL     1       5.587   3.027  13.586  0.00  0.00    +0.000 N 
ATOM      3  C   UNL     1       6.069   4.077  14.353  0.00  0.00    +0.000 C 
ATOM      4  O   UNL     1       6.730   5.001  13.890  0.00  0.00    +0.000 OA
ATOM      5  H   UNL     1       5.422   2.138  14.043  0.00  0.00    +0.000 HD
BRANCH   2   6
ATOM      6  C   UNL     1       5.681   3.018  12.125  0.00  0.00    +0.000 C 
ATOM      7  C   UNL     1       7.029   3.608  11.695  0.00  0.00    +0.000 C 
BRANCH   6   9
ATOM      8  C   UNL     1       3.483   2.957  10.801  0.00  0.00    +0.000 C 
ATOM      9  C   UNL     1       4.545   3.818  11.463  0.00  0.00    +0.000 C 
ENDBRANCH   6   9
ENDBRANCH   2   6
ENDBRANCH   1   3
BRANCH   1  10
ATOM     10  N   UNL     1       6.938   4.121  16.698  0.00  0.00    +0.000 NA
ATOM     11  H   UNL     1       7.798   3.936  16.176  0.00  0.00    +0.000 HD
BRANCH  10  12
ATOM     12  S   UNL     1       7.163   5.534  17.631  0.00  0.00    +0.000 S 
ATOM     13  O   UNL     1       7.900   5.138  18.810  0.00  0.00    +0.000 OA
ATOM     14  O   UNL     1       7.613   6.602  16.778  0.00  0.00    +0.000 OA
BRANCH  12  15
ATOM     15  C   UNL     1       5.504   5.897  18.131  0.00  0.00    +0.000 A 
ATOM     16  C   UNL     1       4.973   5.418  19.353  0.00  0.00    +0.000 A 
ATOM     17  C   UNL     1       3.743   5.917  19.827  0.00  0.00    +0.000 A 
ATOM     18  C   UNL     1       3.131   6.906  19.080  0.00  0.00    +0.000 A 
ATOM     19  C   UNL     1       3.670   7.347  17.885  0.00  0.00    +0.000 A 
ATOM     20  C   UNL     1       4.821   6.840  17.355  0.00  0.00    +0.000 A 
ATOM     21  O   UNL     1       2.993   8.406  17.315  0.00  0.00    +0.000 OA
ATOM     22  C   UNL     1       1.982   8.633  18.242  0.00  0.00    +0.000 A 
ATOM     23  O   UNL     1       1.185   9.554  18.138  0.00  0.00    +0.000 OA
ATOM     24  N   UNL     1       2.024   7.706  19.270  0.00  0.00    +0.000 N 
ATOM     25  C   UNL     1       1.021   7.659  20.286  0.00  0.00    +0.000 C 
ENDBRANCH  12  15
ENDBRANCH  10  12
ENDBRANCH   1  10
BRANCH   1  26
ATOM     26  C   UNL     1       4.985   2.675  16.140  0.00  0.00    +0.000 C 
BRANCH  26  27
ATOM     27  C   UNL     1       3.778   2.738  17.066  0.00  0.00    +0.000 A 
ATOM     28  C   UNL     1       3.660   1.931  18.208  0.00  0.00    +0.000 A 
ATOM     29  C   UNL     1       2.585   2.103  19.099  0.00  0.00    +0.000 A 
ATOM     30  C   UNL     1       1.618   3.075  18.851  0.00  0.00    +0.000 A 
ATOM     31  C   UNL     1       1.713   3.863  17.708  0.00  0.00    +0.000 A 
ATOM     32  C   UNL     1       2.783   3.699  16.825  0.00  0.00    +0.000 A 
ENDBRANCH  26  27
ENDBRANCH   1  26
TORSDOF 8
ENDMDL
MODEL 8
REMARK VINA RESULT:      -6.9      5.652      9.282
REMARK  Name = 
REMARK  11 active torsions:
REMARK  status: ('A' for Active; 'I' for Inactive)
REMARK    1  A    between atoms: C_1  and  C_2
REMARK    2  A    between atoms: C_2  and  C_3
REMARK    3  A    between atoms: C_3  and  C_4
REMARK    4  A    between atoms: C_3  and  N_5
REMARK    5  A    between atoms: C_6  and  C_8
REMARK    6  A    between atoms: C_8  and  C_9
REMARK    7  A    between atoms: C_8  and  N_16
REMARK    8  A    between atoms: C_9  and  C_10
REMARK    9  A    between atoms: N_16  and  S_17
REMARK   10  A    between atoms: S_17  and  C_20
REMARK   11  A    between atoms: N_29  and  C_30
REMARK                            x       y       z     vdW  Elec       q    Type
REMARK                         _______ _______ _______ _____ _____    ______ ____
ROOT
ATOM      1  C   UNL     1       0.473   9.734  19.066  0.00  0.00    +0.000 C 
ENDROOT
BRANCH   1   3
ATOM      2  N   UNL     1      -1.567  10.152  17.745  0.00  0.00    +0.000 N 
ATOM      3  C   UNL     1      -0.501  10.732  18.418  0.00  0.00    +0.000 C 
ATOM      4  O   UNL     1      -0.335  11.945  18.498  0.00  0.00    +0.000 OA
ATOM      5  H   UNL     1      -1.444   9.218  17.372  0.00  0.00    +0.000 HD
BRANCH   2   6
ATOM      6  C   UNL     1      -2.680  10.941  17.214  0.00  0.00    +0.000 C 
ATOM      7  C   UNL     1      -4.008  10.335  17.685  0.00  0.00    +0.000 C 
BRANCH   6   9
ATOM      8  C   UNL     1      -3.386   9.845  15.004  0.00  0.00    +0.000 C 
ATOM      9  C   UNL     1      -2.670  11.003  15.678  0.00  0.00    +0.000 C 
ENDBRANCH   6   9
ENDBRANCH   2   6
ENDBRANCH   1   3
BRANCH   1  10
ATOM     10  N   UNL     1       1.084  10.306  20.304  0.00  0.00    +0.000 NA
ATOM     11  H   UNL     1       1.115  11.328  20.291  0.00  0.00    +0.000 HD
BRANCH  10  12
ATOM     12  S   UNL     1       0.498   9.802  21.827  0.00  0.00    +0.000 S 
ATOM     13  O   UNL     1      -0.447   8.737  21.575  0.00  0.00    +0.000 OA
ATOM     14  O   UNL     1       1.603   9.636  22.733  0.00  0.00    +0.000 OA
BRANCH  12  15
ATOM     15  C   UNL     1      -0.421  11.224  22.342  0.00  0.00    +0.000 A 
ATOM     16  C   UNL     1      -0.148  12.514  21.826  0.00  0.00    +0.000 A 
ATOM     17  C   UNL     1      -1.044  13.574  22.076  0.00  0.00    +0.000 A 
ATOM     18  C   UNL     1      -2.192  13.278  22.786  0.00  0.00    +0.000 A 
ATOM     19  C   UNL     1      -2.426  12.010  23.285  0.00  0.00    +0.000 A 
ATOM     20  C   UNL     1      -1.552  10.975  23.128  0.00  0.00    +0.000 A 
ATOM     21  O   UNL     1      -3.661  11.856  23.882  0.00  0.00    +0.000 OA
ATOM     22  C   UNL     1      -4.221  13.118  23.715  0.00  0.00    +0.000 A 
ATOM     23  O   UNL     1      -5.364  13.383  24.056  0.00  0.00    +0.000 OA
ATOM     24  N   UNL     1      -3.328  13.988  23.112  0.00  0.00    +0.000 N 
ATOM     25  C   UNL     1      -3.628  15.374  22.935  0.00  0.00    +0.000 C 
ENDBRANCH  12  15
ENDBRANCH  10  12
ENDBRANCH   1  10
BRANCH   1  26
ATOM     26  C   UNL     1       1.571   9.351  18.053  0.00  0.00    +0.000 C 
BRANCH  26  27
ATOM     27  C   UNL     1       2.386   8.101  18.357  0.00  0.00    +0.000 A 
ATOM     28  C   UNL     1       2.132   7.286  19.471  0.00  0.00    +0.000 A 
ATOM     29  C   UNL     1       2.832   6.079  19.651  0.00  0.00    +0.000 A 
ATOM     30  C   UNL     1       3.795   5.683  18.724  0.00  0.00    +0.000 A 
ATOM     31  C   UNL     1       4.071   6.496  17.630  0.00  0.00    +0.000 A 
ATOM     32  C   UNL     1       3.373   7.692  17.445  0.00  0.00    +0.000 A 
ENDBRANCH  26  27
ENDBRANCH   1  26
TORSDOF 8
ENDMDL
MODEL 9
REMARK VINA RESULT:      -6.8      4.405      7.132
REMARK  Name = 
REMARK  11 active torsions:
REMARK  status: ('A' for Active; 'I' for Inactive)
REMARK    1  A    between atoms: C_1  and  C_2
REMARK    2  A    between atoms: C_2  and  C_3
REMARK    3  A    between atoms: C_3  and  C_4
REMARK    4  A    between atoms: C_3  and  N_5
REMARK    5  A    between atoms: C_6  and  C_8
REMARK    6  A    between atoms: C_8  and  C_9
REMARK    7  A    between atoms: C_8  and  N_16
REMARK    8  A    between atoms: C_9  and  C_10
REMARK    9  A    between atoms: N_16  and  S_17
REMARK   10  A    between atoms: S_17  and  C_20
REMARK   11  A    between atoms: N_29  and  C_30
REMARK                            x       y       z     vdW  Elec       q    Type
REMARK                         _______ _______ _______ _____ _____    ______ ____
ROOT
ATOM      1  C   UNL     1       2.632   7.229  18.809  0.00  0.00    +0.000 C 
ENDROOT
BRANCH   1   3
ATOM      2  N   UNL     1       1.838   4.926  19.193  0.00  0.00    +0.000 N 
ATOM      3  C   UNL     1       1.945   6.203  19.725  0.00  0.00    +0.000 C 
ATOM      4  O   UNL     1       1.528   6.505  20.839  0.00  0.00    +0.000 OA
ATOM      5  H   UNL     1       1.815   4.830  18.185  0.00  0.00    +0.000 HD
BRANCH   2   6
ATOM      6  C   UNL     1       1.370   3.786  19.982  0.00  0.00    +0.000 C 
ATOM      7  C   UNL     1       2.476   3.342  20.947  0.00  0.00    +0.000 C 
BRANCH   6   9
ATOM      8  C   UNL     1       2.051   2.120  18.153  0.00  0.00    +0.000 C 
ATOM      9  C   UNL     1       0.962   2.594  19.099  0.00  0.00    +0.000 C 
ENDBRANCH   6   9
ENDBRANCH   2   6
ENDBRANCH   1   3
BRANCH   1  10
ATOM     10  N   UNL     1       1.631   8.153  18.191  0.00  0.00    +0.000 NA
ATOM     11  H   UNL     1       0.711   7.720  18.085  0.00  0.00    +0.000 HD
BRANCH  10  12
ATOM     12  S   UNL     1       1.423   9.713  18.855  0.00  0.00    +0.000 S 
ATOM     13  O   UNL     1       1.525   9.570  20.290  0.00  0.00    +0.000 OA
ATOM     14  O   UNL     1       2.233  10.652  18.127  0.00  0.00    +0.000 OA
BRANCH  12  15
ATOM     15  C   UNL     1      -0.273  10.039  18.466  0.00  0.00    +0.000 A 
ATOM     16  C   UNL     1      -1.031  10.994  19.186  0.00  0.00    +0.000 A 
ATOM     17  C   UNL     1      -2.293  11.396  18.704  0.00  0.00    +0.000 A 
ATOM     18  C   UNL     1      -2.711  10.861  17.501  0.00  0.00    +0.000 A 
ATOM     19  C   UNL     1      -1.952   9.922  16.825  0.00  0.00    +0.000 A 
ATOM     20  C   UNL     1      -0.759   9.453  17.293  0.00  0.00    +0.000 A 
ATOM     21  O   UNL     1      -2.460   9.564  15.593  0.00  0.00    +0.000 OA
ATOM     22  C   UNL     1      -3.599  10.356  15.510  0.00  0.00    +0.000 A 
ATOM     23  O   UNL     1      -4.312  10.386  14.518  0.00  0.00    +0.000 OA
ATOM     24  N   UNL     1      -3.786  11.092  16.668  0.00  0.00    +0.000 N 
ATOM     25  C   UNL     1      -4.949  11.897  16.872  0.00  0.00    +0.000 C 
ENDBRANCH  12  15
ENDBRANCH  10  12
ENDBRANCH   1  10
BRANCH   1  26
ATOM     26  C   UNL     1       3.431   6.494  17.715  0.00  0.00    +0.000 C 
BRANCH  26  27
ATOM     27  C   UNL     1       4.930   6.339  17.939  0.00  0.00    +0.000 A 
ATOM     28  C   UNL     1       5.882   7.032  17.176  0.00  0.00    +0.000 A 
ATOM     29  C   UNL     1       7.251   6.949  17.491  0.00  0.00    +0.000 A 
ATOM     30  C   UNL     1       7.677   6.169  18.565  0.00  0.00    +0.000 A 
ATOM     31  C   UNL     1       6.742   5.460  19.312  0.00  0.00    +0.000 A 
ATOM     32  C   UNL     1       5.381   5.545  19.005  0.00  0.00    +0.000 A 
ENDBRANCH  26  27
ENDBRANCH   1  26
TORSDOF 8
ENDMDL
