MODEL 1
REMARK VINA RESULT:      -8.1      0.000      0.000
REMARK  Name = 
REMARK  4 active torsions:
REMARK  status: ('A' for Active; 'I' for Inactive)
REMARK    1  A    between atoms: C_2  and  C_3
REMARK    2  A    between atoms: C_7  and  S_8
REMARK    3  A    between atoms: S_8  and  N_11
REMARK    4  A    between atoms: C_22  and  C_23
REMARK                            x       y       z     vdW  Elec       q    Type
REMARK                         _______ _______ _______ _____ _____    ______ ____
ROOT
ATOM      1  O   UNL     1       1.434   9.976  21.984  0.00  0.00    +0.000 OA
ATOM      2  C   UNL     1       0.812   9.844  20.928  0.00  0.00    +0.000 C 
ATOM      3  N   UNL     1      -0.375  10.536  20.680  0.00  0.00    +0.000 N 
ATOM      4  C   UNL     1      -1.264  10.403  19.528  0.00  0.00    +0.000 C 
ATOM      5  C   UNL     1      -1.208  11.687  18.696  0.00  0.00    +0.000 C 
ATOM      6  C   UNL     1      -1.564  12.903  19.565  0.00  0.00    +0.000 C 
ATOM      7  C   UNL     1      -0.731  12.996  20.872  0.00  0.00    +0.000 C 
ATOM      8  C   UNL     1      -0.752  11.625  21.585  0.00  0.00    +0.000 C 
ENDROOT
BRANCH   7   9
ATOM      9  C   UNL     1       0.662  13.538  20.603  0.00  0.00    +0.000 A 
ATOM     10  N   UNL     1       1.665  13.440  21.453  0.00  0.00    +0.000 NA
ATOM     11  C   UNL     1       2.789  14.068  20.951  0.00  0.00    +0.000 A 
ATOM     12  C   UNL     1       4.051  14.131  21.575  0.00  0.00    +0.000 A 
ATOM     13  C   UNL     1       5.075  14.883  20.993  0.00  0.00    +0.000 A 
ATOM     14  C   UNL     1       4.833  15.625  19.840  0.00  0.00    +0.000 A 
ATOM     15  C   UNL     1       3.602  15.542  19.179  0.00  0.00    +0.000 A 
ATOM     16  C   UNL     1       2.614  14.703  19.722  0.00  0.00    +0.000 A 
ATOM     17  S   UNL     1       1.089  14.223  19.080  0.00  0.00    +0.000 S 
ENDBRANCH   7   9
BRANCH   2  18
ATOM     18  C   UNL     1       1.405   8.924  19.910  0.00  0.00    +0.000 A 
ATOM     19  C   UNL     1       1.815   9.356  18.640  0.00  0.00    +0.000 A 
ATOM     20  C   UNL     1       2.365   8.499  17.710  0.00  0.00    +0.000 A 
ATOM     21  C   UNL     1       2.583   7.187  18.053  0.00  0.00    +0.000 A 
ATOM     22  C   UNL     1       2.229   6.728  19.340  0.00  0.00    +0.000 A 
ATOM     23  C   UNL     1       1.637   7.588  20.264  0.00  0.00    +0.000 A 
BRANCH  22  24
ATOM     24  S   UNL     1       2.400   5.000  19.676  0.00  0.00    +0.000 S 
ATOM     25  O   UNL     1       2.583   4.856  21.111  0.00  0.00    +0.000 OA
ATOM     26  O   UNL     1       1.288   4.341  19.004  0.00  0.00    +0.000 OA
BRANCH  24  27
ATOM     27  N   UNL     1       3.827   4.530  18.882  0.00  0.00    +0.000 NA
ATOM     28  C   UNL     1       3.665   4.172  17.454  0.00  0.00    +0.000 C 
ATOM     29  C   UNL     1       4.954   3.631  16.850  0.00  0.00    +0.000 C 
ATOM     30  C   UNL     1       6.122   4.565  17.116  0.00  0.00    +0.000 C 
ATOM     31  C   UNL     1       6.292   4.755  18.614  0.00  0.00    +0.000 C 
ATOM     32  C   UNL     1       5.029   5.320  19.249  0.00  0.00    +0.000 C 
ENDBRANCH  24  27
ENDBRANCH  22  24
ENDBRANCH   2  18
TORSDOF 4
ENDMDL
MODEL 2
REMARK VINA RESULT:      -8.1      5.573      8.396
REMARK  Name = 
REMARK  4 active torsions:
REMARK  status: ('A' for Active; 'I' for Inactive)
REMARK    1  A    between atoms: C_2  and  C_3
REMARK    2  A    between atoms: C_7  and  S_8
REMARK    3  A    between atoms: S_8  and  N_11
REMARK    4  A    between atoms: C_22  and  C_23
REMARK                            x       y       z     vdW  Elec       q    Type
REMARK                         _______ _______ _______ _____ _____    ______ ____
ROOT
ATOM      1  O   UNL     1      -4.189  12.124  24.753  0.00  0.00    +0.000 OA
ATOM      2  C   UNL     1      -4.503  12.979  23.924  0.00  0.00    +0.000 C 
ATOM      3  N   UNL     1      -3.845  14.208  23.845  0.00  0.00    +0.000 N 
ATOM      4  C   UNL     1      -4.173  15.346  22.989  0.00  0.00    +0.000 C 
ATOM      5  C   UNL     1      -3.070  15.525  21.943  0.00  0.00    +0.000 C 
ATOM      6  C   UNL     1      -1.706  15.690  22.628  0.00  0.00    +0.000 C 
ATOM      7  C   UNL     1      -1.386  14.569  23.653  0.00  0.00    +0.000 C 
ATOM      8  C   UNL     1      -2.597  14.382  24.594  0.00  0.00    +0.000 C 
ENDROOT
BRANCH   7   9
ATOM      9  C   UNL     1      -0.934  13.297  22.958  0.00  0.00    +0.000 A 
ATOM     10  N   UNL     1      -1.206  12.084  23.398  0.00  0.00    +0.000 NA
ATOM     11  C   UNL     1      -0.621  11.131  22.584  0.00  0.00    +0.000 A 
ATOM     12  C   UNL     1      -0.730   9.735  22.733  0.00  0.00    +0.000 A 
ATOM     13  C   UNL     1      -0.006   8.888  21.890  0.00  0.00    +0.000 A 
ATOM     14  C   UNL     1       0.875   9.419  20.951  0.00  0.00    +0.000 A 
ATOM     15  C   UNL     1       0.965  10.802  20.754  0.00  0.00    +0.000 A 
ATOM     16  C   UNL     1       0.156  11.637  21.542  0.00  0.00    +0.000 A 
ATOM     17  S   UNL     1      -0.124  13.335  21.437  0.00  0.00    +0.000 S 
ENDBRANCH   7   9
BRANCH   2  18
ATOM     18  C   UNL     1      -5.610  12.627  22.984  0.00  0.00    +0.000 A 
ATOM     19  C   UNL     1      -6.902  12.290  23.418  0.00  0.00    +0.000 A 
ATOM     20  C   UNL     1      -7.917  11.971  22.540  0.00  0.00    +0.000 A 
ATOM     21  C   UNL     1      -7.683  12.046  21.188  0.00  0.00    +0.000 A 
ATOM     22  C   UNL     1      -6.410  12.431  20.714  0.00  0.00    +0.000 A 
ATOM     23  C   UNL     1      -5.376  12.714  21.604  0.00  0.00    +0.000 A 
BRANCH  22  24
ATOM     24  S   UNL     1      -6.127  12.371  18.969  0.00  0.00    +0.000 S 
ATOM     25  O   UNL     1      -7.216  11.608  18.381  0.00  0.00    +0.000 OA
ATOM     26  O   UNL     1      -5.874  13.743  18.549  0.00  0.00    +0.000 OA
BRANCH  24  27
ATOM     27  N   UNL     1      -4.676  11.505  18.783  0.00  0.00    +0.000 NA
ATOM     28  C   UNL     1      -4.640  10.573  17.632  0.00  0.00    +0.000 C 
ATOM     29  C   UNL     1      -3.368   9.737  17.611  0.00  0.00    +0.000 C 
ATOM     30  C   UNL     1      -2.132  10.611  17.728  0.00  0.00    +0.000 C 
ATOM     31  C   UNL     1      -2.198  11.422  19.012  0.00  0.00    +0.000 C 
ATOM     32  C   UNL     1      -3.446  12.291  19.055  0.00  0.00    +0.000 C 
ENDBRANCH  24  27
ENDBRANCH  22  24
ENDBRANCH   2  18
TORSDOF 4
ENDMDL
MODEL 3
REMARK VINA RESULT:      -8.0      0.782      1.086
REMARK  Name = 
REMARK  4 active torsions:
REMARK  status: ('A' for Active; 'I' for Inactive)
REMARK    1  A    between atoms: C_2  and  C_3
REMARK    2  A    between atoms: C_7  and  S_8
REMARK    3  A    between atoms: S_8  and  N_11
REMARK    4  A    between atoms: C_22  and  C_23
REMARK                            x       y       z     vdW  Elec       q    Type
REMARK                         _______ _______ _______ _____ _____    ______ ____
ROOT
ATOM      1  O   UNL     1       1.451  10.003  21.902  0.00  0.00    +0.000 OA
ATOM      2  C   UNL     1       0.803   9.818  20.871  0.00  0.00    +0.000 C 
ATOM      3  N   UNL     1      -0.427  10.440  20.652  0.00  0.00    +0.000 N 
ATOM      4  C   UNL     1      -1.347  10.238  19.533  0.00  0.00    +0.000 C 
ATOM      5  C   UNL     1      -1.388  11.507  18.678  0.00  0.00    +0.000 C 
ATOM      6  C   UNL     1      -1.781  12.717  19.538  0.00  0.00    +0.000 C 
ATOM      7  C   UNL     1      -0.912  12.880  20.814  0.00  0.00    +0.000 C 
ATOM      8  C   UNL     1      -0.833  11.524  21.551  0.00  0.00    +0.000 C 
ENDROOT
BRANCH   7   9
ATOM      9  C   UNL     1       0.439  13.492  20.489  0.00  0.00    +0.000 A 
ATOM     10  N   UNL     1       1.032  13.383  19.316  0.00  0.00    +0.000 NA
ATOM     11  C   UNL     1       2.269  13.999  19.338  0.00  0.00    +0.000 A 
ATOM     12  C   UNL     1       3.159  14.108  18.252  0.00  0.00    +0.000 A 
ATOM     13  C   UNL     1       4.421  14.678  18.445  0.00  0.00    +0.000 A 
ATOM     14  C   UNL     1       4.825  15.075  19.716  0.00  0.00    +0.000 A 
ATOM     15  C   UNL     1       3.941  15.019  20.800  0.00  0.00    +0.000 A 
ATOM     16  C   UNL     1       2.642  14.536  20.570  0.00  0.00    +0.000 A 
ATOM     17  S   UNL     1       1.266  14.510  21.608  0.00  0.00    +0.000 S 
ENDBRANCH   7   9
BRANCH   2  18
ATOM     18  C   UNL     1       1.411   8.913  19.849  0.00  0.00    +0.000 A 
ATOM     19  C   UNL     1       1.812   9.357  18.579  0.00  0.00    +0.000 A 
ATOM     20  C   UNL     1       2.376   8.513  17.645  0.00  0.00    +0.000 A 
ATOM     21  C   UNL     1       2.618   7.204  17.983  0.00  0.00    +0.000 A 
ATOM     22  C   UNL     1       2.274   6.734  19.270  0.00  0.00    +0.000 A 
ATOM     23  C   UNL     1       1.668   7.580  20.197  0.00  0.00    +0.000 A 
BRANCH  22  24
ATOM     24  S   UNL     1       2.477   5.008  19.599  0.00  0.00    +0.000 S 
ATOM     25  O   UNL     1       2.687   4.864  21.031  0.00  0.00    +0.000 OA
ATOM     26  O   UNL     1       1.365   4.334  18.944  0.00  0.00    +0.000 OA
BRANCH  24  27
ATOM     27  N   UNL     1       3.898   4.562  18.780  0.00  0.00    +0.000 NA
ATOM     28  C   UNL     1       3.729   4.262  17.340  0.00  0.00    +0.000 C 
ATOM     29  C   UNL     1       5.011   3.738  16.709  0.00  0.00    +0.000 C 
ATOM     30  C   UNL     1       6.186   4.654  17.008  0.00  0.00    +0.000 C 
ATOM     31  C   UNL     1       6.364   4.783  18.512  0.00  0.00    +0.000 C 
ATOM     32  C   UNL     1       5.107   5.329  19.173  0.00  0.00    +0.000 C 
ENDBRANCH  24  27
ENDBRANCH  22  24
ENDBRANCH   2  18
TORSDOF 4
ENDMDL
MODEL 4
REMARK VINA RESULT:      -8.0      0.870      1.256
REMARK  Name = 
REMARK  4 active torsions:
REMARK  status: ('A' for Active; 'I' for Inactive)
REMARK    1  A    between atoms: C_2  and  C_3
REMARK    2  A    between atoms: C_7  and  S_8
REMARK    3  A    between atoms: S_8  and  N_11
REMARK    4  A    between atoms: C_22  and  C_23
REMARK                            x       y       z     vdW  Elec       q    Type
REMARK                         _______ _______ _______ _____ _____    ______ ____
ROOT
ATOM      1  O   UNL     1       1.430  10.087  21.915  0.00  0.00    +0.000 OA
ATOM      2  C   UNL     1       0.743   9.970  20.899  0.00  0.00    +0.000 C 
ATOM      3  N   UNL     1      -0.550  10.489  20.819  0.00  0.00    +0.000 N 
ATOM      4  C   UNL     1      -1.509  10.339  19.726  0.00  0.00    +0.000 C 
ATOM      5  C   UNL     1      -1.718  11.695  19.048  0.00  0.00    +0.000 C 
ATOM      6  C   UNL     1      -2.171  12.743  20.076  0.00  0.00    +0.000 C 
ATOM      7  C   UNL     1      -1.248  12.829  21.322  0.00  0.00    +0.000 C 
ATOM      8  C   UNL     1      -1.002  11.405  21.870  0.00  0.00    +0.000 C 
ENDROOT
BRANCH   7   9
ATOM      9  C   UNL     1       0.019  13.608  21.018  0.00  0.00    +0.000 A 
ATOM     10  N   UNL     1       1.178  13.383  21.607  0.00  0.00    +0.000 NA
ATOM     11  C   UNL     1       2.130  14.281  21.161  0.00  0.00    +0.000 A 
ATOM     12  C   UNL     1       3.484  14.313  21.548  0.00  0.00    +0.000 A 
ATOM     13  C   UNL     1       4.314  15.338  21.087  0.00  0.00    +0.000 A 
ATOM     14  C   UNL     1       3.792  16.364  20.303  0.00  0.00    +0.000 A 
ATOM     15  C   UNL     1       2.462  16.329  19.868  0.00  0.00    +0.000 A 
ATOM     16  C   UNL     1       1.666  15.238  20.259  0.00  0.00    +0.000 A 
ATOM     17  S   UNL     1       0.080  14.785  19.760  0.00  0.00    +0.000 S 
ENDBRANCH   7   9
BRANCH   2  18
ATOM     18  C   UNL     1       1.373   9.266  19.740  0.00  0.00    +0.000 A 
ATOM     19  C   UNL     1       1.581   9.881  18.496  0.00  0.00    +0.000 A 
ATOM     20  C   UNL     1       2.167   9.222  17.435  0.00  0.00    +0.000 A 
ATOM     21  C   UNL     1       2.625   7.939  17.612  0.00  0.00    +0.000 A 
ATOM     22  C   UNL     1       2.478   7.306  18.865  0.00  0.00    +0.000 A 
ATOM     23  C   UNL     1       1.850   7.960  19.923  0.00  0.00    +0.000 A 
BRANCH  22  24
ATOM     24  S   UNL     1       2.956   5.608  18.993  0.00  0.00    +0.000 S 
ATOM     25  O   UNL     1       3.051   5.292  20.409  0.00  0.00    +0.000 OA
ATOM     26  O   UNL     1       2.051   4.863  18.128  0.00  0.00    +0.000 OA
BRANCH  24  27
ATOM     27  N   UNL     1       4.506   5.528  18.299  0.00  0.00    +0.000 NA
ATOM     28  C   UNL     1       5.619   5.347  19.260  0.00  0.00    +0.000 C 
ATOM     29  C   UNL     1       6.979   5.423  18.581  0.00  0.00    +0.000 C 
ATOM     30  C   UNL     1       7.050   4.493  17.382  0.00  0.00    +0.000 C 
ATOM     31  C   UNL     1       5.956   4.853  16.391  0.00  0.00    +0.000 C 
ATOM     32  C   UNL     1       4.577   4.762  17.030  0.00  0.00    +0.000 C 
ENDBRANCH  24  27
ENDBRANCH  22  24
ENDBRANCH   2  18
TORSDOF 4
ENDMDL
MODEL 5
REMARK VINA RESULT:      -7.9      5.138      8.719
REMARK  Name = 
REMARK  4 active torsions:
REMARK  status: ('A' for Active; 'I' for Inactive)
REMARK    1  A    between atoms: C_2  and  C_3
REMARK    2  A    between atoms: C_7  and  S_8
REMARK    3  A    between atoms: S_8  and  N_11
REMARK    4  A    between atoms: C_22  and  C_23
REMARK                            x       y       z     vdW  Elec       q    Type
REMARK                         _______ _______ _______ _____ _____    ______ ____
ROOT
ATOM      1  O   UNL     1      -0.710  13.329  18.251  0.00  0.00    +0.000 OA
ATOM      2  C   UNL     1      -0.844  12.109  18.358  0.00  0.00    +0.000 C 
ATOM      3  N   UNL     1       0.054  11.330  19.090  0.00  0.00    +0.000 N 
ATOM      4  C   UNL     1       0.079   9.874  19.217  0.00  0.00    +0.000 C 
ATOM      5  C   UNL     1      -0.283   9.488  20.654  0.00  0.00    +0.000 C 
ATOM      6  C   UNL     1       0.669  10.172  21.647  0.00  0.00    +0.000 C 
ATOM      7  C   UNL     1       0.776  11.707  21.446  0.00  0.00    +0.000 C 
ATOM      8  C   UNL     1       1.028  12.007  19.951  0.00  0.00    +0.000 C 
ENDROOT
BRANCH   7   9
ATOM      9  C   UNL     1      -0.426  12.426  22.032  0.00  0.00    +0.000 A 
ATOM     10  N   UNL     1      -0.767  13.661  21.720  0.00  0.00    +0.000 NA
ATOM     11  C   UNL     1      -1.873  14.058  22.449  0.00  0.00    +0.000 A 
ATOM     12  C   UNL     1      -2.529  15.300  22.348  0.00  0.00    +0.000 A 
ATOM     13  C   UNL     1      -3.581  15.601  23.218  0.00  0.00    +0.000 A 
ATOM     14  C   UNL     1      -3.936  14.709  24.226  0.00  0.00    +0.000 A 
ATOM     15  C   UNL     1      -3.329  13.451  24.316  0.00  0.00    +0.000 A 
ATOM     16  C   UNL     1      -2.341  13.123  23.372  0.00  0.00    +0.000 A 
ATOM     17  S   UNL     1      -1.542  11.625  23.075  0.00  0.00    +0.000 S 
ENDBRANCH   7   9
BRANCH   2  18
ATOM     18  C   UNL     1      -2.033  11.503  17.687  0.00  0.00    +0.000 A 
ATOM     19  C   UNL     1      -1.929  10.511  16.700  0.00  0.00    +0.000 A 
ATOM     20  C   UNL     1      -3.035   9.956  16.090  0.00  0.00    +0.000 A 
ATOM     21  C   UNL     1      -4.290  10.334  16.503  0.00  0.00    +0.000 A 
ATOM     22  C   UNL     1      -4.433  11.293  17.529  0.00  0.00    +0.000 A 
ATOM     23  C   UNL     1      -3.314  11.881  18.115  0.00  0.00    +0.000 A 
BRANCH  22  24
ATOM     24  S   UNL     1      -6.068  11.846  17.919  0.00  0.00    +0.000 S 
ATOM     25  O   UNL     1      -6.476  12.761  16.865  0.00  0.00    +0.000 OA
ATOM     26  O   UNL     1      -6.848  10.648  18.200  0.00  0.00    +0.000 OA
BRANCH  24  27
ATOM     27  N   UNL     1      -5.912  12.706  19.376  0.00  0.00    +0.000 NA
ATOM     28  C   UNL     1      -6.361  14.117  19.327  0.00  0.00    +0.000 C 
ATOM     29  C   UNL     1      -6.063  14.858  20.623  0.00  0.00    +0.000 C 
ATOM     30  C   UNL     1      -6.583  14.093  21.828  0.00  0.00    +0.000 C 
ATOM     31  C   UNL     1      -5.954  12.710  21.866  0.00  0.00    +0.000 C 
ATOM     32  C   UNL     1      -6.254  11.930  20.594  0.00  0.00    +0.000 C 
ENDBRANCH  24  27
ENDBRANCH  22  24
ENDBRANCH   2  18
TORSDOF 4
ENDMDL
MODEL 6
REMARK VINA RESULT:      -7.8      2.694      4.592
REMARK  Name = 
REMARK  4 active torsions:
REMARK  status: ('A' for Active; 'I' for Inactive)
REMARK    1  A    between atoms: C_2  and  C_3
REMARK    2  A    between atoms: C_7  and  S_8
REMARK    3  A    between atoms: S_8  and  N_11
REMARK    4  A    between atoms: C_22  and  C_23
REMARK                            x       y       z     vdW  Elec       q    Type
REMARK                         _______ _______ _______ _____ _____    ______ ____
ROOT
ATOM      1  O   UNL     1      -1.319  10.655  18.695  0.00  0.00    +0.000 OA
ATOM      2  C   UNL     1      -0.165  10.901  19.050  0.00  0.00    +0.000 C 
ATOM      3  N   UNL     1       0.452  12.119  18.761  0.00  0.00    +0.000 N 
ATOM      4  C   UNL     1       1.837  12.506  19.026  0.00  0.00    +0.000 C 
ATOM      5  C   UNL     1       1.858  13.594  20.102  0.00  0.00    +0.000 C 
ATOM      6  C   UNL     1       0.996  14.790  19.670  0.00  0.00    +0.000 C 
ATOM      7  C   UNL     1      -0.443  14.394  19.244  0.00  0.00    +0.000 C 
ATOM      8  C   UNL     1      -0.371  13.216  18.246  0.00  0.00    +0.000 C 
ENDROOT
BRANCH   7   9
ATOM      9  C   UNL     1      -1.326  14.134  20.452  0.00  0.00    +0.000 A 
ATOM     10  N   UNL     1      -1.118  14.665  21.641  0.00  0.00    +0.000 NA
ATOM     11  C   UNL     1      -2.056  14.206  22.548  0.00  0.00    +0.000 A 
ATOM     12  C   UNL     1      -2.157  14.588  23.900  0.00  0.00    +0.000 A 
ATOM     13  C   UNL     1      -3.099  13.969  24.726  0.00  0.00    +0.000 A 
ATOM     14  C   UNL     1      -3.887  12.930  24.238  0.00  0.00    +0.000 A 
ATOM     15  C   UNL     1      -3.836  12.565  22.888  0.00  0.00    +0.000 A 
ATOM     16  C   UNL     1      -2.955  13.265  22.045  0.00  0.00    +0.000 A 
ATOM     17  S   UNL     1      -2.777  13.211  20.332  0.00  0.00    +0.000 S 
ENDBRANCH   7   9
BRANCH   2  18
ATOM     18  C   UNL     1       0.537   9.838  19.832  0.00  0.00    +0.000 A 
ATOM     19  C   UNL     1       0.545   9.804  21.235  0.00  0.00    +0.000 A 
ATOM     20  C   UNL     1       1.193   8.815  21.946  0.00  0.00    +0.000 A 
ATOM     21  C   UNL     1       1.800   7.787  21.267  0.00  0.00    +0.000 A 
ATOM     22  C   UNL     1       1.768   7.761  19.855  0.00  0.00    +0.000 A 
ATOM     23  C   UNL     1       1.147   8.783  19.139  0.00  0.00    +0.000 A 
BRANCH  22  24
ATOM     24  S   UNL     1       2.687   6.493  19.032  0.00  0.00    +0.000 S 
ATOM     25  O   UNL     1       2.564   6.731  17.603  0.00  0.00    +0.000 OA
ATOM     26  O   UNL     1       3.998   6.462  19.667  0.00  0.00    +0.000 OA
BRANCH  24  27
ATOM     27  N   UNL     1       1.894   5.042  19.426  0.00  0.00    +0.000 NA
ATOM     28  C   UNL     1       1.664   4.120  18.290  0.00  0.00    +0.000 C 
ATOM     29  C   UNL     1       0.831   2.912  18.693  0.00  0.00    +0.000 C 
ATOM     30  C   UNL     1       1.406   2.232  19.924  0.00  0.00    +0.000 C 
ATOM     31  C   UNL     1       1.469   3.224  21.073  0.00  0.00    +0.000 C 
ATOM     32  C   UNL     1       2.317   4.436  20.714  0.00  0.00    +0.000 C 
ENDBRANCH  24  27
ENDBRANCH  22  24
ENDBRANCH   2  18
TORSDOF 4
ENDMDL
MODEL 7
REMARK VINA RESULT:      -7.8      2.689      4.646
REMARK  Name = 
REMARK  4 active torsions:
REMARK  status: ('A' for Active; 'I' for Inactive)
REMARK    1  A    between atoms: C_2  and  C_3
REMARK    2  A    between atoms: C_7  and  S_8
REMARK    3  A    between atoms: S_8  and  N_11
REMARK    4  A    between atoms: C_22  and  C_23
REMARK                            x       y       z     vdW  Elec       q    Type
REMARK                         _______ _______ _______ _____ _____    ______ ____
ROOT
ATOM      1  O   UNL     1      -1.344  10.657  18.832  0.00  0.00    +0.000 OA
ATOM      2  C   UNL     1      -0.161  10.879  19.096  0.00  0.00    +0.000 C 
ATOM      3  N   UNL     1       0.466  12.071  18.729  0.00  0.00    +0.000 N 
ATOM      4  C   UNL     1       1.876  12.426  18.883  0.00  0.00    +0.000 C 
ATOM      5  C   UNL     1       2.004  13.541  19.924  0.00  0.00    +0.000 C 
ATOM      6  C   UNL     1       1.144  14.748  19.522  0.00  0.00    +0.000 C 
ATOM      7  C   UNL     1      -0.332  14.383  19.212  0.00  0.00    +0.000 C 
ATOM      8  C   UNL     1      -0.364  13.178  18.245  0.00  0.00    +0.000 C 
ENDROOT
BRANCH   7   9
ATOM      9  C   UNL     1      -1.131  14.180  20.487  0.00  0.00    +0.000 A 
ATOM     10  N   UNL     1      -2.201  13.414  20.570  0.00  0.00    +0.000 NA
ATOM     11  C   UNL     1      -2.739  13.467  21.842  0.00  0.00    +0.000 A 
ATOM     12  C   UNL     1      -3.862  12.749  22.297  0.00  0.00    +0.000 A 
ATOM     13  C   UNL     1      -4.353  12.974  23.587  0.00  0.00    +0.000 A 
ATOM     14  C   UNL     1      -3.780  13.952  24.395  0.00  0.00    +0.000 A 
ATOM     15  C   UNL     1      -2.636  14.645  23.982  0.00  0.00    +0.000 A 
ATOM     16  C   UNL     1      -2.095  14.337  22.722  0.00  0.00    +0.000 A 
ATOM     17  S   UNL     1      -0.618  14.845  21.993  0.00  0.00    +0.000 S 
ENDBRANCH   7   9
BRANCH   2  18
ATOM     18  C   UNL     1       0.568   9.818  19.855  0.00  0.00    +0.000 A 
ATOM     19  C   UNL     1       0.624   9.785  21.257  0.00  0.00    +0.000 A 
ATOM     20  C   UNL     1       1.296   8.798  21.947  0.00  0.00    +0.000 A 
ATOM     21  C   UNL     1       1.880   7.769  21.248  0.00  0.00    +0.000 A 
ATOM     22  C   UNL     1       1.801   7.742  19.838  0.00  0.00    +0.000 A 
ATOM     23  C   UNL     1       1.155   8.762  19.143  0.00  0.00    +0.000 A 
BRANCH  22  24
ATOM     24  S   UNL     1       2.693   6.474  18.986  0.00  0.00    +0.000 S 
ATOM     25  O   UNL     1       2.545   6.726  17.562  0.00  0.00    +0.000 OA
ATOM     26  O   UNL     1       4.015   6.426  19.595  0.00  0.00    +0.000 OA
BRANCH  24  27
ATOM     27  N   UNL     1       1.896   5.026  19.382  0.00  0.00    +0.000 NA
ATOM     28  C   UNL     1       1.688   4.091  18.252  0.00  0.00    +0.000 C 
ATOM     29  C   UNL     1       0.850   2.885  18.653  0.00  0.00    +0.000 C 
ATOM     30  C   UNL     1       1.402   2.221  19.903  0.00  0.00    +0.000 C 
ATOM     31  C   UNL     1       1.442   3.226  21.042  0.00  0.00    +0.000 C 
ATOM     32  C   UNL     1       2.295   4.436  20.684  0.00  0.00    +0.000 C 
ENDBRANCH  24  27
ENDBRANCH  22  24
ENDBRANCH   2  18
TORSDOF 4
ENDMDL
MODEL 8
REMARK VINA RESULT:      -7.8      1.498      2.204
REMARK  Name = 
REMARK  4 active torsions:
REMARK  status: ('A' for Active; 'I' for Inactive)
REMARK    1  A    between atoms: C_2  and  C_3
REMARK    2  A    between atoms: C_7  and  S_8
REMARK    3  A    between atoms: S_8  and  N_11
REMARK    4  A    between atoms: C_22  and  C_23
REMARK                            x       y       z     vdW  Elec       q    Type
REMARK                         _______ _______ _______ _____ _____    ______ ____
ROOT
ATOM      1  O   UNL     1       1.120  10.294  21.706  0.00  0.00    +0.000 OA
ATOM      2  C   UNL     1       0.582  10.042  20.626  0.00  0.00    +0.000 C 
ATOM      3  N   UNL     1      -0.611  10.651  20.237  0.00  0.00    +0.000 N 
ATOM      4  C   UNL     1      -1.410  10.376  19.043  0.00  0.00    +0.000 C 
ATOM      5  C   UNL     1      -1.347  11.584  18.105  0.00  0.00    +0.000 C 
ATOM      6  C   UNL     1      -1.816  12.852  18.835  0.00  0.00    +0.000 C 
ATOM      7  C   UNL     1      -1.085  13.098  20.182  0.00  0.00    +0.000 C 
ATOM      8  C   UNL     1      -1.099  11.795  21.013  0.00  0.00    +0.000 C 
ENDROOT
BRANCH   7   9
ATOM      9  C   UNL     1       0.299  13.682  19.962  0.00  0.00    +0.000 A 
ATOM     10  N   UNL     1       0.784  13.996  18.776  0.00  0.00    +0.000 NA
ATOM     11  C   UNL     1       2.082  14.457  18.889  0.00  0.00    +0.000 A 
ATOM     12  C   UNL     1       2.894  14.913  17.832  0.00  0.00    +0.000 A 
ATOM     13  C   UNL     1       4.224  15.263  18.081  0.00  0.00    +0.000 A 
ATOM     14  C   UNL     1       4.767  15.097  19.352  0.00  0.00    +0.000 A 
ATOM     15  C   UNL     1       3.969  14.689  20.426  0.00  0.00    +0.000 A 
ATOM     16  C   UNL     1       2.608  14.437  20.181  0.00  0.00    +0.000 A 
ATOM     17  S   UNL     1       1.322  14.113  21.281  0.00  0.00    +0.000 S 
ENDBRANCH   7   9
BRANCH   2  18
ATOM     18  C   UNL     1       1.286   9.067  19.737  0.00  0.00    +0.000 A 
ATOM     19  C   UNL     1       1.503   9.301  18.371  0.00  0.00    +0.000 A 
ATOM     20  C   UNL     1       2.157   8.396  17.561  0.00  0.00    +0.000 A 
ATOM     21  C   UNL     1       2.675   7.251  18.116  0.00  0.00    +0.000 A 
ATOM     22  C   UNL     1       2.520   7.006  19.498  0.00  0.00    +0.000 A 
ATOM     23  C   UNL     1       1.824   7.904  20.305  0.00  0.00    +0.000 A 
BRANCH  22  24
ATOM     24  S   UNL     1       3.080   5.451  20.128  0.00  0.00    +0.000 S 
ATOM     25  O   UNL     1       4.528   5.429  19.995  0.00  0.00    +0.000 OA
ATOM     26  O   UNL     1       2.456   5.292  21.435  0.00  0.00    +0.000 OA
BRANCH  24  27
ATOM     27  N   UNL     1       2.406   4.282  19.095  0.00  0.00    +0.000 NA
ATOM     28  C   UNL     1       3.360   3.642  18.160  0.00  0.00    +0.000 C 
ATOM     29  C   UNL     1       2.661   2.712  17.178  0.00  0.00    +0.000 C 
ATOM     30  C   UNL     1       1.758   1.726  17.899  0.00  0.00    +0.000 C 
ATOM     31  C   UNL     1       0.726   2.484  18.718  0.00  0.00    +0.000 C 
ATOM     32  C   UNL     1       1.391   3.406  19.730  0.00  0.00    +0.000 C 
ENDBRANCH  24  27
ENDBRANCH  22  24
ENDBRANCH   2  18
TORSDOF 4
ENDMDL
MODEL 9
REMARK VINA RESULT:      -7.8      5.215      7.889
REMARK  Name = 
REMARK  4 active torsions:
REMARK  status: ('A' for Active; 'I' for Inactive)
REMARK    1  A    between atoms: C_2  and  C_3
REMARK    2  A    between atoms: C_7  and  S_8
REMARK    3  A    between atoms: S_8  and  N_11
REMARK    4  A    between atoms: C_22  and  C_23
REMARK                            x       y       z     vdW  Elec       q    Type
REMARK                         _______ _______ _______ _____ _____    ______ ____
ROOT
ATOM      1  O   UNL     1      -6.107  10.556  20.020  0.00  0.00    +0.000 OA
ATOM      2  C   UNL     1      -5.924  11.353  19.098  0.00  0.00    +0.000 C 
ATOM      3  N   UNL     1      -6.841  12.362  18.801  0.00  0.00    +0.000 N 
ATOM      4  C   UNL     1      -6.805  13.305  17.684  0.00  0.00    +0.000 C 
ATOM      5  C   UNL     1      -6.549  14.714  18.223  0.00  0.00    +0.000 C 
ATOM      6  C   UNL     1      -7.615  15.090  19.264  0.00  0.00    +0.000 C 
ATOM      7  C   UNL     1      -7.779  14.037  20.392  0.00  0.00    +0.000 C 
ATOM      8  C   UNL     1      -7.917  12.634  19.759  0.00  0.00    +0.000 C 
ENDROOT
BRANCH   7   9
ATOM      9  C   UNL     1      -6.667  14.150  21.420  0.00  0.00    +0.000 A 
ATOM     10  N   UNL     1      -6.198  13.130  22.111  0.00  0.00    +0.000 NA
ATOM     11  C   UNL     1      -5.229  13.551  23.001  0.00  0.00    +0.000 A 
ATOM     12  C   UNL     1      -4.490  12.727  23.873  0.00  0.00    +0.000 A 
ATOM     13  C   UNL     1      -3.605  13.303  24.789  0.00  0.00    +0.000 A 
ATOM     14  C   UNL     1      -3.504  14.687  24.890  0.00  0.00    +0.000 A 
ATOM     15  C   UNL     1      -4.192  15.524  24.005  0.00  0.00    +0.000 A 
ATOM     16  C   UNL     1      -5.002  14.927  23.023  0.00  0.00    +0.000 A 
ATOM     17  S   UNL     1      -5.821  15.630  21.680  0.00  0.00    +0.000 S 
ENDBRANCH   7   9
BRANCH   2  18
ATOM     18  C   UNL     1      -4.653  11.204  18.326  0.00  0.00    +0.000 A 
ATOM     19  C   UNL     1      -4.623  10.863  16.965  0.00  0.00    +0.000 A 
ATOM     20  C   UNL     1      -3.444  10.733  16.261  0.00  0.00    +0.000 A 
ATOM     21  C   UNL     1      -2.253  11.008  16.890  0.00  0.00    +0.000 A 
ATOM     22  C   UNL     1      -2.248  11.402  18.246  0.00  0.00    +0.000 A 
ATOM     23  C   UNL     1      -3.438  11.495  18.964  0.00  0.00    +0.000 A 
BRANCH  22  24
ATOM     24  S   UNL     1      -0.681  11.603  19.040  0.00  0.00    +0.000 S 
ATOM     25  O   UNL     1       0.303  10.893  18.239  0.00  0.00    +0.000 OA
ATOM     26  O   UNL     1      -0.533  13.030  19.298  0.00  0.00    +0.000 OA
BRANCH  24  27
ATOM     27  N   UNL     1      -0.841  10.827  20.544  0.00  0.00    +0.000 NA
ATOM     28  C   UNL     1      -0.097   9.554  20.680  0.00  0.00    +0.000 C 
ATOM     29  C   UNL     1      -0.398   8.852  21.996  0.00  0.00    +0.000 C 
ATOM     30  C   UNL     1      -0.220   9.792  23.176  0.00  0.00    +0.000 C 
ATOM     31  C   UNL     1      -1.130  10.997  23.011  0.00  0.00    +0.000 C 
ATOM     32  C   UNL     1      -0.838  11.740  21.715  0.00  0.00    +0.000 C 
ENDBRANCH  24  27
ENDBRANCH  22  24
ENDBRANCH   2  18
TORSDOF 4
ENDMDL
