MODEL 1
REMARK VINA RESULT:      -5.1      0.000      0.000
REMARK  Name = 
REMARK  14 active torsions:
REMARK  status: ('A' for Active; 'I' for Inactive)
REMARK    1  A    between atoms: C_1  and  C_2
REMARK    2  A    between atoms: C_2  and  O_3
REMARK    3  A    between atoms: O_3  and  C_4
REMARK    4  A    between atoms: C_4  and  C_5
REMARK    5  A    between atoms: C_5  and  O_6
REMARK    6  A    between atoms: O_6  and  C_7
REMARK    7  A    between atoms: C_7  and  C_8
REMARK    8  A    between atoms: C_8  and  O_9
REMARK    9  A    between atoms: O_9  and  C_10
REMARK   10  A    between atoms: C_10  and  C_12
REMARK   11  A    between atoms: C_12  and  C_13
REMARK   12  A    between atoms: C_13  and  C_14
REMARK   13  A    between atoms: C_14  and  C_16
REMARK   14  A    between atoms: C_16  and  N_17
REMARK                            x       y       z     vdW  Elec       q    Type
REMARK                         _______ _______ _______ _____ _____    ______ ____
ROOT
ATOM      1  C   UNL     1       2.954   2.992  17.727  0.00  0.00    +0.000 C 
ATOM      2  O   UNL     1       3.022   1.780  17.777  0.00  0.00    +0.000 OA
ENDROOT
BRANCH   1   3
ATOM      3  O   UNL     1       4.027   3.830  17.576  0.00  0.00    +0.000 OA
BRANCH   3   4
ATOM      4  C   UNL     1       3.809   5.152  18.107  0.00  0.00    +0.000 C 
BRANCH   4   5
ATOM      5  C   UNL     1       4.696   5.399  19.323  0.00  0.00    +0.000 C 
BRANCH   5   6
ATOM      6  O   UNL     1       5.851   4.560  19.282  0.00  0.00    +0.000 OA
BRANCH   6   7
ATOM      7  C   UNL     1       7.018   5.325  18.968  0.00  0.00    +0.000 C 
BRANCH   7   8
ATOM      8  C   UNL     1       7.768   4.678  17.810  0.00  0.00    +0.000 C 
BRANCH   8   9
ATOM      9  O   UNL     1       7.466   5.368  16.595  0.00  0.00    +0.000 OA
BRANCH   9  11
ATOM     10  C   UNL     1       5.824   5.181  14.857  0.00  0.00    +0.000 C 
ATOM     11  C   UNL     1       6.913   4.471  15.633  0.00  0.00    +0.000 C 
ENDBRANCH   9  11
ENDBRANCH   8   9
ENDBRANCH   7   8
ENDBRANCH   6   7
ENDBRANCH   5   6
ENDBRANCH   4   5
ENDBRANCH   3   4
ENDBRANCH   1   3
BRANCH   1  12
ATOM     12  C   UNL     1       1.644   3.760  17.775  0.00  0.00    +0.000 C 
BRANCH  12  13
ATOM     13  C   UNL     1       0.700   3.156  18.820  0.00  0.00    +0.000 C 
BRANCH  13  14
ATOM     14  C   UNL     1       1.071   3.593  20.231  0.00  0.00    +0.000 C 
ATOM     15  O   UNL     1       0.948   4.764  20.593  0.00  0.00    +0.000 OA
BRANCH  14  16
ATOM     16  C   UNL     1       1.580   2.510  21.188  0.00  0.00    +0.000 C 
BRANCH  16  17
ATOM     17  N   UNL     1       2.326   3.115  22.298  0.00  0.00    +0.000 NA
ATOM     18  H   UNL     1       3.133   2.520  22.508  0.00  0.00    +0.000 HD
ATOM     19  H   UNL     1       1.752   3.128  23.141  0.00  0.00    +0.000 HD
ENDBRANCH  16  17
ENDBRANCH  14  16
ENDBRANCH  13  14
ENDBRANCH  12  13
ENDBRANCH   1  12
TORSDOF 13
ENDMDL
MODEL 2
REMARK VINA RESULT:      -5.0      1.046      1.151
REMARK  Name = 
REMARK  14 active torsions:
REMARK  status: ('A' for Active; 'I' for Inactive)
REMARK    1  A    between atoms: C_1  and  C_2
REMARK    2  A    between atoms: C_2  and  O_3
REMARK    3  A    between atoms: O_3  and  C_4
REMARK    4  A    between atoms: C_4  and  C_5
REMARK    5  A    between atoms: C_5  and  O_6
REMARK    6  A    between atoms: O_6  and  C_7
REMARK    7  A    between atoms: C_7  and  C_8
REMARK    8  A    between atoms: C_8  and  O_9
REMARK    9  A    between atoms: O_9  and  C_10
REMARK   10  A    between atoms: C_10  and  C_12
REMARK   11  A    between atoms: C_12  and  C_13
REMARK   12  A    between atoms: C_13  and  C_14
REMARK   13  A    between atoms: C_14  and  C_16
REMARK   14  A    between atoms: C_16  and  N_17
REMARK                            x       y       z     vdW  Elec       q    Type
REMARK                         _______ _______ _______ _____ _____    ______ ____
ROOT
ATOM      1  C   UNL     1       2.513   2.567  18.137  0.00  0.00    +0.000 C 
ATOM      2  O   UNL     1       2.951   1.591  18.714  0.00  0.00    +0.000 OA
ENDROOT
BRANCH   1   3
ATOM      3  O   UNL     1       3.187   3.277  17.180  0.00  0.00    +0.000 OA
BRANCH   3   4
ATOM      4  C   UNL     1       4.597   3.418  17.448  0.00  0.00    +0.000 C 
BRANCH   4   5
ATOM      5  C   UNL     1       4.855   4.600  18.376  0.00  0.00    +0.000 C 
BRANCH   5   6
ATOM      6  O   UNL     1       6.177   4.539  18.913  0.00  0.00    +0.000 OA
BRANCH   6   7
ATOM      7  C   UNL     1       7.151   4.626  17.868  0.00  0.00    +0.000 C 
BRANCH   7   8
ATOM      8  C   UNL     1       7.180   6.039  17.302  0.00  0.00    +0.000 C 
BRANCH   8   9
ATOM      9  O   UNL     1       7.370   5.987  15.885  0.00  0.00    +0.000 OA
BRANCH   9  11
ATOM     10  C   UNL     1       6.124   4.679  14.309  0.00  0.00    +0.000 C 
ATOM     11  C   UNL     1       7.173   4.661  15.401  0.00  0.00    +0.000 C 
ENDBRANCH   9  11
ENDBRANCH   8   9
ENDBRANCH   7   8
ENDBRANCH   6   7
ENDBRANCH   5   6
ENDBRANCH   4   5
ENDBRANCH   3   4
ENDBRANCH   1   3
BRANCH   1  12
ATOM     12  C   UNL     1       1.115   3.117  18.364  0.00  0.00    +0.000 C 
BRANCH  12  13
ATOM     13  C   UNL     1       0.806   3.211  19.862  0.00  0.00    +0.000 C 
BRANCH  13  14
ATOM     14  C   UNL     1       1.667   4.262  20.547  0.00  0.00    +0.000 C 
ATOM     15  O   UNL     1       1.778   5.401  20.087  0.00  0.00    +0.000 OA
BRANCH  14  16
ATOM     16  C   UNL     1       2.371   3.854  21.846  0.00  0.00    +0.000 C 
BRANCH  16  17
ATOM     17  N   UNL     1       2.777   2.444  21.789  0.00  0.00    +0.000 NA
ATOM     18  H   UNL     1       2.135   1.899  22.372  0.00  0.00    +0.000 HD
ATOM     19  H   UNL     1       3.704   2.329  22.198  0.00  0.00    +0.000 HD
ENDBRANCH  16  17
ENDBRANCH  14  16
ENDBRANCH  13  14
ENDBRANCH  12  13
ENDBRANCH   1  12
TORSDOF 13
ENDMDL
MODEL 3
REMARK VINA RESULT:      -4.9      1.957      2.916
REMARK  Name = 
REMARK  14 active torsions:
REMARK  status: ('A' for Active; 'I' for Inactive)
REMARK    1  A    between atoms: C_1  and  C_2
REMARK    2  A    between atoms: C_2  and  O_3
REMARK    3  A    between atoms: O_3  and  C_4
REMARK    4  A    between atoms: C_4  and  C_5
REMARK    5  A    between atoms: C_5  and  O_6
REMARK    6  A    between atoms: O_6  and  C_7
REMARK    7  A    between atoms: C_7  and  C_8
REMARK    8  A    between atoms: C_8  and  O_9
REMARK    9  A    between atoms: O_9  and  C_10
REMARK   10  A    between atoms: C_10  and  C_12
REMARK   11  A    between atoms: C_12  and  C_13
REMARK   12  A    between atoms: C_13  and  C_14
REMARK   13  A    between atoms: C_14  and  C_16
REMARK   14  A    between atoms: C_16  and  N_17
REMARK                            x       y       z     vdW  Elec       q    Type
REMARK                         _______ _______ _______ _____ _____    ______ ____
ROOT
ATOM      1  C   UNL     1       2.247   3.336  21.203  0.00  0.00    +0.000 C 
ATOM      2  O   UNL     1       3.033   2.480  21.561  0.00  0.00    +0.000 OA
ENDROOT
BRANCH   1   3
ATOM      3  O   UNL     1       2.396   4.678  21.432  0.00  0.00    +0.000 OA
BRANCH   3   4
ATOM      4  C   UNL     1       1.773   5.509  20.431  0.00  0.00    +0.000 C 
BRANCH   4   5
ATOM      5  C   UNL     1       2.807   6.393  19.744  0.00  0.00    +0.000 C 
BRANCH   5   6
ATOM      6  O   UNL     1       3.525   5.654  18.756  0.00  0.00    +0.000 OA
BRANCH   6   7
ATOM      7  C   UNL     1       4.838   5.329  19.223  0.00  0.00    +0.000 C 
BRANCH   7   8
ATOM      8  C   UNL     1       5.865   5.641  18.144  0.00  0.00    +0.000 C 
BRANCH   8   9
ATOM      9  O   UNL     1       5.813   4.640  17.124  0.00  0.00    +0.000 OA
BRANCH   9  11
ATOM     10  C   UNL     1       6.723   4.486  14.911  0.00  0.00    +0.000 C 
ATOM     11  C   UNL     1       7.034   4.609  16.388  0.00  0.00    +0.000 C 
ENDBRANCH   9  11
ENDBRANCH   8   9
ENDBRANCH   7   8
ENDBRANCH   6   7
ENDBRANCH   5   6
ENDBRANCH   4   5
ENDBRANCH   3   4
ENDBRANCH   1   3
BRANCH   1  12
ATOM     12  C   UNL     1       0.995   3.038  20.395  0.00  0.00    +0.000 C 
BRANCH  12  13
ATOM     13  C   UNL     1       1.292   2.017  19.292  0.00  0.00    +0.000 C 
BRANCH  13  14
ATOM     14  C   UNL     1       1.966   2.667  18.092  0.00  0.00    +0.000 C 
ATOM     15  O   UNL     1       1.395   3.534  17.427  0.00  0.00    +0.000 OA
BRANCH  14  16
ATOM     16  C   UNL     1       3.393   2.217  17.759  0.00  0.00    +0.000 C 
BRANCH  16  17
ATOM     17  N   UNL     1       3.786   1.088  18.611  0.00  0.00    +0.000 NA
ATOM     18  H   UNL     1       3.334   1.197  19.523  0.00  0.00    +0.000 HD
ATOM     19  H   UNL     1       4.791   1.113  18.785  0.00  0.00    +0.000 HD
ENDBRANCH  16  17
ENDBRANCH  14  16
ENDBRANCH  13  14
ENDBRANCH  12  13
ENDBRANCH   1  12
TORSDOF 13
ENDMDL
MODEL 4
REMARK VINA RESULT:      -4.9      2.289      6.372
REMARK  Name = 
REMARK  14 active torsions:
REMARK  status: ('A' for Active; 'I' for Inactive)
REMARK    1  A    between atoms: C_1  and  C_2
REMARK    2  A    between atoms: C_2  and  O_3
REMARK    3  A    between atoms: O_3  and  C_4
REMARK    4  A    between atoms: C_4  and  C_5
REMARK    5  A    between atoms: C_5  and  O_6
REMARK    6  A    between atoms: O_6  and  C_7
REMARK    7  A    between atoms: C_7  and  C_8
REMARK    8  A    between atoms: C_8  and  O_9
REMARK    9  A    between atoms: O_9  and  C_10
REMARK   10  A    between atoms: C_10  and  C_12
REMARK   11  A    between atoms: C_12  and  C_13
REMARK   12  A    between atoms: C_13  and  C_14
REMARK   13  A    between atoms: C_14  and  C_16
REMARK   14  A    between atoms: C_16  and  N_17
REMARK                            x       y       z     vdW  Elec       q    Type
REMARK                         _______ _______ _______ _____ _____    ______ ____
ROOT
ATOM      1  C   UNL     1       6.184   5.090  19.079  0.00  0.00    +0.000 C 
ATOM      2  O   UNL     1       7.029   5.422  19.888  0.00  0.00    +0.000 OA
ENDROOT
BRANCH   1   3
ATOM      3  O   UNL     1       5.495   3.907  19.109  0.00  0.00    +0.000 OA
BRANCH   3   4
ATOM      4  C   UNL     1       4.175   3.989  18.535  0.00  0.00    +0.000 C 
BRANCH   4   5
ATOM      5  C   UNL     1       3.870   2.750  17.702  0.00  0.00    +0.000 C 
BRANCH   5   6
ATOM      6  O   UNL     1       2.568   2.247  18.005  0.00  0.00    +0.000 OA
BRANCH   6   7
ATOM      7  C   UNL     1       1.636   3.321  18.161  0.00  0.00    +0.000 C 
BRANCH   7   8
ATOM      8  C   UNL     1       0.883   3.169  19.475  0.00  0.00    +0.000 C 
BRANCH   8   9
ATOM      9  O   UNL     1       1.103   4.321  20.294  0.00  0.00    +0.000 OA
BRANCH   9  11
ATOM     10  C   UNL     1       1.865   2.527  21.690  0.00  0.00    +0.000 C 
ATOM     11  C   UNL     1       1.970   4.005  21.381  0.00  0.00    +0.000 C 
ENDBRANCH   9  11
ENDBRANCH   8   9
ENDBRANCH   7   8
ENDBRANCH   6   7
ENDBRANCH   5   6
ENDBRANCH   4   5
ENDBRANCH   3   4
ENDBRANCH   1   3
BRANCH   1  12
ATOM     12  C   UNL     1       5.729   5.976  17.932  0.00  0.00    +0.000 C 
BRANCH  12  13
ATOM     13  C   UNL     1       6.891   6.261  16.974  0.00  0.00    +0.000 C 
BRANCH  13  14
ATOM     14  C   UNL     1       7.361   4.995  16.270  0.00  0.00    +0.000 C 
ATOM     15  O   UNL     1       8.068   4.166  16.845  0.00  0.00    +0.000 OA
BRANCH  14  16
ATOM     16  C   UNL     1       6.896   4.784  14.825  0.00  0.00    +0.000 C 
BRANCH  16  17
ATOM     17  N   UNL     1       5.508   4.308  14.796  0.00  0.00    +0.000 NA
ATOM     18  H   UNL     1       4.927   5.029  14.360  0.00  0.00    +0.000 HD
ATOM     19  H   UNL     1       5.157   4.193  15.747  0.00  0.00    +0.000 HD
ENDBRANCH  16  17
ENDBRANCH  14  16
ENDBRANCH  13  14
ENDBRANCH  12  13
ENDBRANCH   1  12
TORSDOF 13
ENDMDL
MODEL 5
REMARK VINA RESULT:      -4.9      2.896      6.190
REMARK  Name = 
REMARK  14 active torsions:
REMARK  status: ('A' for Active; 'I' for Inactive)
REMARK    1  A    between atoms: C_1  and  C_2
REMARK    2  A    between atoms: C_2  and  O_3
REMARK    3  A    between atoms: O_3  and  C_4
REMARK    4  A    between atoms: C_4  and  C_5
REMARK    5  A    between atoms: C_5  and  O_6
REMARK    6  A    between atoms: O_6  and  C_7
REMARK    7  A    between atoms: C_7  and  C_8
REMARK    8  A    between atoms: C_8  and  O_9
REMARK    9  A    between atoms: O_9  and  C_10
REMARK   10  A    between atoms: C_10  and  C_12
REMARK   11  A    between atoms: C_12  and  C_13
REMARK   12  A    between atoms: C_13  and  C_14
REMARK   13  A    between atoms: C_14  and  C_16
REMARK   14  A    between atoms: C_16  and  N_17
REMARK                            x       y       z     vdW  Elec       q    Type
REMARK                         _______ _______ _______ _____ _____    ______ ____
ROOT
ATOM      1  C   UNL     1       5.350   6.848  16.636  0.00  0.00    +0.000 C 
ATOM      2  O   UNL     1       5.011   6.934  15.472  0.00  0.00    +0.000 OA
ENDROOT
BRANCH   1   3
ATOM      3  O   UNL     1       4.503   6.958  17.707  0.00  0.00    +0.000 OA
BRANCH   3   4
ATOM      4  C   UNL     1       3.699   5.783  17.934  0.00  0.00    +0.000 C 
BRANCH   4   5
ATOM      5  C   UNL     1       4.052   5.138  19.269  0.00  0.00    +0.000 C 
BRANCH   5   6
ATOM      6  O   UNL     1       4.662   3.863  19.067  0.00  0.00    +0.000 OA
BRANCH   6   7
ATOM      7  C   UNL     1       4.081   3.198  17.942  0.00  0.00    +0.000 C 
BRANCH   7   8
ATOM      8  C   UNL     1       3.002   2.231  18.411  0.00  0.00    +0.000 C 
BRANCH   8   9
ATOM      9  O   UNL     1       1.748   2.584  17.820  0.00  0.00    +0.000 OA
BRANCH   9  11
ATOM     10  C   UNL     1       1.160   2.954  20.114  0.00  0.00    +0.000 C 
ATOM     11  C   UNL     1       0.691   2.448  18.767  0.00  0.00    +0.000 C 
ENDBRANCH   9  11
ENDBRANCH   8   9
ENDBRANCH   7   8
ENDBRANCH   6   7
ENDBRANCH   5   6
ENDBRANCH   4   5
ENDBRANCH   3   4
ENDBRANCH   1   3
BRANCH   1  12
ATOM     12  C   UNL     1       6.774   6.552  17.074  0.00  0.00    +0.000 C 
BRANCH  12  13
ATOM     13  C   UNL     1       7.130   5.086  16.805  0.00  0.00    +0.000 C 
BRANCH  13  14
ATOM     14  C   UNL     1       7.120   4.771  15.316  0.00  0.00    +0.000 C 
ATOM     15  O   UNL     1       7.871   5.354  14.531  0.00  0.00    +0.000 OA
BRANCH  14  16
ATOM     16  C   UNL     1       6.155   3.681  14.837  0.00  0.00    +0.000 C 
BRANCH  16  17
ATOM     17  N   UNL     1       6.256   3.509  13.382  0.00  0.00    +0.000 NA
ATOM     18  H   UNL     1       6.615   2.569  13.191  0.00  0.00    +0.000 HD
ATOM     19  H   UNL     1       6.940   4.160  12.999  0.00  0.00    +0.000 HD
ENDBRANCH  16  17
ENDBRANCH  14  16
ENDBRANCH  13  14
ENDBRANCH  12  13
ENDBRANCH   1  12
TORSDOF 13
ENDMDL
MODEL 6
REMARK VINA RESULT:      -4.9      2.168      5.643
REMARK  Name = 
REMARK  14 active torsions:
REMARK  status: ('A' for Active; 'I' for Inactive)
REMARK    1  A    between atoms: C_1  and  C_2
REMARK    2  A    between atoms: C_2  and  O_3
REMARK    3  A    between atoms: O_3  and  C_4
REMARK    4  A    between atoms: C_4  and  C_5
REMARK    5  A    between atoms: C_5  and  O_6
REMARK    6  A    between atoms: O_6  and  C_7
REMARK    7  A    between atoms: C_7  and  C_8
REMARK    8  A    between atoms: C_8  and  O_9
REMARK    9  A    between atoms: O_9  and  C_10
REMARK   10  A    between atoms: C_10  and  C_12
REMARK   11  A    between atoms: C_12  and  C_13
REMARK   12  A    between atoms: C_13  and  C_14
REMARK   13  A    between atoms: C_14  and  C_16
REMARK   14  A    between atoms: C_16  and  N_17
REMARK                            x       y       z     vdW  Elec       q    Type
REMARK                         _______ _______ _______ _____ _____    ______ ____
ROOT
ATOM      1  C   UNL     1       4.770   3.615  18.402  0.00  0.00    +0.000 C 
ATOM      2  O   UNL     1       5.268   3.566  19.509  0.00  0.00    +0.000 OA
ENDROOT
BRANCH   1   3
ATOM      3  O   UNL     1       3.619   2.971  18.033  0.00  0.00    +0.000 OA
BRANCH   3   4
ATOM      4  C   UNL     1       2.775   3.746  17.158  0.00  0.00    +0.000 C 
BRANCH   4   5
ATOM      5  C   UNL     1       1.747   4.536  17.959  0.00  0.00    +0.000 C 
BRANCH   5   6
ATOM      6  O   UNL     1       2.150   5.901  18.088  0.00  0.00    +0.000 OA
BRANCH   6   7
ATOM      7  C   UNL     1       2.384   6.231  19.459  0.00  0.00    +0.000 C 
BRANCH   7   8
ATOM      8  C   UNL     1       1.697   5.216  20.362  0.00  0.00    +0.000 C 
BRANCH   8   9
ATOM      9  O   UNL     1       2.670   4.561  21.181  0.00  0.00    +0.000 OA
BRANCH   9  11
ATOM     10  C   UNL     1       1.252   2.661  20.816  0.00  0.00    +0.000 C 
ATOM     11  C   UNL     1       2.103   3.416  21.815  0.00  0.00    +0.000 C 
ENDBRANCH   9  11
ENDBRANCH   8   9
ENDBRANCH   7   8
ENDBRANCH   6   7
ENDBRANCH   5   6
ENDBRANCH   4   5
ENDBRANCH   3   4
ENDBRANCH   1   3
BRANCH   1  12
ATOM     12  C   UNL     1       5.334   4.452  17.265  0.00  0.00    +0.000 C 
BRANCH  12  13
ATOM     13  C   UNL     1       5.691   5.859  17.755  0.00  0.00    +0.000 C 
BRANCH  13  14
ATOM     14  C   UNL     1       7.190   6.115  17.679  0.00  0.00    +0.000 C 
ATOM     15  O   UNL     1       7.668   6.892  16.849  0.00  0.00    +0.000 OA
BRANCH  14  16
ATOM     16  C   UNL     1       8.077   5.387  18.695  0.00  0.00    +0.000 C 
BRANCH  16  17
ATOM     17  N   UNL     1       7.545   5.550  20.053  0.00  0.00    +0.000 NA
ATOM     18  H   UNL     1       7.049   4.693  20.312  0.00  0.00    +0.000 HD
ATOM     19  H   UNL     1       6.851   6.298  20.070  0.00  0.00    +0.000 HD
ENDBRANCH  16  17
ENDBRANCH  14  16
ENDBRANCH  13  14
ENDBRANCH  12  13
ENDBRANCH   1  12
TORSDOF 13
ENDMDL
MODEL 7
REMARK VINA RESULT:      -4.9      1.406      1.702
REMARK  Name = 
REMARK  14 active torsions:
REMARK  status: ('A' for Active; 'I' for Inactive)
REMARK    1  A    between atoms: C_1  and  C_2
REMARK    2  A    between atoms: C_2  and  O_3
REMARK    3  A    between atoms: O_3  and  C_4
REMARK    4  A    between atoms: C_4  and  C_5
REMARK    5  A    between atoms: C_5  and  O_6
REMARK    6  A    between atoms: O_6  and  C_7
REMARK    7  A    between atoms: C_7  and  C_8
REMARK    8  A    between atoms: C_8  and  O_9
REMARK    9  A    between atoms: O_9  and  C_10
REMARK   10  A    between atoms: C_10  and  C_12
REMARK   11  A    between atoms: C_12  and  C_13
REMARK   12  A    between atoms: C_13  and  C_14
REMARK   13  A    between atoms: C_14  and  C_16
REMARK   14  A    between atoms: C_16  and  N_17
REMARK                            x       y       z     vdW  Elec       q    Type
REMARK                         _______ _______ _______ _____ _____    ______ ____
ROOT
ATOM      1  C   UNL     1       2.059   4.236  17.677  0.00  0.00    +0.000 C 
ATOM      2  O   UNL     1       0.940   4.263  17.202  0.00  0.00    +0.000 OA
ENDROOT
BRANCH   1   3
ATOM      3  O   UNL     1       2.616   5.241  18.422  0.00  0.00    +0.000 OA
BRANCH   3   4
ATOM      4  C   UNL     1       3.974   5.553  18.050  0.00  0.00    +0.000 C 
BRANCH   4   5
ATOM      5  C   UNL     1       4.915   5.367  19.234  0.00  0.00    +0.000 C 
BRANCH   5   6
ATOM      6  O   UNL     1       6.063   4.608  18.851  0.00  0.00    +0.000 OA
BRANCH   6   7
ATOM      7  C   UNL     1       7.180   5.469  18.613  0.00  0.00    +0.000 C 
BRANCH   7   8
ATOM      8  C   UNL     1       7.264   5.812  17.132  0.00  0.00    +0.000 C 
BRANCH   8   9
ATOM      9  O   UNL     1       7.599   4.641  16.383  0.00  0.00    +0.000 OA
BRANCH   9  11
ATOM     10  C   UNL     1       5.623   4.299  15.068  0.00  0.00    +0.000 C 
ATOM     11  C   UNL     1       7.076   4.725  15.059  0.00  0.00    +0.000 C 
ENDBRANCH   9  11
ENDBRANCH   8   9
ENDBRANCH   7   8
ENDBRANCH   6   7
ENDBRANCH   5   6
ENDBRANCH   4   5
ENDBRANCH   3   4
ENDBRANCH   1   3
BRANCH   1  12
ATOM     12  C   UNL     1       2.993   3.044  17.552  0.00  0.00    +0.000 C 
BRANCH  12  13
ATOM     13  C   UNL     1       2.564   1.918  18.499  0.00  0.00    +0.000 C 
BRANCH  13  14
ATOM     14  C   UNL     1       2.724   2.321  19.959  0.00  0.00    +0.000 C 
ATOM     15  O   UNL     1       3.836   2.395  20.487  0.00  0.00    +0.000 OA
BRANCH  14  16
ATOM     16  C   UNL     1       1.447   2.656  20.737  0.00  0.00    +0.000 C 
BRANCH  16  17
ATOM     17  N   UNL     1       1.694   2.589  22.183  0.00  0.00    +0.000 NA
ATOM     18  H   UNL     1       0.817   2.789  22.671  0.00  0.00    +0.000 HD
ATOM     19  H   UNL     1       2.350   3.319  22.460  0.00  0.00    +0.000 HD
ENDBRANCH  16  17
ENDBRANCH  14  16
ENDBRANCH  13  14
ENDBRANCH  12  13
ENDBRANCH   1  12
TORSDOF 13
ENDMDL
MODEL 8
REMARK VINA RESULT:      -4.8      2.256      6.093
REMARK  Name = 
REMARK  14 active torsions:
REMARK  status: ('A' for Active; 'I' for Inactive)
REMARK    1  A    between atoms: C_1  and  C_2
REMARK    2  A    between atoms: C_2  and  O_3
REMARK    3  A    between atoms: O_3  and  C_4
REMARK    4  A    between atoms: C_4  and  C_5
REMARK    5  A    between atoms: C_5  and  O_6
REMARK    6  A    between atoms: O_6  and  C_7
REMARK    7  A    between atoms: C_7  and  C_8
REMARK    8  A    between atoms: C_8  and  O_9
REMARK    9  A    between atoms: O_9  and  C_10
REMARK   10  A    between atoms: C_10  and  C_12
REMARK   11  A    between atoms: C_12  and  C_13
REMARK   12  A    between atoms: C_13  and  C_14
REMARK   13  A    between atoms: C_14  and  C_16
REMARK   14  A    between atoms: C_16  and  N_17
REMARK                            x       y       z     vdW  Elec       q    Type
REMARK                         _______ _______ _______ _____ _____    ______ ____
ROOT
ATOM      1  C   UNL     1       6.735   5.342  18.427  0.00  0.00    +0.000 C 
ATOM      2  O   UNL     1       7.551   4.441  18.408  0.00  0.00    +0.000 OA
ENDROOT
BRANCH   1   3
ATOM      3  O   UNL     1       5.767   5.500  19.383  0.00  0.00    +0.000 OA
BRANCH   3   4
ATOM      4  C   UNL     1       4.562   4.755  19.116  0.00  0.00    +0.000 C 
BRANCH   4   5
ATOM      5  C   UNL     1       4.714   3.305  19.557  0.00  0.00    +0.000 C 
BRANCH   5   6
ATOM      6  O   UNL     1       4.291   2.416  18.522  0.00  0.00    +0.000 OA
BRANCH   6   7
ATOM      7  C   UNL     1       2.980   1.913  18.793  0.00  0.00    +0.000 C 
BRANCH   7   8
ATOM      8  C   UNL     1       2.012   2.380  17.714  0.00  0.00    +0.000 C 
BRANCH   8   9
ATOM      9  O   UNL     1       0.871   2.991  18.321  0.00  0.00    +0.000 OA
BRANCH   9  11
ATOM     10  C   UNL     1       0.873   4.248  20.363  0.00  0.00    +0.000 C 
ATOM     11  C   UNL     1       0.932   2.869  19.741  0.00  0.00    +0.000 C 
ENDBRANCH   9  11
ENDBRANCH   8   9
ENDBRANCH   7   8
ENDBRANCH   6   7
ENDBRANCH   5   6
ENDBRANCH   4   5
ENDBRANCH   3   4
ENDBRANCH   1   3
BRANCH   1  12
ATOM     12  C   UNL     1       6.705   6.467  17.406  0.00  0.00    +0.000 C 
BRANCH  12  13
ATOM     13  C   UNL     1       5.886   6.060  16.176  0.00  0.00    +0.000 C 
BRANCH  13  14
ATOM     14  C   UNL     1       6.712   5.229  15.203  0.00  0.00    +0.000 C 
ATOM     15  O   UNL     1       7.768   5.655  14.731  0.00  0.00    +0.000 OA
BRANCH  14  16
ATOM     16  C   UNL     1       6.188   3.832  14.854  0.00  0.00    +0.000 C 
BRANCH  16  17
ATOM     17  N   UNL     1       5.746   3.132  16.067  0.00  0.00    +0.000 NA
ATOM     18  H   UNL     1       4.771   3.385  16.249  0.00  0.00    +0.000 HD
ATOM     19  H   UNL     1       6.281   3.454  16.872  0.00  0.00    +0.000 HD
ENDBRANCH  16  17
ENDBRANCH  14  16
ENDBRANCH  13  14
ENDBRANCH  12  13
ENDBRANCH   1  12
TORSDOF 13
ENDMDL
MODEL 9
REMARK VINA RESULT:      -4.8      2.915      6.600
REMARK  Name = 
REMARK  14 active torsions:
REMARK  status: ('A' for Active; 'I' for Inactive)
REMARK    1  A    between atoms: C_1  and  C_2
REMARK    2  A    between atoms: C_2  and  O_3
REMARK    3  A    between atoms: O_3  and  C_4
REMARK    4  A    between atoms: C_4  and  C_5
REMARK    5  A    between atoms: C_5  and  O_6
REMARK    6  A    between atoms: O_6  and  C_7
REMARK    7  A    between atoms: C_7  and  C_8
REMARK    8  A    between atoms: C_8  and  O_9
REMARK    9  A    between atoms: O_9  and  C_10
REMARK   10  A    between atoms: C_10  and  C_12
REMARK   11  A    between atoms: C_12  and  C_13
REMARK   12  A    between atoms: C_13  and  C_14
REMARK   13  A    between atoms: C_14  and  C_16
REMARK   14  A    between atoms: C_16  and  N_17
REMARK                            x       y       z     vdW  Elec       q    Type
REMARK                         _______ _______ _______ _____ _____    ______ ____
ROOT
ATOM      1  C   UNL     1       6.899   6.101  17.381  0.00  0.00    +0.000 C 
ATOM      2  O   UNL     1       6.668   7.057  16.666  0.00  0.00    +0.000 OA
ENDROOT
BRANCH   1   3
ATOM      3  O   UNL     1       6.788   6.101  18.746  0.00  0.00    +0.000 OA
BRANCH   3   4
ATOM      4  C   UNL     1       6.025   4.993  19.265  0.00  0.00    +0.000 C 
BRANCH   4   5
ATOM      5  C   UNL     1       4.538   5.326  19.289  0.00  0.00    +0.000 C 
BRANCH   5   6
ATOM      6  O   UNL     1       3.828   4.524  18.344  0.00  0.00    +0.000 OA
BRANCH   6   7
ATOM      7  C   UNL     1       2.581   5.134  18.001  0.00  0.00    +0.000 C 
BRANCH   7   8
ATOM      8  C   UNL     1       1.479   4.084  17.970  0.00  0.00    +0.000 C 
BRANCH   8   9
ATOM      9  O   UNL     1       1.659   3.164  19.050  0.00  0.00    +0.000 OA
BRANCH   9  11
ATOM     10  C   UNL     1       1.751   3.142  21.446  0.00  0.00    +0.000 C 
ATOM     11  C   UNL     1       1.004   3.636  20.226  0.00  0.00    +0.000 C 
ENDBRANCH   9  11
ENDBRANCH   8   9
ENDBRANCH   7   8
ENDBRANCH   6   7
ENDBRANCH   5   6
ENDBRANCH   4   5
ENDBRANCH   3   4
ENDBRANCH   1   3
BRANCH   1  12
ATOM     12  C   UNL     1       7.302   4.736  16.849  0.00  0.00    +0.000 C 
BRANCH  12  13
ATOM     13  C   UNL     1       6.265   4.218  15.847  0.00  0.00    +0.000 C 
BRANCH  13  14
ATOM     14  C   UNL     1       6.669   4.527  14.412  0.00  0.00    +0.000 C 
ATOM     15  O   UNL     1       7.683   5.181  14.157  0.00  0.00    +0.000 OA
BRANCH  14  16
ATOM     16  C   UNL     1       5.777   3.972  13.297  0.00  0.00    +0.000 C 
BRANCH  16  17
ATOM     17  N   UNL     1       6.463   2.888  12.582  0.00  0.00    +0.000 NA
ATOM     18  H   UNL     1       7.460   2.933  12.807  0.00  0.00    +0.000 HD
ATOM     19  H   UNL     1       6.390   3.032  11.575  0.00  0.00    +0.000 HD
ENDBRANCH  16  17
ENDBRANCH  14  16
ENDBRANCH  13  14
ENDBRANCH  12  13
ENDBRANCH   1  12
TORSDOF 13
ENDMDL
