MODEL 1
REMARK VINA RESULT:      -8.7      0.000      0.000
REMARK  Name = 
REMARK  4 active torsions:
REMARK  status: ('A' for Active; 'I' for Inactive)
REMARK    1  A    between atoms: C_1  and  C_2
REMARK    2  A    between atoms: C_7  and  C_8
REMARK    3  A    between atoms: N_14  and  C_15
REMARK    4  A    between atoms: C_15  and  C_16
REMARK                            x       y       z     vdW  Elec       q    Type
REMARK                         _______ _______ _______ _____ _____    ______ ____
ROOT
ATOM      1  C   UNL     1       6.436   5.793  17.582  0.00  0.00    +0.000 C 
ATOM      2  C   UNL     1       5.943   4.692  18.533  0.00  0.00    +0.000 C 
ATOM      3  C   UNL     1       4.424   4.528  18.480  0.00  0.00    +0.000 C 
ATOM      4  N   UNL     1       3.763   5.801  18.752  0.00  0.00    +0.000 N 
ATOM      5  C   UNL     1       2.872   5.867  19.808  0.00  0.00    +0.000 C 
ATOM      6  O   UNL     1       2.652   4.915  20.553  0.00  0.00    +0.000 OA
ATOM      7  N   UNL     1       2.280   7.081  20.011  0.00  0.00    +0.000 N 
ATOM      8  C   UNL     1       4.128   6.884  17.836  0.00  0.00    +0.000 C 
ATOM      9  C   UNL     1       5.646   7.093  17.804  0.00  0.00    +0.000 C 
ATOM     10  H   UNL     1       2.100   7.641  19.196  0.00  0.00    +0.000 HD
ENDROOT
BRANCH   1  17
ATOM     11  C   UNL     1       5.426   2.259  11.177  0.00  0.00    +0.000 C 
ATOM     12  C   UNL     1       5.982   3.230  12.177  0.00  0.00    +0.000 A 
ATOM     13  C   UNL     1       7.116   4.003  11.889  0.00  0.00    +0.000 A 
ATOM     14  C   UNL     1       7.662   4.896  12.824  0.00  0.00    +0.000 A 
ATOM     15  C   UNL     1       7.025   4.970  14.063  0.00  0.00    +0.000 A 
ATOM     16  N   UNL     1       7.287   5.685  15.204  0.00  0.00    +0.000 N 
ATOM     17  C   UNL     1       6.362   5.325  16.157  0.00  0.00    +0.000 A 
ATOM     18  N   UNL     1       5.489   4.475  15.660  0.00  0.00    +0.000 NA
ATOM     19  C   UNL     1       5.898   4.224  14.379  0.00  0.00    +0.000 A 
ATOM     20  C   UNL     1       5.360   3.345  13.432  0.00  0.00    +0.000 A 
ATOM     21  H   UNL     1       8.061   6.318  15.340  0.00  0.00    +0.000 HD
ENDBRANCH   1  17
BRANCH   7  22
ATOM     22  C   UNL     1       1.364   7.279  21.112  0.00  0.00    +0.000 C 
BRANCH  22  23
ATOM     23  C   UNL     1       0.763   8.659  21.060  0.00  0.00    +0.000 A 
ATOM     24  C   UNL     1       0.854   9.447  19.907  0.00  0.00    +0.000 A 
ATOM     25  C   UNL     1       0.294  10.726  19.879  0.00  0.00    +0.000 A 
ATOM     26  C   UNL     1      -0.364  11.227  21.001  0.00  0.00    +0.000 A 
ATOM     27  C   UNL     1      -0.473  10.448  22.150  0.00  0.00    +0.000 A 
ATOM     28  C   UNL     1       0.084   9.169  22.179  0.00  0.00    +0.000 A 
ENDBRANCH  22  23
ENDBRANCH   7  22
TORSDOF 3
ENDMDL
MODEL 2
REMARK VINA RESULT:      -8.3      4.333      9.475
REMARK  Name = 
REMARK  4 active torsions:
REMARK  status: ('A' for Active; 'I' for Inactive)
REMARK    1  A    between atoms: C_1  and  C_2
REMARK    2  A    between atoms: C_7  and  C_8
REMARK    3  A    between atoms: N_14  and  C_15
REMARK    4  A    between atoms: C_15  and  C_16
REMARK                            x       y       z     vdW  Elec       q    Type
REMARK                         _______ _______ _______ _____ _____    ______ ____
ROOT
ATOM      1  C   UNL     1       0.753  11.304  19.531  0.00  0.00    +0.000 C 
ATOM      2  C   UNL     1       1.727  10.987  18.386  0.00  0.00    +0.000 C 
ATOM      3  C   UNL     1       1.523   9.575  17.835  0.00  0.00    +0.000 C 
ATOM      4  N   UNL     1       1.623   8.588  18.907  0.00  0.00    +0.000 N 
ATOM      5  C   UNL     1       2.568   7.586  18.791  0.00  0.00    +0.000 C 
ATOM      6  O   UNL     1       3.356   7.519  17.850  0.00  0.00    +0.000 OA
ATOM      7  N   UNL     1       2.611   6.689  19.820  0.00  0.00    +0.000 N 
ATOM      8  C   UNL     1       0.671   8.784  20.003  0.00  0.00    +0.000 C 
ATOM      9  C   UNL     1       0.787  10.193  20.593  0.00  0.00    +0.000 C 
ATOM     10  H   UNL     1       1.741   6.477  20.277  0.00  0.00    +0.000 HD
ENDROOT
BRANCH   1  17
ATOM     11  C   UNL     1      -6.488  12.054  18.295  0.00  0.00    +0.000 C 
ATOM     12  C   UNL     1      -5.026  11.855  18.021  0.00  0.00    +0.000 A 
ATOM     13  C   UNL     1      -4.568  11.476  16.751  0.00  0.00    +0.000 A 
ATOM     14  C   UNL     1      -3.207  11.260  16.488  0.00  0.00    +0.000 A 
ATOM     15  C   UNL     1      -2.329  11.433  17.558  0.00  0.00    +0.000 A 
ATOM     16  N   UNL     1      -0.971  11.282  17.682  0.00  0.00    +0.000 N 
ATOM     17  C   UNL     1      -0.631  11.527  18.993  0.00  0.00    +0.000 A 
ATOM     18  N   UNL     1      -1.688  11.892  19.687  0.00  0.00    +0.000 NA
ATOM     19  C   UNL     1      -2.747  11.813  18.825  0.00  0.00    +0.000 A 
ATOM     20  C   UNL     1      -4.108  12.034  19.069  0.00  0.00    +0.000 A 
ATOM     21  H   UNL     1      -0.340  10.982  16.953  0.00  0.00    +0.000 HD
ENDBRANCH   1  17
BRANCH   7  22
ATOM     22  C   UNL     1       3.588   5.622  19.828  0.00  0.00    +0.000 C 
BRANCH  22  23
ATOM     23  C   UNL     1       2.938   4.304  19.501  0.00  0.00    +0.000 A 
ATOM     24  C   UNL     1       3.647   3.286  18.853  0.00  0.00    +0.000 A 
ATOM     25  C   UNL     1       3.025   2.072  18.554  0.00  0.00    +0.000 A 
ATOM     26  C   UNL     1       1.691   1.863  18.903  0.00  0.00    +0.000 A 
ATOM     27  C   UNL     1       0.979   2.864  19.560  0.00  0.00    +0.000 A 
ATOM     28  C   UNL     1       1.599   4.077  19.861  0.00  0.00    +0.000 A 
ENDBRANCH  22  23
ENDBRANCH   7  22
TORSDOF 3
ENDMDL
MODEL 3
REMARK VINA RESULT:      -8.2      4.301      9.974
REMARK  Name = 
REMARK  4 active torsions:
REMARK  status: ('A' for Active; 'I' for Inactive)
REMARK    1  A    between atoms: C_1  and  C_2
REMARK    2  A    between atoms: C_7  and  C_8
REMARK    3  A    between atoms: N_14  and  C_15
REMARK    4  A    between atoms: C_15  and  C_16
REMARK                            x       y       z     vdW  Elec       q    Type
REMARK                         _______ _______ _______ _____ _____    ______ ____
ROOT
ATOM      1  C   UNL     1       0.746  11.589  19.954  0.00  0.00    +0.000 C 
ATOM      2  C   UNL     1       1.491  11.224  18.661  0.00  0.00    +0.000 C 
ATOM      3  C   UNL     1       1.132   9.821  18.170  0.00  0.00    +0.000 C 
ATOM      4  N   UNL     1       1.372   8.835  19.219  0.00  0.00    +0.000 N 
ATOM      5  C   UNL     1       2.237   7.790  18.953  0.00  0.00    +0.000 C 
ATOM      6  O   UNL     1       2.845   7.683  17.890  0.00  0.00    +0.000 OA
ATOM      7  N   UNL     1       2.418   6.895  19.969  0.00  0.00    +0.000 N 
ATOM      8  C   UNL     1       0.635   9.077  20.462  0.00  0.00    +0.000 C 
ATOM      9  C   UNL     1       0.915  10.482  21.007  0.00  0.00    +0.000 C 
ATOM     10  H   UNL     1       1.632   6.725  20.572  0.00  0.00    +0.000 HD
ENDROOT
BRANCH   1  17
ATOM     11  C   UNL     1      -6.524  12.877  20.018  0.00  0.00    +0.000 C 
ATOM     12  C   UNL     1      -5.165  12.501  19.504  0.00  0.00    +0.000 A 
ATOM     13  C   UNL     1      -5.001  11.914  18.241  0.00  0.00    +0.000 A 
ATOM     14  C   UNL     1      -3.739  11.534  17.759  0.00  0.00    +0.000 A 
ATOM     15  C   UNL     1      -2.653  11.759  18.605  0.00  0.00    +0.000 A 
ATOM     16  N   UNL     1      -1.312  11.493  18.490  0.00  0.00    +0.000 N 
ATOM     17  C   UNL     1      -0.698  11.874  19.662  0.00  0.00    +0.000 A 
ATOM     18  N   UNL     1      -1.565  12.429  20.481  0.00  0.00    +0.000 NA
ATOM     19  C   UNL     1      -2.780  12.342  19.858  0.00  0.00    +0.000 A 
ATOM     20  C   UNL     1      -4.044  12.725  20.321  0.00  0.00    +0.000 A 
ATOM     21  H   UNL     1      -0.864  11.040  17.708  0.00  0.00    +0.000 HD
ENDBRANCH   1  17
BRANCH   7  22
ATOM     22  C   UNL     1       3.333   5.784  19.819  0.00  0.00    +0.000 C 
BRANCH  22  23
ATOM     23  C   UNL     1       2.589   4.533  19.435  0.00  0.00    +0.000 A 
ATOM     24  C   UNL     1       1.492   4.083  20.179  0.00  0.00    +0.000 A 
ATOM     25  C   UNL     1       0.817   2.917  19.809  0.00  0.00    +0.000 A 
ATOM     26  C   UNL     1       1.232   2.193  18.691  0.00  0.00    +0.000 A 
ATOM     27  C   UNL     1       2.314   2.637  17.936  0.00  0.00    +0.000 A 
ATOM     28  C   UNL     1       2.988   3.802  18.302  0.00  0.00    +0.000 A 
ENDBRANCH  22  23
ENDBRANCH   7  22
TORSDOF 3
ENDMDL
MODEL 4
REMARK VINA RESULT:      -8.0      4.704     10.916
REMARK  Name = 
REMARK  4 active torsions:
REMARK  status: ('A' for Active; 'I' for Inactive)
REMARK    1  A    between atoms: C_1  and  C_2
REMARK    2  A    between atoms: C_7  and  C_8
REMARK    3  A    between atoms: N_14  and  C_15
REMARK    4  A    between atoms: C_15  and  C_16
REMARK                            x       y       z     vdW  Elec       q    Type
REMARK                         _______ _______ _______ _____ _____    ______ ____
ROOT
ATOM      1  C   UNL     1      -0.166  12.406  20.641  0.00  0.00    +0.000 C 
ATOM      2  C   UNL     1       0.370  12.276  19.207  0.00  0.00    +0.000 C 
ATOM      3  C   UNL     1       0.031  10.919  18.590  0.00  0.00    +0.000 C 
ATOM      4  N   UNL     1       0.517   9.836  19.440  0.00  0.00    +0.000 N 
ATOM      5  C   UNL     1       1.394   8.917  18.895  0.00  0.00    +0.000 C 
ATOM      6  O   UNL     1       1.818   9.001  17.745  0.00  0.00    +0.000 OA
ATOM      7  N   UNL     1       1.810   7.922  19.735  0.00  0.00    +0.000 N 
ATOM      8  C   UNL     1      -0.011   9.851  20.806  0.00  0.00    +0.000 C 
ATOM      9  C   UNL     1       0.258  11.196  21.489  0.00  0.00    +0.000 C 
ATOM     10  H   UNL     1       1.152   7.606  20.427  0.00  0.00    +0.000 HD
ENDROOT
BRANCH   1  17
ATOM     11  C   UNL     1      -7.426  12.706  21.958  0.00  0.00    +0.000 C 
ATOM     12  C   UNL     1      -6.132  12.683  21.198  0.00  0.00    +0.000 A 
ATOM     13  C   UNL     1      -6.111  12.555  19.801  0.00  0.00    +0.000 A 
ATOM     14  C   UNL     1      -4.909  12.505  19.079  0.00  0.00    +0.000 A 
ATOM     15  C   UNL     1      -3.731  12.580  19.822  0.00  0.00    +0.000 A 
ATOM     16  N   UNL     1      -2.405  12.531  19.474  0.00  0.00    +0.000 N 
ATOM     17  C   UNL     1      -1.656  12.590  20.627  0.00  0.00    +0.000 A 
ATOM     18  N   UNL     1      -2.433  12.744  21.678  0.00  0.00    +0.000 NA
ATOM     19  C   UNL     1      -3.716  12.713  21.204  0.00  0.00    +0.000 A 
ATOM     20  C   UNL     1      -4.924  12.770  21.908  0.00  0.00    +0.000 A 
ATOM     21  H   UNL     1      -2.044  12.410  18.539  0.00  0.00    +0.000 HD
ENDBRANCH   1  17
BRANCH   7  22
ATOM     22  C   UNL     1       2.761   6.929  19.288  0.00  0.00    +0.000 C 
BRANCH  22  23
ATOM     23  C   UNL     1       2.146   5.555  19.315  0.00  0.00    +0.000 A 
ATOM     24  C   UNL     1       1.654   5.004  20.505  0.00  0.00    +0.000 A 
ATOM     25  C   UNL     1       1.091   3.726  20.512  0.00  0.00    +0.000 A 
ATOM     26  C   UNL     1       1.012   2.989  19.330  0.00  0.00    +0.000 A 
ATOM     27  C   UNL     1       1.487   3.531  18.139  0.00  0.00    +0.000 A 
ATOM     28  C   UNL     1       2.047   4.808  18.129  0.00  0.00    +0.000 A 
ENDBRANCH  22  23
ENDBRANCH   7  22
TORSDOF 3
ENDMDL
MODEL 5
REMARK VINA RESULT:      -8.0      4.029     10.796
REMARK  Name = 
REMARK  4 active torsions:
REMARK  status: ('A' for Active; 'I' for Inactive)
REMARK    1  A    between atoms: C_1  and  C_2
REMARK    2  A    between atoms: C_7  and  C_8
REMARK    3  A    between atoms: N_14  and  C_15
REMARK    4  A    between atoms: C_15  and  C_16
REMARK                            x       y       z     vdW  Elec       q    Type
REMARK                         _______ _______ _______ _____ _____    ______ ____
ROOT
ATOM      1  C   UNL     1       0.815  11.496  21.294  0.00  0.00    +0.000 C 
ATOM      2  C   UNL     1       1.212  11.719  19.827  0.00  0.00    +0.000 C 
ATOM      3  C   UNL     1       0.680  10.614  18.915  0.00  0.00    +0.000 C 
ATOM      4  N   UNL     1       1.117   9.304  19.391  0.00  0.00    +0.000 N 
ATOM      5  C   UNL     1       1.842   8.501  18.530  0.00  0.00    +0.000 C 
ATOM      6  O   UNL     1       2.174   8.862  17.403  0.00  0.00    +0.000 OA
ATOM      7  N   UNL     1       2.218   7.286  19.027  0.00  0.00    +0.000 N 
ATOM      8  C   UNL     1       0.710   8.989  20.762  0.00  0.00    +0.000 C 
ATOM      9  C   UNL     1       1.178  10.070  21.741  0.00  0.00    +0.000 C 
ATOM     10  H   UNL     1       1.592   6.846  19.680  0.00  0.00    +0.000 HD
ENDROOT
BRANCH   1  17
ATOM     11  C   UNL     1      -6.166  13.893  21.085  0.00  0.00    +0.000 C 
ATOM     12  C   UNL     1      -4.900  13.287  21.617  0.00  0.00    +0.000 A 
ATOM     13  C   UNL     1      -4.750  12.997  22.982  0.00  0.00    +0.000 A 
ATOM     14  C   UNL     1      -3.562  12.455  23.498  0.00  0.00    +0.000 A 
ATOM     15  C   UNL     1      -2.531  12.229  22.586  0.00  0.00    +0.000 A 
ATOM     16  N   UNL     1      -1.251  11.755  22.726  0.00  0.00    +0.000 N 
ATOM     17  C   UNL     1      -0.642  11.796  21.493  0.00  0.00    +0.000 A 
ATOM     18  N   UNL     1      -1.487  12.202  20.570  0.00  0.00    +0.000 NA
ATOM     19  C   UNL     1      -2.648  12.500  21.230  0.00  0.00    +0.000 A 
ATOM     20  C   UNL     1      -3.843  13.031  20.729  0.00  0.00    +0.000 A 
ATOM     21  H   UNL     1      -0.814  11.483  23.594  0.00  0.00    +0.000 HD
ENDBRANCH   1  17
BRANCH   7  22
ATOM     22  C   UNL     1       3.017   6.379  18.233  0.00  0.00    +0.000 C 
BRANCH  22  23
ATOM     23  C   UNL     1       2.514   4.967  18.372  0.00  0.00    +0.000 A 
ATOM     24  C   UNL     1       2.879   3.973  17.456  0.00  0.00    +0.000 A 
ATOM     25  C   UNL     1       2.399   2.669  17.600  0.00  0.00    +0.000 A 
ATOM     26  C   UNL     1       1.553   2.347  18.661  0.00  0.00    +0.000 A 
ATOM     27  C   UNL     1       1.194   3.324  19.585  0.00  0.00    +0.000 A 
ATOM     28  C   UNL     1       1.674   4.626  19.445  0.00  0.00    +0.000 A 
ENDBRANCH  22  23
ENDBRANCH   7  22
TORSDOF 3
ENDMDL
MODEL 6
REMARK VINA RESULT:      -7.9      4.224      9.906
REMARK  Name = 
REMARK  4 active torsions:
REMARK  status: ('A' for Active; 'I' for Inactive)
REMARK    1  A    between atoms: C_1  and  C_2
REMARK    2  A    between atoms: C_7  and  C_8
REMARK    3  A    between atoms: N_14  and  C_15
REMARK    4  A    between atoms: C_15  and  C_16
REMARK                            x       y       z     vdW  Elec       q    Type
REMARK                         _______ _______ _______ _____ _____    ______ ____
ROOT
ATOM      1  C   UNL     1       0.708  11.240  20.007  0.00  0.00    +0.000 C 
ATOM      2  C   UNL     1       1.415  10.932  18.678  0.00  0.00    +0.000 C 
ATOM      3  C   UNL     1       1.125   9.512  18.190  0.00  0.00    +0.000 C 
ATOM      4  N   UNL     1       1.477   8.537  19.218  0.00  0.00    +0.000 N 
ATOM      5  C   UNL     1       2.394   7.552  18.903  0.00  0.00    +0.000 C 
ATOM      6  O   UNL     1       2.959   7.492  17.813  0.00  0.00    +0.000 OA
ATOM      7  N   UNL     1       2.679   6.664  19.901  0.00  0.00    +0.000 N 
ATOM      8  C   UNL     1       0.783   8.722  20.495  0.00  0.00    +0.000 C 
ATOM      9  C   UNL     1       0.996  10.138  21.040  0.00  0.00    +0.000 C 
ATOM     10  H   UNL     1       1.934   6.439  20.537  0.00  0.00    +0.000 HD
ENDROOT
BRANCH   1  17
ATOM     11  C   UNL     1      -6.159  12.123  17.439  0.00  0.00    +0.000 C 
ATOM     12  C   UNL     1      -4.994  12.157  18.384  0.00  0.00    +0.000 A 
ATOM     13  C   UNL     1      -5.066  12.846  19.604  0.00  0.00    +0.000 A 
ATOM     14  C   UNL     1      -3.975  12.908  20.485  0.00  0.00    +0.000 A 
ATOM     15  C   UNL     1      -2.808  12.259  20.082  0.00  0.00    +0.000 A 
ATOM     16  N   UNL     1      -1.566  12.137  20.651  0.00  0.00    +0.000 N 
ATOM     17  C   UNL     1      -0.764  11.431  19.783  0.00  0.00    +0.000 A 
ATOM     18  N   UNL     1      -1.450  11.041  18.730  0.00  0.00    +0.000 NA
ATOM     19  C   UNL     1      -2.705  11.565  18.885  0.00  0.00    +0.000 A 
ATOM     20  C   UNL     1      -3.805  11.503  18.021  0.00  0.00    +0.000 A 
ATOM     21  H   UNL     1      -1.273  12.548  21.525  0.00  0.00    +0.000 HD
ENDBRANCH   1  17
BRANCH   7  22
ATOM     22  C   UNL     1       3.656   5.617  19.700  0.00  0.00    +0.000 C 
BRANCH  22  23
ATOM     23  C   UNL     1       2.976   4.304  19.415  0.00  0.00    +0.000 A 
ATOM     24  C   UNL     1       1.695   4.029  19.910  0.00  0.00    +0.000 A 
ATOM     25  C   UNL     1       1.082   2.803  19.639  0.00  0.00    +0.000 A 
ATOM     26  C   UNL     1       1.741   1.844  18.870  0.00  0.00    +0.000 A 
ATOM     27  C   UNL     1       3.010   2.112  18.362  0.00  0.00    +0.000 A 
ATOM     28  C   UNL     1       3.623   3.336  18.629  0.00  0.00    +0.000 A 
ENDBRANCH  22  23
ENDBRANCH   7  22
TORSDOF 3
ENDMDL
MODEL 7
REMARK VINA RESULT:      -7.9      4.578     10.430
REMARK  Name = 
REMARK  4 active torsions:
REMARK  status: ('A' for Active; 'I' for Inactive)
REMARK    1  A    between atoms: C_1  and  C_2
REMARK    2  A    between atoms: C_7  and  C_8
REMARK    3  A    between atoms: N_14  and  C_15
REMARK    4  A    between atoms: C_15  and  C_16
REMARK                            x       y       z     vdW  Elec       q    Type
REMARK                         _______ _______ _______ _____ _____    ______ ____
ROOT
ATOM      1  C   UNL     1       0.254  11.980  20.440  0.00  0.00    +0.000 C 
ATOM      2  C   UNL     1       0.926  11.745  19.078  0.00  0.00    +0.000 C 
ATOM      3  C   UNL     1       0.593  10.367  18.505  0.00  0.00    +0.000 C 
ATOM      4  N   UNL     1       0.942   9.318  19.460  0.00  0.00    +0.000 N 
ATOM      5  C   UNL     1       1.829   8.336  19.060  0.00  0.00    +0.000 C 
ATOM      6  O   UNL     1       2.370   8.336  17.956  0.00  0.00    +0.000 OA
ATOM      7  N   UNL     1       2.114   7.378  19.992  0.00  0.00    +0.000 N 
ATOM      8  C   UNL     1       0.280   9.435  20.761  0.00  0.00    +0.000 C 
ATOM      9  C   UNL     1       0.537  10.807  21.392  0.00  0.00    +0.000 C 
ATOM     10  H   UNL     1       1.377   7.129  20.628  0.00  0.00    +0.000 HD
ENDROOT
BRANCH   1  17
ATOM     11  C   UNL     1      -7.043  12.925  21.059  0.00  0.00    +0.000 C 
ATOM     12  C   UNL     1      -5.707  12.651  20.434  0.00  0.00    +0.000 A 
ATOM     13  C   UNL     1      -5.603  12.166  19.121  0.00  0.00    +0.000 A 
ATOM     14  C   UNL     1      -4.361  11.880  18.533  0.00  0.00    +0.000 A 
ATOM     15  C   UNL     1      -3.231  12.092  19.324  0.00  0.00    +0.000 A 
ATOM     16  N   UNL     1      -1.891  11.897  19.106  0.00  0.00    +0.000 N 
ATOM     17  C   UNL     1      -1.217  12.219  20.261  0.00  0.00    +0.000 A 
ATOM     18  N   UNL     1      -2.050  12.672  21.174  0.00  0.00    +0.000 NA
ATOM     19  C   UNL     1      -3.298  12.576  20.623  0.00  0.00    +0.000 A 
ATOM     20  C   UNL     1      -4.544  12.865  21.192  0.00  0.00    +0.000 A 
ATOM     21  H   UNL     1      -1.478  11.524  18.264  0.00  0.00    +0.000 HD
ENDBRANCH   1  17
BRANCH   7  22
ATOM     22  C   UNL     1       3.062   6.325  19.701  0.00  0.00    +0.000 C 
BRANCH  22  23
ATOM     23  C   UNL     1       2.355   5.005  19.540  0.00  0.00    +0.000 A 
ATOM     24  C   UNL     1       2.299   4.360  18.298  0.00  0.00    +0.000 A 
ATOM     25  C   UNL     1       1.635   3.138  18.168  0.00  0.00    +0.000 A 
ATOM     26  C   UNL     1       1.024   2.550  19.275  0.00  0.00    +0.000 A 
ATOM     27  C   UNL     1       1.084   3.177  20.517  0.00  0.00    +0.000 A 
ATOM     28  C   UNL     1       1.749   4.396  20.651  0.00  0.00    +0.000 A 
ENDBRANCH  22  23
ENDBRANCH   7  22
TORSDOF 3
ENDMDL
MODEL 8
REMARK VINA RESULT:      -7.9      4.532     10.930
REMARK  Name = 
REMARK  4 active torsions:
REMARK  status: ('A' for Active; 'I' for Inactive)
REMARK    1  A    between atoms: C_1  and  C_2
REMARK    2  A    between atoms: C_7  and  C_8
REMARK    3  A    between atoms: N_14  and  C_15
REMARK    4  A    between atoms: C_15  and  C_16
REMARK                            x       y       z     vdW  Elec       q    Type
REMARK                         _______ _______ _______ _____ _____    ______ ____
ROOT
ATOM      1  C   UNL     1       0.050  12.191  20.474  0.00  0.00    +0.000 C 
ATOM      2  C   UNL     1       0.303  11.886  18.990  0.00  0.00    +0.000 C 
ATOM      3  C   UNL     1      -0.070  10.447  18.630  0.00  0.00    +0.000 C 
ATOM      4  N   UNL     1       0.635   9.505  19.495  0.00  0.00    +0.000 N 
ATOM      5  C   UNL     1       1.442   8.550  18.906  0.00  0.00    +0.000 C 
ATOM      6  O   UNL     1       1.628   8.491  17.692  0.00  0.00    +0.000 OA
ATOM      7  N   UNL     1       2.071   7.692  19.763  0.00  0.00    +0.000 N 
ATOM      8  C   UNL     1       0.383   9.688  20.926  0.00  0.00    +0.000 C 
ATOM      9  C   UNL     1       0.701  11.121  21.365  0.00  0.00    +0.000 C 
ATOM     10  H   UNL     1       1.581   7.452  20.607  0.00  0.00    +0.000 HD
ENDROOT
BRANCH   1  17
ATOM     11  C   UNL     1      -7.192  13.635  20.475  0.00  0.00    +0.000 C 
ATOM     12  C   UNL     1      -5.830  13.263  20.984  0.00  0.00    +0.000 A 
ATOM     13  C   UNL     1      -5.571  13.156  22.359  0.00  0.00    +0.000 A 
ATOM     14  C   UNL     1      -4.296  12.835  22.850  0.00  0.00    +0.000 A 
ATOM     15  C   UNL     1      -3.293  12.637  21.901  0.00  0.00    +0.000 A 
ATOM     16  N   UNL     1      -1.955  12.350  22.005  0.00  0.00    +0.000 N 
ATOM     17  C   UNL     1      -1.423  12.323  20.737  0.00  0.00    +0.000 A 
ATOM     18  N   UNL     1      -2.362  12.508  19.834  0.00  0.00    +0.000 NA
ATOM     19  C   UNL     1      -3.516  12.730  20.534  0.00  0.00    +0.000 A 
ATOM     20  C   UNL     1      -4.796  13.041  20.060  0.00  0.00    +0.000 A 
ATOM     21  H   UNL     1      -1.440  12.241  22.866  0.00  0.00    +0.000 HD
ENDBRANCH   1  17
BRANCH   7  22
ATOM     22  C   UNL     1       2.974   6.679  19.263  0.00  0.00    +0.000 C 
BRANCH  22  23
ATOM     23  C   UNL     1       2.292   5.337  19.217  0.00  0.00    +0.000 A 
ATOM     24  C   UNL     1       2.264   4.577  18.041  0.00  0.00    +0.000 A 
ATOM     25  C   UNL     1       1.623   3.337  18.017  0.00  0.00    +0.000 A 
ATOM     26  C   UNL     1       1.007   2.843  19.167  0.00  0.00    +0.000 A 
ATOM     27  C   UNL     1       1.040   3.584  20.346  0.00  0.00    +0.000 A 
ATOM     28  C   UNL     1       1.681   4.822  20.373  0.00  0.00    +0.000 A 
ENDBRANCH  22  23
ENDBRANCH   7  22
TORSDOF 3
ENDMDL
MODEL 9
REMARK VINA RESULT:      -7.9      4.235     10.142
REMARK  Name = 
REMARK  4 active torsions:
REMARK  status: ('A' for Active; 'I' for Inactive)
REMARK    1  A    between atoms: C_1  and  C_2
REMARK    2  A    between atoms: C_7  and  C_8
REMARK    3  A    between atoms: N_14  and  C_15
REMARK    4  A    between atoms: C_15  and  C_16
REMARK                            x       y       z     vdW  Elec       q    Type
REMARK                         _______ _______ _______ _____ _____    ______ ____
ROOT
ATOM      1  C   UNL     1       0.539  11.525  20.268  0.00  0.00    +0.000 C 
ATOM      2  C   UNL     1       1.179  11.244  18.899  0.00  0.00    +0.000 C 
ATOM      3  C   UNL     1       0.840   9.844  18.386  0.00  0.00    +0.000 C 
ATOM      4  N   UNL     1       1.220   8.833  19.368  0.00  0.00    +0.000 N 
ATOM      5  C   UNL     1       2.103   7.842  18.983  0.00  0.00    +0.000 C 
ATOM      6  O   UNL     1       2.616   7.804  17.867  0.00  0.00    +0.000 OA
ATOM      7  N   UNL     1       2.417   6.920  19.941  0.00  0.00    +0.000 N 
ATOM      8  C   UNL     1       0.589   8.993  20.681  0.00  0.00    +0.000 C 
ATOM      9  C   UNL     1       0.853  10.389  21.255  0.00  0.00    +0.000 C 
ATOM     10  H   UNL     1       1.697   6.690  20.605  0.00  0.00    +0.000 HD
ENDROOT
BRANCH   1  17
ATOM     11  C   UNL     1      -6.445  12.439  18.054  0.00  0.00    +0.000 C 
ATOM     12  C   UNL     1      -5.223  12.507  18.921  0.00  0.00    +0.000 A 
ATOM     13  C   UNL     1      -5.198  13.292  20.084  0.00  0.00    +0.000 A 
ATOM     14  C   UNL     1      -4.053  13.387  20.889  0.00  0.00    +0.000 A 
ATOM     15  C   UNL     1      -2.933  12.667  20.471  0.00  0.00    +0.000 A 
ATOM     16  N   UNL     1      -1.662  12.548  20.972  0.00  0.00    +0.000 N 
ATOM     17  C   UNL     1      -0.938  11.749  20.118  0.00  0.00    +0.000 A 
ATOM     18  N   UNL     1      -1.700  11.300  19.144  0.00  0.00    +0.000 NA
ATOM     19  C   UNL     1      -2.926  11.878  19.330  0.00  0.00    +0.000 A 
ATOM     20  C   UNL     1      -4.079  11.786  18.541  0.00  0.00    +0.000 A 
ATOM     21  H   UNL     1      -1.303  13.017  21.791  0.00  0.00    +0.000 HD
ENDBRANCH   1  17
BRANCH   7  22
ATOM     22  C   UNL     1       3.363   5.862  19.665  0.00  0.00    +0.000 C 
BRANCH  22  23
ATOM     23  C   UNL     1       2.646   4.587  19.310  0.00  0.00    +0.000 A 
ATOM     24  C   UNL     1       3.028   3.824  18.201  0.00  0.00    +0.000 A 
ATOM     25  C   UNL     1       2.347   2.646  17.885  0.00  0.00    +0.000 A 
ATOM     26  C   UNL     1       1.281   2.219  18.676  0.00  0.00    +0.000 A 
ATOM     27  C   UNL     1       0.899   2.964  19.789  0.00  0.00    +0.000 A 
ATOM     28  C   UNL     1       1.579   4.139  20.108  0.00  0.00    +0.000 A 
ENDBRANCH  22  23
ENDBRANCH   7  22
TORSDOF 3
ENDMDL
