MODEL 1
REMARK VINA RESULT:      -8.4      0.000      0.000
REMARK  Name = 
REMARK  6 active torsions:
REMARK  status: ('A' for Active; 'I' for Inactive)
REMARK    1  A    between atoms: C_1  and  C_2
REMARK    2  A    between atoms: C_2  and  C_3
REMARK    3  A    between atoms: C_3  and  N_4
REMARK    4  A    between atoms: N_8  and  C_9
REMARK    5  A    between atoms: C_9  and  C_10
REMARK    6  A    between atoms: C_10  and  C_11
REMARK                            x       y       z     vdW  Elec       q    Type
REMARK                         _______ _______ _______ _____ _____    ______ ____
ROOT
ATOM      1  N   UNL     1       7.386   6.616  16.684  0.00  0.00    +0.000 N 
ATOM      2  C   UNL     1       6.428   5.722  16.201  0.00  0.00    +0.000 A 
ATOM      3  N   UNL     1       6.595   5.257  14.974  0.00  0.00    +0.000 NA
ATOM      4  C   UNL     1       5.672   4.393  14.566  0.00  0.00    +0.000 A 
ATOM      5  N   UNL     1       5.689   3.902  13.268  0.00  0.00    +0.000 N 
ATOM      6  N   UNL     1       4.685   3.933  15.322  0.00  0.00    +0.000 NA
ATOM      7  C   UNL     1       4.578   4.462  16.538  0.00  0.00    +0.000 A 
ATOM      8  N   UNL     1       3.553   4.041  17.403  0.00  0.00    +0.000 N 
ATOM      9  C   UNL     1       3.182   2.631  17.310  0.00  0.00    +0.000 C 
ATOM     10  C   UNL     1       3.382   1.950  18.659  0.00  0.00    +0.000 C 
ATOM     11  C   UNL     1       2.493   2.596  19.713  0.00  0.00    +0.000 C 
ATOM     12  C   UNL     1       2.502   4.100  19.629  0.00  0.00    +0.000 A 
ATOM     13  C   UNL     1       1.955   4.839  20.693  0.00  0.00    +0.000 A 
ATOM     14  C   UNL     1       1.928   6.231  20.653  0.00  0.00    +0.000 A 
ATOM     15  C   UNL     1       2.442   6.897  19.551  0.00  0.00    +0.000 A 
ATOM     16  C   UNL     1       2.982   6.169  18.487  0.00  0.00    +0.000 A 
ATOM     17  C   UNL     1       3.024   4.762  18.498  0.00  0.00    +0.000 A 
ATOM     18  N   UNL     1       5.432   5.367  16.991  0.00  0.00    +0.000 NA
ATOM     19  H   UNL     1       8.224   6.478  16.132  0.00  0.00    +0.000 HD
ATOM     20  H   UNL     1       5.104   3.073  13.255  0.00  0.00    +0.000 HD
ENDROOT
BRANCH   1  21
ATOM     21  C   UNL     1       7.546   6.555  18.132  0.00  0.00    +0.000 C 
BRANCH  21  23
ATOM     22  C   UNL     1       8.045   8.992  17.787  0.00  0.00    +0.000 C 
ATOM     23  C   UNL     1       8.345   7.757  18.626  0.00  0.00    +0.000 C 
ENDBRANCH  21  23
ENDBRANCH   1  21
BRANCH   5  24
ATOM     24  C   UNL     1       6.983   3.793  12.625  0.00  0.00    +0.000 C 
BRANCH  24  25
ATOM     25  C   UNL     1       6.920   2.688  11.568  0.00  0.00    +0.000 C 
ATOM     26  C   UNL     1       5.533   2.077  11.469  0.00  0.00    +0.000 C 
ENDBRANCH  24  25
ENDBRANCH   5  24
TORSDOF 4
ENDMDL
MODEL 2
REMARK VINA RESULT:      -8.1      3.149      6.117
REMARK  Name = 
REMARK  6 active torsions:
REMARK  status: ('A' for Active; 'I' for Inactive)
REMARK    1  A    between atoms: C_1  and  C_2
REMARK    2  A    between atoms: C_2  and  C_3
REMARK    3  A    between atoms: C_3  and  N_4
REMARK    4  A    between atoms: N_8  and  C_9
REMARK    5  A    between atoms: C_9  and  C_10
REMARK    6  A    between atoms: C_10  and  C_11
REMARK                            x       y       z     vdW  Elec       q    Type
REMARK                         _______ _______ _______ _____ _____    ______ ____
ROOT
ATOM      1  N   UNL     1       2.744   4.517  20.092  0.00  0.00    +0.000 N 
ATOM      2  C   UNL     1       2.945   5.677  19.341  0.00  0.00    +0.000 A 
ATOM      3  N   UNL     1       3.837   5.621  18.365  0.00  0.00    +0.000 NA
ATOM      4  C   UNL     1       3.978   6.740  17.664  0.00  0.00    +0.000 A 
ATOM      5  N   UNL     1       4.943   6.835  16.672  0.00  0.00    +0.000 N 
ATOM      6  N   UNL     1       3.245   7.832  17.833  0.00  0.00    +0.000 NA
ATOM      7  C   UNL     1       2.381   7.812  18.844  0.00  0.00    +0.000 A 
ATOM      8  N   UNL     1       1.571   8.931  19.104  0.00  0.00    +0.000 N 
ATOM      9  C   UNL     1       1.127   9.679  17.930  0.00  0.00    +0.000 C 
ATOM     10  C   UNL     1      -0.396   9.706  17.874  0.00  0.00    +0.000 C 
ATOM     11  C   UNL     1      -0.957  10.400  19.108  0.00  0.00    +0.000 C 
ATOM     12  C   UNL     1      -0.264   9.968  20.375  0.00  0.00    +0.000 A 
ATOM     13  C   UNL     1      -0.844  10.309  21.610  0.00  0.00    +0.000 A 
ATOM     14  C   UNL     1      -0.233   9.944  22.807  0.00  0.00    +0.000 A 
ATOM     15  C   UNL     1       0.963   9.242  22.783  0.00  0.00    +0.000 A 
ATOM     16  C   UNL     1       1.547   8.905  21.558  0.00  0.00    +0.000 A 
ATOM     17  C   UNL     1       0.953   9.259  20.332  0.00  0.00    +0.000 A 
ATOM     18  N   UNL     1       2.226   6.748  19.618  0.00  0.00    +0.000 NA
ATOM     19  H   UNL     1       3.069   3.740  19.529  0.00  0.00    +0.000 HD
ATOM     20  H   UNL     1       4.696   7.629  16.089  0.00  0.00    +0.000 HD
ENDROOT
BRANCH   1  21
ATOM     21  C   UNL     1       1.392   4.410  20.627  0.00  0.00    +0.000 C 
BRANCH  21  23
ATOM     22  C   UNL     1       0.857   2.610  18.961  0.00  0.00    +0.000 C 
ATOM     23  C   UNL     1       0.857   2.994  20.434  0.00  0.00    +0.000 C 
ENDBRANCH  21  23
ENDBRANCH   1  21
BRANCH   5  24
ATOM     24  C   UNL     1       5.299   5.611  15.983  0.00  0.00    +0.000 C 
BRANCH  24  25
ATOM     25  C   UNL     1       6.817   5.430  16.045  0.00  0.00    +0.000 C 
ATOM     26  C   UNL     1       7.254   4.741  17.327  0.00  0.00    +0.000 C 
ENDBRANCH  24  25
ENDBRANCH   5  24
TORSDOF 4
ENDMDL
MODEL 3
REMARK VINA RESULT:      -7.7      0.707      1.062
REMARK  Name = 
REMARK  6 active torsions:
REMARK  status: ('A' for Active; 'I' for Inactive)
REMARK    1  A    between atoms: C_1  and  C_2
REMARK    2  A    between atoms: C_2  and  C_3
REMARK    3  A    between atoms: C_3  and  N_4
REMARK    4  A    between atoms: N_8  and  C_9
REMARK    5  A    between atoms: C_9  and  C_10
REMARK    6  A    between atoms: C_10  and  C_11
REMARK                            x       y       z     vdW  Elec       q    Type
REMARK                         _______ _______ _______ _____ _____    ______ ____
ROOT
ATOM      1  N   UNL     1       7.411   6.780  16.766  0.00  0.00    +0.000 N 
ATOM      2  C   UNL     1       6.466   5.858  16.313  0.00  0.00    +0.000 A 
ATOM      3  N   UNL     1       6.670   5.313  15.124  0.00  0.00    +0.000 NA
ATOM      4  C   UNL     1       5.758   4.425  14.745  0.00  0.00    +0.000 A 
ATOM      5  N   UNL     1       5.813   3.850  13.484  0.00  0.00    +0.000 N 
ATOM      6  N   UNL     1       4.747   4.016  15.499  0.00  0.00    +0.000 NA
ATOM      7  C   UNL     1       4.603   4.624  16.673  0.00  0.00    +0.000 A 
ATOM      8  N   UNL     1       3.551   4.261  17.532  0.00  0.00    +0.000 N 
ATOM      9  C   UNL     1       3.179   2.848  17.520  0.00  0.00    +0.000 C 
ATOM     10  C   UNL     1       3.335   2.256  18.916  0.00  0.00    +0.000 C 
ATOM     11  C   UNL     1       2.416   2.970  19.897  0.00  0.00    +0.000 C 
ATOM     12  C   UNL     1       2.432   4.466  19.715  0.00  0.00    +0.000 A 
ATOM     13  C   UNL     1       1.854   5.273  20.712  0.00  0.00    +0.000 A 
ATOM     14  C   UNL     1       1.832   6.659  20.580  0.00  0.00    +0.000 A 
ATOM     15  C   UNL     1       2.381   7.252  19.453  0.00  0.00    +0.000 A 
ATOM     16  C   UNL     1       2.952   6.455  18.456  0.00  0.00    +0.000 A 
ATOM     17  C   UNL     1       2.990   5.052  18.561  0.00  0.00    +0.000 A 
ATOM     18  N   UNL     1       5.445   5.556  17.093  0.00  0.00    +0.000 NA
ATOM     19  H   UNL     1       8.265   6.606  16.250  0.00  0.00    +0.000 HD
ATOM     20  H   UNL     1       5.227   3.023  13.506  0.00  0.00    +0.000 HD
ENDROOT
BRANCH   1  21
ATOM     21  C   UNL     1       7.526   6.815  18.218  0.00  0.00    +0.000 C 
BRANCH  21  23
ATOM     22  C   UNL     1       8.108   9.240  17.929  0.00  0.00    +0.000 C 
ATOM     23  C   UNL     1       8.457   7.944  18.649  0.00  0.00    +0.000 C 
ENDBRANCH  21  23
ENDBRANCH   1  21
BRANCH   5  24
ATOM     24  C   UNL     1       7.126   3.699  12.889  0.00  0.00    +0.000 C 
BRANCH  24  25
ATOM     25  C   UNL     1       7.239   4.641  11.688  0.00  0.00    +0.000 C 
ATOM     26  C   UNL     1       8.058   5.878  12.013  0.00  0.00    +0.000 C 
ENDBRANCH  24  25
ENDBRANCH   5  24
TORSDOF 4
ENDMDL
MODEL 4
REMARK VINA RESULT:      -7.4      3.080      5.904
REMARK  Name = 
REMARK  6 active torsions:
REMARK  status: ('A' for Active; 'I' for Inactive)
REMARK    1  A    between atoms: C_1  and  C_2
REMARK    2  A    between atoms: C_2  and  C_3
REMARK    3  A    between atoms: C_3  and  N_4
REMARK    4  A    between atoms: N_8  and  C_9
REMARK    5  A    between atoms: C_9  and  C_10
REMARK    6  A    between atoms: C_10  and  C_11
REMARK                            x       y       z     vdW  Elec       q    Type
REMARK                         _______ _______ _______ _____ _____    ______ ____
ROOT
ATOM      1  N   UNL     1       2.711   4.392  20.074  0.00  0.00    +0.000 N 
ATOM      2  C   UNL     1       2.933   5.537  19.306  0.00  0.00    +0.000 A 
ATOM      3  N   UNL     1       3.813   5.447  18.323  0.00  0.00    +0.000 NA
ATOM      4  C   UNL     1       3.974   6.553  17.605  0.00  0.00    +0.000 A 
ATOM      5  N   UNL     1       4.932   6.612  16.603  0.00  0.00    +0.000 N 
ATOM      6  N   UNL     1       3.270   7.664  17.767  0.00  0.00    +0.000 NA
ATOM      7  C   UNL     1       2.416   7.678  18.787  0.00  0.00    +0.000 A 
ATOM      8  N   UNL     1       1.636   8.820  19.040  0.00  0.00    +0.000 N 
ATOM      9  C   UNL     1       1.198   9.564  17.861  0.00  0.00    +0.000 C 
ATOM     10  C   UNL     1      -0.324   9.627  17.820  0.00  0.00    +0.000 C 
ATOM     11  C   UNL     1      -0.855  10.351  19.050  0.00  0.00    +0.000 C 
ATOM     12  C   UNL     1      -0.161   9.918  20.315  0.00  0.00    +0.000 A 
ATOM     13  C   UNL     1      -0.720  10.289  21.552  0.00  0.00    +0.000 A 
ATOM     14  C   UNL     1      -0.105   9.925  22.747  0.00  0.00    +0.000 A 
ATOM     15  C   UNL     1       1.073   9.193  22.720  0.00  0.00    +0.000 A 
ATOM     16  C   UNL     1       1.636   8.827  21.495  0.00  0.00    +0.000 A 
ATOM     17  C   UNL     1       1.039   9.179  20.270  0.00  0.00    +0.000 A 
ATOM     18  N   UNL     1       2.243   6.629  19.576  0.00  0.00    +0.000 NA
ATOM     19  H   UNL     1       3.011   3.600  19.518  0.00  0.00    +0.000 HD
ATOM     20  H   UNL     1       4.698   7.403  16.013  0.00  0.00    +0.000 HD
ENDROOT
BRANCH   1  21
ATOM     21  C   UNL     1       1.363   4.325  20.624  0.00  0.00    +0.000 C 
BRANCH  21  23
ATOM     22  C   UNL     1       2.497   2.336  21.655  0.00  0.00    +0.000 C 
ATOM     23  C   UNL     1       1.162   3.010  21.372  0.00  0.00    +0.000 C 
ENDBRANCH  21  23
ENDBRANCH   1  21
BRANCH   5  24
ATOM     24  C   UNL     1       5.250   5.370  15.927  0.00  0.00    +0.000 C 
BRANCH  24  25
ATOM     25  C   UNL     1       6.457   5.598  15.013  0.00  0.00    +0.000 C 
ATOM     26  C   UNL     1       6.647   4.455  14.030  0.00  0.00    +0.000 C 
ENDBRANCH  24  25
ENDBRANCH   5  24
TORSDOF 4
ENDMDL
MODEL 5
REMARK VINA RESULT:      -6.9      0.927      1.493
REMARK  Name = 
REMARK  6 active torsions:
REMARK  status: ('A' for Active; 'I' for Inactive)
REMARK    1  A    between atoms: C_1  and  C_2
REMARK    2  A    between atoms: C_2  and  C_3
REMARK    3  A    between atoms: C_3  and  N_4
REMARK    4  A    between atoms: N_8  and  C_9
REMARK    5  A    between atoms: C_9  and  C_10
REMARK    6  A    between atoms: C_10  and  C_11
REMARK                            x       y       z     vdW  Elec       q    Type
REMARK                         _______ _______ _______ _____ _____    ______ ____
ROOT
ATOM      1  N   UNL     1       7.309   7.002  16.630  0.00  0.00    +0.000 N 
ATOM      2  C   UNL     1       6.376   6.046  16.222  0.00  0.00    +0.000 A 
ATOM      3  N   UNL     1       6.582   5.455  15.057  0.00  0.00    +0.000 NA
ATOM      4  C   UNL     1       5.682   4.538  14.722  0.00  0.00    +0.000 A 
ATOM      5  N   UNL     1       5.739   3.910  13.485  0.00  0.00    +0.000 N 
ATOM      6  N   UNL     1       4.681   4.146  15.498  0.00  0.00    +0.000 NA
ATOM      7  C   UNL     1       4.535   4.801  16.647  0.00  0.00    +0.000 A 
ATOM      8  N   UNL     1       3.493   4.459  17.526  0.00  0.00    +0.000 N 
ATOM      9  C   UNL     1       3.144   3.041  17.577  0.00  0.00    +0.000 C 
ATOM     10  C   UNL     1       3.316   2.512  18.996  0.00  0.00    +0.000 C 
ATOM     11  C   UNL     1       2.391   3.253  19.952  0.00  0.00    +0.000 C 
ATOM     12  C   UNL     1       2.383   4.740  19.706  0.00  0.00    +0.000 A 
ATOM     13  C   UNL     1       1.798   5.580  20.671  0.00  0.00    +0.000 A 
ATOM     14  C   UNL     1       1.754   6.958  20.480  0.00  0.00    +0.000 A 
ATOM     15  C   UNL     1       2.288   7.510  19.325  0.00  0.00    +0.000 A 
ATOM     16  C   UNL     1       2.866   6.681  18.361  0.00  0.00    +0.000 A 
ATOM     17  C   UNL     1       2.926   5.284  18.524  0.00  0.00    +0.000 A 
ATOM     18  N   UNL     1       5.365   5.763  17.021  0.00  0.00    +0.000 NA
ATOM     19  H   UNL     1       8.163   6.819  16.116  0.00  0.00    +0.000 HD
ATOM     20  H   UNL     1       5.165   3.076  13.547  0.00  0.00    +0.000 HD
ENDROOT
BRANCH   1  21
ATOM     21  C   UNL     1       7.432   7.100  18.079  0.00  0.00    +0.000 C 
BRANCH  21  23
ATOM     22  C   UNL     1       7.561   5.524  20.030  0.00  0.00    +0.000 C 
ATOM     23  C   UNL     1       8.095   5.845  18.640  0.00  0.00    +0.000 C 
ENDBRANCH  21  23
ENDBRANCH   1  21
BRANCH   5  24
ATOM     24  C   UNL     1       7.051   3.754  12.889  0.00  0.00    +0.000 C 
BRANCH  24  25
ATOM     25  C   UNL     1       7.246   4.839  11.828  0.00  0.00    +0.000 C 
ATOM     26  C   UNL     1       8.300   5.853  12.242  0.00  0.00    +0.000 C 
ENDBRANCH  24  25
ENDBRANCH   5  24
TORSDOF 4
ENDMDL
MODEL 6
REMARK VINA RESULT:      -6.9      1.406      5.331
REMARK  Name = 
REMARK  6 active torsions:
REMARK  status: ('A' for Active; 'I' for Inactive)
REMARK    1  A    between atoms: C_1  and  C_2
REMARK    2  A    between atoms: C_2  and  C_3
REMARK    3  A    between atoms: C_3  and  N_4
REMARK    4  A    between atoms: N_8  and  C_9
REMARK    5  A    between atoms: C_9  and  C_10
REMARK    6  A    between atoms: C_10  and  C_11
REMARK                            x       y       z     vdW  Elec       q    Type
REMARK                         _______ _______ _______ _____ _____    ______ ____
ROOT
ATOM      1  N   UNL     1       7.314   4.783  15.054  0.00  0.00    +0.000 N 
ATOM      2  C   UNL     1       6.882   5.453  16.201  0.00  0.00    +0.000 A 
ATOM      3  N   UNL     1       7.595   6.492  16.602  0.00  0.00    +0.000 NA
ATOM      4  C   UNL     1       7.133   7.111  17.683  0.00  0.00    +0.000 A 
ATOM      5  N   UNL     1       7.840   8.160  18.252  0.00  0.00    +0.000 N 
ATOM      6  N   UNL     1       6.002   6.802  18.301  0.00  0.00    +0.000 NA
ATOM      7  C   UNL     1       5.353   5.735  17.845  0.00  0.00    +0.000 A 
ATOM      8  N   UNL     1       4.150   5.328  18.449  0.00  0.00    +0.000 N 
ATOM      9  C   UNL     1       3.294   6.403  18.947  0.00  0.00    +0.000 C 
ATOM     10  C   UNL     1       1.933   6.344  18.265  0.00  0.00    +0.000 C 
ATOM     11  C   UNL     1       1.245   5.021  18.573  0.00  0.00    +0.000 C 
ATOM     12  C   UNL     1       2.184   3.847  18.467  0.00  0.00    +0.000 A 
ATOM     13  C   UNL     1       1.642   2.549  18.454  0.00  0.00    +0.000 A 
ATOM     14  C   UNL     1       2.471   1.433  18.372  0.00  0.00    +0.000 A 
ATOM     15  C   UNL     1       3.846   1.602  18.308  0.00  0.00    +0.000 A 
ATOM     16  C   UNL     1       4.391   2.888  18.326  0.00  0.00    +0.000 A 
ATOM     17  C   UNL     1       3.580   4.035  18.407  0.00  0.00    +0.000 A 
ATOM     18  N   UNL     1       5.783   5.039  16.804  0.00  0.00    +0.000 NA
ATOM     19  H   UNL     1       7.901   5.428  14.538  0.00  0.00    +0.000 HD
ATOM     20  H   UNL     1       7.198   8.658  18.860  0.00  0.00    +0.000 HD
ENDROOT
BRANCH   1  21
ATOM     21  C   UNL     1       6.226   4.160  14.311  0.00  0.00    +0.000 C 
BRANCH  21  23
ATOM     22  C   UNL     1       5.570   3.188  12.091  0.00  0.00    +0.000 C 
ATOM     23  C   UNL     1       6.598   4.027  12.838  0.00  0.00    +0.000 C 
ENDBRANCH  21  23
ENDBRANCH   1  21
BRANCH   5  24
ATOM     24  C   UNL     1       8.647   8.968  17.359  0.00  0.00    +0.000 C 
BRANCH  24  25
ATOM     25  C   UNL     1       8.867  10.342  17.996  0.00  0.00    +0.000 C 
ATOM     26  C   UNL     1       9.341  10.231  19.435  0.00  0.00    +0.000 C 
ENDBRANCH  24  25
ENDBRANCH   5  24
TORSDOF 4
ENDMDL
MODEL 7
REMARK VINA RESULT:      -6.5      7.496     11.297
REMARK  Name = 
REMARK  6 active torsions:
REMARK  status: ('A' for Active; 'I' for Inactive)
REMARK    1  A    between atoms: C_1  and  C_2
REMARK    2  A    between atoms: C_2  and  C_3
REMARK    3  A    between atoms: C_3  and  N_4
REMARK    4  A    between atoms: N_8  and  C_9
REMARK    5  A    between atoms: C_9  and  C_10
REMARK    6  A    between atoms: C_10  and  C_11
REMARK                            x       y       z     vdW  Elec       q    Type
REMARK                         _______ _______ _______ _____ _____    ______ ____
ROOT
ATOM      1  N   UNL     1      -3.201  12.082  17.906  0.00  0.00    +0.000 N 
ATOM      2  C   UNL     1      -2.566  12.073  19.149  0.00  0.00    +0.000 A 
ATOM      3  N   UNL     1      -3.032  12.895  20.075  0.00  0.00    +0.000 NA
ATOM      4  C   UNL     1      -2.412  12.836  21.248  0.00  0.00    +0.000 A 
ATOM      5  N   UNL     1      -2.750  13.710  22.271  0.00  0.00    +0.000 N 
ATOM      6  N   UNL     1      -1.449  11.975  21.547  0.00  0.00    +0.000 NA
ATOM      7  C   UNL     1      -1.028  11.193  20.557  0.00  0.00    +0.000 A 
ATOM      8  N   UNL     1      -0.002  10.259  20.782  0.00  0.00    +0.000 N 
ATOM      9  C   UNL     1       0.013   9.638  22.105  0.00  0.00    +0.000 C 
ATOM     10  C   UNL     1      -0.118   8.126  21.973  0.00  0.00    +0.000 C 
ATOM     11  C   UNL     1       1.054   7.562  21.182  0.00  0.00    +0.000 C 
ATOM     12  C   UNL     1       1.379   8.391  19.966  0.00  0.00    +0.000 A 
ATOM     13  C   UNL     1       2.246   7.856  18.997  0.00  0.00    +0.000 A 
ATOM     14  C   UNL     1       2.587   8.591  17.864  0.00  0.00    +0.000 A 
ATOM     15  C   UNL     1       2.070   9.866  17.691  0.00  0.00    +0.000 A 
ATOM     16  C   UNL     1       1.212  10.406  18.653  0.00  0.00    +0.000 A 
ATOM     17  C   UNL     1       0.848   9.687  19.808  0.00  0.00    +0.000 A 
ATOM     18  N   UNL     1      -1.565  11.236  19.347  0.00  0.00    +0.000 NA
ATOM     19  H   UNL     1      -4.126  12.470  18.048  0.00  0.00    +0.000 HD
ATOM     20  H   UNL     1      -2.382  13.318  23.132  0.00  0.00    +0.000 HD
ENDROOT
BRANCH   1  21
ATOM     21  C   UNL     1      -3.135  10.797  17.221  0.00  0.00    +0.000 C 
BRANCH  21  23
ATOM     22  C   UNL     1      -2.983  10.116  14.809  0.00  0.00    +0.000 C 
ATOM     23  C   UNL     1      -3.782  10.898  15.842  0.00  0.00    +0.000 C 
ENDBRANCH  21  23
ENDBRANCH   1  21
BRANCH   5  24
ATOM     24  C   UNL     1      -4.120  14.180  22.306  0.00  0.00    +0.000 C 
BRANCH  24  25
ATOM     25  C   UNL     1      -4.905  13.348  23.322  0.00  0.00    +0.000 C 
ATOM     26  C   UNL     1      -3.991  12.688  24.341  0.00  0.00    +0.000 C 
ENDBRANCH  24  25
ENDBRANCH   5  24
TORSDOF 4
ENDMDL
MODEL 8
REMARK VINA RESULT:      -6.4      5.840      8.351
REMARK  Name = 
REMARK  6 active torsions:
REMARK  status: ('A' for Active; 'I' for Inactive)
REMARK    1  A    between atoms: C_1  and  C_2
REMARK    2  A    between atoms: C_2  and  C_3
REMARK    3  A    between atoms: C_3  and  N_4
REMARK    4  A    between atoms: N_8  and  C_9
REMARK    5  A    between atoms: C_9  and  C_10
REMARK    6  A    between atoms: C_10  and  C_11
REMARK                            x       y       z     vdW  Elec       q    Type
REMARK                         _______ _______ _______ _____ _____    ______ ____
ROOT
ATOM      1  N   UNL     1       1.280   8.538  21.762  0.00  0.00    +0.000 N 
ATOM      2  C   UNL     1       1.171   8.826  20.400  0.00  0.00    +0.000 A 
ATOM      3  N   UNL     1       2.084   8.308  19.595  0.00  0.00    +0.000 NA
ATOM      4  C   UNL     1       1.927   8.591  18.307  0.00  0.00    +0.000 A 
ATOM      5  N   UNL     1       2.867   8.179  17.373  0.00  0.00    +0.000 N 
ATOM      6  N   UNL     1       0.903   9.267  17.804  0.00  0.00    +0.000 NA
ATOM      7  C   UNL     1       0.038   9.766  18.681  0.00  0.00    +0.000 A 
ATOM      8  N   UNL     1      -1.072  10.506  18.236  0.00  0.00    +0.000 N 
ATOM      9  C   UNL     1      -1.660  10.070  16.972  0.00  0.00    +0.000 C 
ATOM     10  C   UNL     1      -3.122   9.691  17.180  0.00  0.00    +0.000 C 
ATOM     11  C   UNL     1      -3.914  10.895  17.671  0.00  0.00    +0.000 C 
ATOM     12  C   UNL     1      -3.184  11.666  18.740  0.00  0.00    +0.000 A 
ATOM     13  C   UNL     1      -3.893  12.631  19.479  0.00  0.00    +0.000 A 
ATOM     14  C   UNL     1      -3.257  13.379  20.467  0.00  0.00    +0.000 A 
ATOM     15  C   UNL     1      -1.909  13.173  20.723  0.00  0.00    +0.000 A 
ATOM     16  C   UNL     1      -1.198  12.220  19.989  0.00  0.00    +0.000 A 
ATOM     17  C   UNL     1      -1.813  11.449  18.985  0.00  0.00    +0.000 A 
ATOM     18  N   UNL     1       0.161   9.568  19.985  0.00  0.00    +0.000 NA
ATOM     19  H   UNL     1       1.840   7.697  21.843  0.00  0.00    +0.000 HD
ATOM     20  H   UNL     1       2.428   8.238  16.461  0.00  0.00    +0.000 HD
ENDROOT
BRANCH   1  21
ATOM     21  C   UNL     1      -0.006   8.528  22.449  0.00  0.00    +0.000 C 
BRANCH  21  23
ATOM     22  C   UNL     1      -1.173  10.615  23.216  0.00  0.00    +0.000 C 
ATOM     23  C   UNL     1      -0.049   9.628  23.505  0.00  0.00    +0.000 C 
ENDBRANCH  21  23
ENDBRANCH   1  21
BRANCH   5  24
ATOM     24  C   UNL     1       3.592   6.959  17.667  0.00  0.00    +0.000 C 
BRANCH  24  25
ATOM     25  C   UNL     1       4.673   6.756  16.604  0.00  0.00    +0.000 C 
ATOM     26  C   UNL     1       6.067   6.988  17.161  0.00  0.00    +0.000 C 
ENDBRANCH  24  25
ENDBRANCH   5  24
TORSDOF 4
ENDMDL
MODEL 9
REMARK VINA RESULT:      -6.4      9.283     11.321
REMARK  Name = 
REMARK  6 active torsions:
REMARK  status: ('A' for Active; 'I' for Inactive)
REMARK    1  A    between atoms: C_1  and  C_2
REMARK    2  A    between atoms: C_2  and  C_3
REMARK    3  A    between atoms: C_3  and  N_4
REMARK    4  A    between atoms: N_8  and  C_9
REMARK    5  A    between atoms: C_9  and  C_10
REMARK    6  A    between atoms: C_10  and  C_11
REMARK                            x       y       z     vdW  Elec       q    Type
REMARK                         _______ _______ _______ _____ _____    ______ ____
ROOT
ATOM      1  N   UNL     1      -0.973  10.499  17.800  0.00  0.00    +0.000 N 
ATOM      2  C   UNL     1      -2.269  10.778  17.360  0.00  0.00    +0.000 A 
ATOM      3  N   UNL     1      -2.534  10.569  16.081  0.00  0.00    +0.000 NA
ATOM      4  C   UNL     1      -3.784  10.826  15.714  0.00  0.00    +0.000 A 
ATOM      5  N   UNL     1      -4.164  10.729  14.383  0.00  0.00    +0.000 N 
ATOM      6  N   UNL     1      -4.754  11.185  16.544  0.00  0.00    +0.000 NA
ATOM      7  C   UNL     1      -4.401  11.389  17.810  0.00  0.00    +0.000 A 
ATOM      8  N   UNL     1      -5.363  11.783  18.756  0.00  0.00    +0.000 N 
ATOM      9  C   UNL     1      -6.701  11.226  18.572  0.00  0.00    +0.000 C 
ATOM     10  C   UNL     1      -7.110  10.433  19.807  0.00  0.00    +0.000 C 
ATOM     11  C   UNL     1      -7.149  11.341  21.029  0.00  0.00    +0.000 C 
ATOM     12  C   UNL     1      -5.960  12.264  21.096  0.00  0.00    +0.000 A 
ATOM     13  C   UNL     1      -5.714  12.962  22.293  0.00  0.00    +0.000 A 
ATOM     14  C   UNL     1      -4.636  13.837  22.397  0.00  0.00    +0.000 A 
ATOM     15  C   UNL     1      -3.798  14.028  21.308  0.00  0.00    +0.000 A 
ATOM     16  C   UNL     1      -4.039  13.342  20.115  0.00  0.00    +0.000 A 
ATOM     17  C   UNL     1      -5.120  12.450  19.979  0.00  0.00    +0.000 A 
ATOM     18  N   UNL     1      -3.160  11.203  18.236  0.00  0.00    +0.000 NA
ATOM     19  H   UNL     1      -0.565   9.858  17.130  0.00  0.00    +0.000 HD
ATOM     20  H   UNL     1      -5.177  10.680  14.364  0.00  0.00    +0.000 HD
ENDROOT
BRANCH   1  21
ATOM     21  C   UNL     1      -0.918  10.098  19.200  0.00  0.00    +0.000 C 
BRANCH  21  23
ATOM     22  C   UNL     1      -0.609  12.003  20.806  0.00  0.00    +0.000 C 
ATOM     23  C   UNL     1       0.094  10.954  19.956  0.00  0.00    +0.000 C 
ENDBRANCH  21  23
ENDBRANCH   1  21
BRANCH   5  24
ATOM     24  C   UNL     1      -3.452   9.767  13.566  0.00  0.00    +0.000 C 
BRANCH  24  25
ATOM     25  C   UNL     1      -4.019   9.806  12.145  0.00  0.00    +0.000 C 
ATOM     26  C   UNL     1      -5.483   9.403  12.108  0.00  0.00    +0.000 C 
ENDBRANCH  24  25
ENDBRANCH   5  24
TORSDOF 4
ENDMDL
