MODEL 1
REMARK VINA RESULT:      -6.9      0.000      0.000
REMARK  Name = 
REMARK  6 active torsions:
REMARK  status: ('A' for Active; 'I' for Inactive)
REMARK    1  A    between atoms: C_1  and  N_2
REMARK    2  A    between atoms: C_6  and  S_7
REMARK    3  A    between atoms: S_7  and  C_8
REMARK    4  A    between atoms: C_8  and  C_9
REMARK    5  A    between atoms: C_9  and  N_10
REMARK    6  A    between atoms: C_11  and  C_13
REMARK                            x       y       z     vdW  Elec       q    Type
REMARK                         _______ _______ _______ _____ _____    ______ ____
ROOT
ATOM      1  N   UNL     1       3.656   5.848  19.107  0.00  0.00    +0.000 N 
ATOM      2  C   UNL     1       4.206   6.352  17.952  0.00  0.00    +0.000 C 
ATOM      3  O   UNL     1       3.720   7.289  17.332  0.00  0.00    +0.000 OA
ATOM      4  H   UNL     1       4.030   5.006  19.530  0.00  0.00    +0.000 HD
ENDROOT
BRANCH   2   5
ATOM      5  C   UNL     1       5.451   5.706  17.457  0.00  0.00    +0.000 A 
ATOM      6  C   UNL     1       5.577   5.489  16.082  0.00  0.00    +0.000 A 
ATOM      7  C   UNL     1       6.739   4.894  15.612  0.00  0.00    +0.000 A 
ATOM      8  N   UNL     1       7.755   4.511  16.411  0.00  0.00    +0.000 NA
ATOM      9  C   UNL     1       7.610   4.732  17.733  0.00  0.00    +0.000 A 
ATOM     10  C   UNL     1       6.492   5.322  18.297  0.00  0.00    +0.000 A 
ATOM     11  F   UNL     1       6.441   5.498  19.625  0.00  0.00    +0.000 F 
ENDBRANCH   2   5
BRANCH   1  12
ATOM     12  C   UNL     1       2.444   6.397  19.681  0.00  0.00    +0.000 C 
BRANCH  12  13
ATOM     13  C   UNL     1       1.898   5.552  20.840  0.00  0.00    +0.000 C 
BRANCH  13  14
ATOM     14  S   UNL     1       0.939   4.065  20.321  0.00  0.00    +0.000 S 
BRANCH  14  20
ATOM     15  C   UNL     1       3.768   2.388  20.174  0.00  0.00    +0.000 C 
ATOM     16  N   UNL     1       2.995   2.788  19.028  0.00  0.00    +0.000 N 
ATOM     17  C   UNL     1       3.330   2.503  17.735  0.00  0.00    +0.000 A 
ATOM     18  N   UNL     1       2.437   3.015  16.923  0.00  0.00    +0.000 NA
ATOM     19  N   UNL     1       1.500   3.666  17.699  0.00  0.00    +0.000 NA
ATOM     20  C   UNL     1       1.833   3.504  18.960  0.00  0.00    +0.000 A 
ENDBRANCH  14  20
ENDBRANCH  13  14
ENDBRANCH  12  13
ENDBRANCH   1  12
TORSDOF 5
ENDMDL
MODEL 2
REMARK VINA RESULT:      -6.8      1.126      1.552
REMARK  Name = 
REMARK  6 active torsions:
REMARK  status: ('A' for Active; 'I' for Inactive)
REMARK    1  A    between atoms: C_1  and  N_2
REMARK    2  A    between atoms: C_6  and  S_7
REMARK    3  A    between atoms: S_7  and  C_8
REMARK    4  A    between atoms: C_8  and  C_9
REMARK    5  A    between atoms: C_9  and  N_10
REMARK    6  A    between atoms: C_11  and  C_13
REMARK                            x       y       z     vdW  Elec       q    Type
REMARK                         _______ _______ _______ _____ _____    ______ ____
ROOT
ATOM      1  N   UNL     1       3.732   5.906  19.053  0.00  0.00    +0.000 N 
ATOM      2  C   UNL     1       4.214   6.388  17.859  0.00  0.00    +0.000 C 
ATOM      3  O   UNL     1       3.669   7.285  17.229  0.00  0.00    +0.000 OA
ATOM      4  H   UNL     1       4.153   5.093  19.487  0.00  0.00    +0.000 HD
ENDROOT
BRANCH   2   5
ATOM      5  C   UNL     1       5.459   5.767  17.332  0.00  0.00    +0.000 A 
ATOM      6  C   UNL     1       6.351   5.203  18.249  0.00  0.00    +0.000 A 
ATOM      7  C   UNL     1       7.511   4.615  17.765  0.00  0.00    +0.000 A 
ATOM      8  N   UNL     1       7.826   4.559  16.455  0.00  0.00    +0.000 NA
ATOM      9  C   UNL     1       6.950   5.109  15.591  0.00  0.00    +0.000 A 
ATOM     10  C   UNL     1       5.765   5.714  15.976  0.00  0.00    +0.000 A 
ATOM     11  F   UNL     1       4.959   6.234  15.040  0.00  0.00    +0.000 F 
ENDBRANCH   2   5
BRANCH   1  12
ATOM     12  C   UNL     1       2.527   6.433  19.660  0.00  0.00    +0.000 C 
BRANCH  12  13
ATOM     13  C   UNL     1       2.014   5.565  20.817  0.00  0.00    +0.000 C 
BRANCH  13  14
ATOM     14  S   UNL     1       0.994   4.119  20.299  0.00  0.00    +0.000 S 
BRANCH  14  20
ATOM     15  C   UNL     1       3.804   2.410  20.150  0.00  0.00    +0.000 C 
ATOM     16  N   UNL     1       3.019   2.794  19.007  0.00  0.00    +0.000 N 
ATOM     17  C   UNL     1       3.334   2.478  17.715  0.00  0.00    +0.000 A 
ATOM     18  N   UNL     1       2.436   2.982  16.904  0.00  0.00    +0.000 NA
ATOM     19  N   UNL     1       1.515   3.659  17.679  0.00  0.00    +0.000 NA
ATOM     20  C   UNL     1       1.864   3.520  18.938  0.00  0.00    +0.000 A 
ENDBRANCH  14  20
ENDBRANCH  13  14
ENDBRANCH  12  13
ENDBRANCH   1  12
TORSDOF 5
ENDMDL
MODEL 3
REMARK VINA RESULT:      -6.7      2.241      3.691
REMARK  Name = 
REMARK  6 active torsions:
REMARK  status: ('A' for Active; 'I' for Inactive)
REMARK    1  A    between atoms: C_1  and  N_2
REMARK    2  A    between atoms: C_6  and  S_7
REMARK    3  A    between atoms: S_7  and  C_8
REMARK    4  A    between atoms: C_8  and  C_9
REMARK    5  A    between atoms: C_9  and  N_10
REMARK    6  A    between atoms: C_11  and  C_13
REMARK                            x       y       z     vdW  Elec       q    Type
REMARK                         _______ _______ _______ _____ _____    ______ ____
ROOT
ATOM      1  N   UNL     1       3.609   3.726  18.087  0.00  0.00    +0.000 N 
ATOM      2  C   UNL     1       4.906   3.903  18.506  0.00  0.00    +0.000 C 
ATOM      3  O   UNL     1       5.334   3.467  19.567  0.00  0.00    +0.000 OA
ATOM      4  H   UNL     1       3.269   4.193  17.254  0.00  0.00    +0.000 HD
ENDROOT
BRANCH   2   5
ATOM      5  C   UNL     1       5.810   4.668  17.604  0.00  0.00    +0.000 A 
ATOM      6  C   UNL     1       6.335   5.877  18.071  0.00  0.00    +0.000 A 
ATOM      7  C   UNL     1       7.185   6.591  17.240  0.00  0.00    +0.000 A 
ATOM      8  N   UNL     1       7.532   6.184  16.002  0.00  0.00    +0.000 NA
ATOM      9  C   UNL     1       7.014   5.015  15.576  0.00  0.00    +0.000 A 
ATOM     10  C   UNL     1       6.161   4.228  16.332  0.00  0.00    +0.000 A 
ATOM     11  F   UNL     1       5.697   3.081  15.818  0.00  0.00    +0.000 F 
ENDBRANCH   2   5
BRANCH   1  12
ATOM     12  C   UNL     1       2.640   2.999  18.882  0.00  0.00    +0.000 C 
BRANCH  12  13
ATOM     13  C   UNL     1       1.546   3.906  19.462  0.00  0.00    +0.000 C 
BRANCH  13  14
ATOM     14  S   UNL     1       2.157   5.215  20.606  0.00  0.00    +0.000 S 
BRANCH  14  20
ATOM     15  C   UNL     1       1.228   8.303  21.266  0.00  0.00    +0.000 C 
ATOM     16  N   UNL     1       1.761   7.862  20.005  0.00  0.00    +0.000 N 
ATOM     17  C   UNL     1       1.968   8.678  18.928  0.00  0.00    +0.000 A 
ATOM     18  N   UNL     1       2.447   7.979  17.928  0.00  0.00    +0.000 NA
ATOM     19  N   UNL     1       2.545   6.669  18.351  0.00  0.00    +0.000 NA
ATOM     20  C   UNL     1       2.152   6.616  19.604  0.00  0.00    +0.000 A 
ENDBRANCH  14  20
ENDBRANCH  13  14
ENDBRANCH  12  13
ENDBRANCH   1  12
TORSDOF 5
ENDMDL
MODEL 4
REMARK VINA RESULT:      -6.7      1.463      2.263
REMARK  Name = 
REMARK  6 active torsions:
REMARK  status: ('A' for Active; 'I' for Inactive)
REMARK    1  A    between atoms: C_1  and  N_2
REMARK    2  A    between atoms: C_6  and  S_7
REMARK    3  A    between atoms: S_7  and  C_8
REMARK    4  A    between atoms: C_8  and  C_9
REMARK    5  A    between atoms: C_9  and  N_10
REMARK    6  A    between atoms: C_11  and  C_13
REMARK                            x       y       z     vdW  Elec       q    Type
REMARK                         _______ _______ _______ _____ _____    ______ ____
ROOT
ATOM      1  N   UNL     1       3.595   5.677  18.917  0.00  0.00    +0.000 N 
ATOM      2  C   UNL     1       4.254   6.348  17.915  0.00  0.00    +0.000 C 
ATOM      3  O   UNL     1       3.864   7.410  17.449  0.00  0.00    +0.000 OA
ATOM      4  H   UNL     1       3.894   4.750  19.199  0.00  0.00    +0.000 HD
ENDROOT
BRANCH   2   5
ATOM      5  C   UNL     1       5.500   5.725  17.390  0.00  0.00    +0.000 A 
ATOM      6  C   UNL     1       6.418   5.212  18.311  0.00  0.00    +0.000 A 
ATOM      7  C   UNL     1       7.577   4.623  17.829  0.00  0.00    +0.000 A 
ATOM      8  N   UNL     1       7.869   4.519  16.517  0.00  0.00    +0.000 NA
ATOM      9  C   UNL     1       6.969   5.020  15.648  0.00  0.00    +0.000 A 
ATOM     10  C   UNL     1       5.782   5.622  16.031  0.00  0.00    +0.000 A 
ATOM     11  F   UNL     1       4.950   6.092  15.091  0.00  0.00    +0.000 F 
ENDBRANCH   2   5
BRANCH   1  12
ATOM     12  C   UNL     1       2.372   6.187  19.504  0.00  0.00    +0.000 C 
BRANCH  12  13
ATOM     13  C   UNL     1       1.950   5.419  20.763  0.00  0.00    +0.000 C 
BRANCH  13  14
ATOM     14  S   UNL     1       1.320   3.715  20.449  0.00  0.00    +0.000 S 
BRANCH  14  20
ATOM     15  C   UNL     1       2.505   2.294  17.726  0.00  0.00    +0.000 C 
ATOM     16  N   UNL     1       3.170   2.298  19.002  0.00  0.00    +0.000 N 
ATOM     17  C   UNL     1       4.390   1.728  19.236  0.00  0.00    +0.000 A 
ATOM     18  N   UNL     1       4.718   1.885  20.496  0.00  0.00    +0.000 NA
ATOM     19  N   UNL     1       3.684   2.562  21.109  0.00  0.00    +0.000 NA
ATOM     20  C   UNL     1       2.772   2.823  20.199  0.00  0.00    +0.000 A 
ENDBRANCH  14  20
ENDBRANCH  13  14
ENDBRANCH  12  13
ENDBRANCH   1  12
TORSDOF 5
ENDMDL
MODEL 5
REMARK VINA RESULT:      -6.6      2.898      6.038
REMARK  Name = 
REMARK  6 active torsions:
REMARK  status: ('A' for Active; 'I' for Inactive)
REMARK    1  A    between atoms: C_1  and  N_2
REMARK    2  A    between atoms: C_6  and  S_7
REMARK    3  A    between atoms: S_7  and  C_8
REMARK    4  A    between atoms: C_8  and  C_9
REMARK    5  A    between atoms: C_9  and  N_10
REMARK    6  A    between atoms: C_11  and  C_13
REMARK                            x       y       z     vdW  Elec       q    Type
REMARK                         _______ _______ _______ _____ _____    ______ ____
ROOT
ATOM      1  N   UNL     1       4.137   5.773  18.257  0.00  0.00    +0.000 N 
ATOM      2  C   UNL     1       4.457   4.788  19.161  0.00  0.00    +0.000 C 
ATOM      3  O   UNL     1       5.607   4.433  19.387  0.00  0.00    +0.000 OA
ATOM      4  H   UNL     1       3.169   5.962  18.023  0.00  0.00    +0.000 HD
ENDROOT
BRANCH   2   5
ATOM      5  C   UNL     1       3.329   4.140  19.883  0.00  0.00    +0.000 A 
ATOM      6  C   UNL     1       2.119   4.836  19.973  0.00  0.00    +0.000 A 
ATOM      7  C   UNL     1       1.060   4.235  20.637  0.00  0.00    +0.000 A 
ATOM      8  N   UNL     1       1.134   3.014  21.204  0.00  0.00    +0.000 NA
ATOM      9  C   UNL     1       2.309   2.363  21.103  0.00  0.00    +0.000 A 
ATOM     10  C   UNL     1       3.422   2.876  20.458  0.00  0.00    +0.000 A 
ATOM     11  F   UNL     1       4.548   2.152  20.412  0.00  0.00    +0.000 F 
ENDBRANCH   2   5
BRANCH   1  12
ATOM     12  C   UNL     1       5.153   6.472  17.496  0.00  0.00    +0.000 C 
BRANCH  12  13
ATOM     13  C   UNL     1       5.117   6.130  16.000  0.00  0.00    +0.000 C 
BRANCH  13  14
ATOM     14  S   UNL     1       5.738   4.446  15.581  0.00  0.00    +0.000 S 
BRANCH  14  20
ATOM     15  C   UNL     1       5.729   3.377  12.468  0.00  0.00    +0.000 C 
ATOM     16  N   UNL     1       6.707   4.277  13.020  0.00  0.00    +0.000 N 
ATOM     17  C   UNL     1       7.743   4.817  12.312  0.00  0.00    +0.000 A 
ATOM     18  N   UNL     1       8.464   5.582  13.095  0.00  0.00    +0.000 NA
ATOM     19  N   UNL     1       7.897   5.534  14.353  0.00  0.00    +0.000 NA
ATOM     20  C   UNL     1       6.832   4.766  14.290  0.00  0.00    +0.000 A 
ENDBRANCH  14  20
ENDBRANCH  13  14
ENDBRANCH  12  13
ENDBRANCH   1  12
TORSDOF 5
ENDMDL
MODEL 6
REMARK VINA RESULT:      -6.6      1.227      1.269
REMARK  Name = 
REMARK  6 active torsions:
REMARK  status: ('A' for Active; 'I' for Inactive)
REMARK    1  A    between atoms: C_1  and  N_2
REMARK    2  A    between atoms: C_6  and  S_7
REMARK    3  A    between atoms: S_7  and  C_8
REMARK    4  A    between atoms: C_8  and  C_9
REMARK    5  A    between atoms: C_9  and  N_10
REMARK    6  A    between atoms: C_11  and  C_13
REMARK                            x       y       z     vdW  Elec       q    Type
REMARK                         _______ _______ _______ _____ _____    ______ ____
ROOT
ATOM      1  N   UNL     1       3.488   5.747  19.841  0.00  0.00    +0.000 N 
ATOM      2  C   UNL     1       3.635   5.695  18.475  0.00  0.00    +0.000 C 
ATOM      3  O   UNL     1       2.712   5.447  17.710  0.00  0.00    +0.000 OA
ATOM      4  H   UNL     1       4.298   5.850  20.442  0.00  0.00    +0.000 HD
ENDROOT
BRANCH   2   5
ATOM      5  C   UNL     1       4.995   5.956  17.931  0.00  0.00    +0.000 A 
ATOM      6  C   UNL     1       5.097   6.625  16.707  0.00  0.00    +0.000 A 
ATOM      7  C   UNL     1       6.361   6.879  16.197  0.00  0.00    +0.000 A 
ATOM      8  N   UNL     1       7.501   6.514  16.818  0.00  0.00    +0.000 NA
ATOM      9  C   UNL     1       7.377   5.871  17.996  0.00  0.00    +0.000 A 
ATOM     10  C   UNL     1       6.161   5.575  18.588  0.00  0.00    +0.000 A 
ATOM     11  F   UNL     1       6.141   4.930  19.763  0.00  0.00    +0.000 F 
ENDBRANCH   2   5
BRANCH   1  12
ATOM     12  C   UNL     1       2.211   5.509  20.482  0.00  0.00    +0.000 C 
BRANCH  12  13
ATOM     13  C   UNL     1       2.276   4.405  21.546  0.00  0.00    +0.000 C 
BRANCH  13  14
ATOM     14  S   UNL     1       1.397   2.849  21.094  0.00  0.00    +0.000 S 
BRANCH  14  20
ATOM     15  C   UNL     1       4.444   2.097  20.101  0.00  0.00    +0.000 C 
ATOM     16  N   UNL     1       3.302   2.195  19.232  0.00  0.00    +0.000 N 
ATOM     17  C   UNL     1       3.338   1.967  17.885  0.00  0.00    +0.000 A 
ATOM     18  N   UNL     1       2.145   2.150  17.373  0.00  0.00    +0.000 NA
ATOM     19  N   UNL     1       1.307   2.521  18.404  0.00  0.00    +0.000 NA
ATOM     20  C   UNL     1       2.007   2.524  19.517  0.00  0.00    +0.000 A 
ENDBRANCH  14  20
ENDBRANCH  13  14
ENDBRANCH  12  13
ENDBRANCH   1  12
TORSDOF 5
ENDMDL
MODEL 7
REMARK VINA RESULT:      -6.6      1.377      1.780
REMARK  Name = 
REMARK  6 active torsions:
REMARK  status: ('A' for Active; 'I' for Inactive)
REMARK    1  A    between atoms: C_1  and  N_2
REMARK    2  A    between atoms: C_6  and  S_7
REMARK    3  A    between atoms: S_7  and  C_8
REMARK    4  A    between atoms: C_8  and  C_9
REMARK    5  A    between atoms: C_9  and  N_10
REMARK    6  A    between atoms: C_11  and  C_13
REMARK                            x       y       z     vdW  Elec       q    Type
REMARK                         _______ _______ _______ _____ _____    ______ ____
ROOT
ATOM      1  N   UNL     1       3.610   5.511  18.975  0.00  0.00    +0.000 N 
ATOM      2  C   UNL     1       3.769   4.925  17.742  0.00  0.00    +0.000 C 
ATOM      3  O   UNL     1       2.834   4.496  17.078  0.00  0.00    +0.000 OA
ATOM      4  H   UNL     1       4.417   5.756  19.537  0.00  0.00    +0.000 HD
ENDROOT
BRANCH   2   5
ATOM      5  C   UNL     1       5.157   4.818  17.218  0.00  0.00    +0.000 A 
ATOM      6  C   UNL     1       5.343   4.866  15.833  0.00  0.00    +0.000 A 
ATOM      7  C   UNL     1       6.635   4.776  15.337  0.00  0.00    +0.000 A 
ATOM      8  N   UNL     1       7.725   4.643  16.119  0.00  0.00    +0.000 NA
ATOM      9  C   UNL     1       7.521   4.601  17.451  0.00  0.00    +0.000 A 
ATOM     10  C   UNL     1       6.271   4.687  18.042  0.00  0.00    +0.000 A 
ATOM     11  F   UNL     1       6.170   4.634  19.377  0.00  0.00    +0.000 F 
ENDBRANCH   2   5
BRANCH   1  12
ATOM     12  C   UNL     1       2.305   5.667  19.586  0.00  0.00    +0.000 C 
BRANCH  12  13
ATOM     13  C   UNL     1       2.296   5.298  21.075  0.00  0.00    +0.000 C 
BRANCH  13  14
ATOM     14  S   UNL     1       1.756   3.573  21.436  0.00  0.00    +0.000 S 
BRANCH  14  20
ATOM     15  C   UNL     1       0.848   2.004  18.688  0.00  0.00    +0.000 C 
ATOM     16  N   UNL     1       2.195   2.063  19.187  0.00  0.00    +0.000 N 
ATOM     17  C   UNL     1       3.271   1.490  18.570  0.00  0.00    +0.000 A 
ATOM     18  N   UNL     1       4.354   1.705  19.276  0.00  0.00    +0.000 NA
ATOM     19  N   UNL     1       3.981   2.424  20.393  0.00  0.00    +0.000 NA
ATOM     20  C   UNL     1       2.688   2.651  20.318  0.00  0.00    +0.000 A 
ENDBRANCH  14  20
ENDBRANCH  13  14
ENDBRANCH  12  13
ENDBRANCH   1  12
TORSDOF 5
ENDMDL
MODEL 8
REMARK VINA RESULT:      -6.6      2.469      5.174
REMARK  Name = 
REMARK  6 active torsions:
REMARK  status: ('A' for Active; 'I' for Inactive)
REMARK    1  A    between atoms: C_1  and  N_2
REMARK    2  A    between atoms: C_6  and  S_7
REMARK    3  A    between atoms: S_7  and  C_8
REMARK    4  A    between atoms: C_8  and  C_9
REMARK    5  A    between atoms: C_9  and  N_10
REMARK    6  A    between atoms: C_11  and  C_13
REMARK                            x       y       z     vdW  Elec       q    Type
REMARK                         _______ _______ _______ _____ _____    ______ ____
ROOT
ATOM      1  N   UNL     1       2.885   6.295  19.019  0.00  0.00    +0.000 N 
ATOM      2  C   UNL     1       2.316   5.075  18.740  0.00  0.00    +0.000 C 
ATOM      3  O   UNL     1       1.809   4.803  17.659  0.00  0.00    +0.000 OA
ATOM      4  H   UNL     1       3.198   6.514  19.958  0.00  0.00    +0.000 HD
ENDROOT
BRANCH   2   5
ATOM      5  C   UNL     1       2.332   4.057  19.825  0.00  0.00    +0.000 A 
ATOM      6  C   UNL     1       1.176   3.901  20.596  0.00  0.00    +0.000 A 
ATOM      7  C   UNL     1       1.180   2.948  21.604  0.00  0.00    +0.000 A 
ATOM      8  N   UNL     1       2.241   2.163  21.883  0.00  0.00    +0.000 NA
ATOM      9  C   UNL     1       3.342   2.332  21.125  0.00  0.00    +0.000 A 
ATOM     10  C   UNL     1       3.435   3.253  20.095  0.00  0.00    +0.000 A 
ATOM     11  F   UNL     1       4.575   3.347  19.398  0.00  0.00    +0.000 F 
ENDBRANCH   2   5
BRANCH   1  12
ATOM     12  C   UNL     1       2.927   7.362  18.040  0.00  0.00    +0.000 C 
BRANCH  12  13
ATOM     13  C   UNL     1       4.234   7.383  17.237  0.00  0.00    +0.000 C 
BRANCH  13  14
ATOM     14  S   UNL     1       5.589   6.356  17.947  0.00  0.00    +0.000 S 
BRANCH  14  20
ATOM     15  C   UNL     1       4.727   3.758  16.117  0.00  0.00    +0.000 C 
ATOM     16  N   UNL     1       5.854   4.610  15.846  0.00  0.00    +0.000 N 
ATOM     17  C   UNL     1       6.695   4.458  14.780  0.00  0.00    +0.000 A 
ATOM     18  N   UNL     1       7.628   5.378  14.818  0.00  0.00    +0.000 NA
ATOM     19  N   UNL     1       7.405   6.146  15.943  0.00  0.00    +0.000 NA
ATOM     20  C   UNL     1       6.326   5.689  16.539  0.00  0.00    +0.000 A 
ENDBRANCH  14  20
ENDBRANCH  13  14
ENDBRANCH  12  13
ENDBRANCH   1  12
TORSDOF 5
ENDMDL
MODEL 9
REMARK VINA RESULT:      -6.6      2.822      6.004
REMARK  Name = 
REMARK  6 active torsions:
REMARK  status: ('A' for Active; 'I' for Inactive)
REMARK    1  A    between atoms: C_1  and  N_2
REMARK    2  A    between atoms: C_6  and  S_7
REMARK    3  A    between atoms: S_7  and  C_8
REMARK    4  A    between atoms: C_8  and  C_9
REMARK    5  A    between atoms: C_9  and  N_10
REMARK    6  A    between atoms: C_11  and  C_13
REMARK                            x       y       z     vdW  Elec       q    Type
REMARK                         _______ _______ _______ _____ _____    ______ ____
ROOT
ATOM      1  N   UNL     1       5.367   4.377  18.840  0.00  0.00    +0.000 N 
ATOM      2  C   UNL     1       4.180   5.009  19.120  0.00  0.00    +0.000 C 
ATOM      3  O   UNL     1       4.080   6.222  19.251  0.00  0.00    +0.000 OA
ATOM      4  H   UNL     1       5.425   3.365  18.845  0.00  0.00    +0.000 HD
ENDROOT
BRANCH   2   5
ATOM      5  C   UNL     1       2.974   4.150  19.268  0.00  0.00    +0.000 A 
ATOM      6  C   UNL     1       2.450   3.966  20.551  0.00  0.00    +0.000 A 
ATOM      7  C   UNL     1       1.322   3.173  20.695  0.00  0.00    +0.000 A 
ATOM      8  N   UNL     1       0.701   2.566  19.663  0.00  0.00    +0.000 NA
ATOM      9  C   UNL     1       1.224   2.760  18.436  0.00  0.00    +0.000 A 
ATOM     10  C   UNL     1       2.344   3.536  18.190  0.00  0.00    +0.000 A 
ATOM     11  F   UNL     1       2.789   3.666  16.932  0.00  0.00    +0.000 F 
ENDBRANCH   2   5
BRANCH   1  12
ATOM     12  C   UNL     1       6.606   5.112  18.676  0.00  0.00    +0.000 C 
BRANCH  12  13
ATOM     13  C   UNL     1       6.899   5.466  17.212  0.00  0.00    +0.000 C 
BRANCH  13  14
ATOM     14  S   UNL     1       6.013   4.424  15.977  0.00  0.00    +0.000 S 
BRANCH  14  20
ATOM     15  C   UNL     1       5.502   3.361  12.903  0.00  0.00    +0.000 C 
ATOM     16  N   UNL     1       6.548   4.271  13.290  0.00  0.00    +0.000 N 
ATOM     17  C   UNL     1       7.447   4.824  12.422  0.00  0.00    +0.000 A 
ATOM     18  N   UNL     1       8.279   5.595  13.079  0.00  0.00    +0.000 NA
ATOM     19  N   UNL     1       7.928   5.538  14.413  0.00  0.00    +0.000 NA
ATOM     20  C   UNL     1       6.876   4.758  14.524  0.00  0.00    +0.000 A 
ENDBRANCH  14  20
ENDBRANCH  13  14
ENDBRANCH  12  13
ENDBRANCH   1  12
TORSDOF 5
ENDMDL
