MODEL 1
REMARK VINA RESULT:      -8.8      0.000      0.000
REMARK  Name = 
REMARK  10 active torsions:
REMARK  status: ('A' for Active; 'I' for Inactive)
REMARK    1  A    between atoms: C_1  and  O_2
REMARK    2  A    between atoms: O_2  and  C_3
REMARK    3  A    between atoms: C_6  and  O_7
REMARK    4  A    between atoms: O_7  and  C_8
REMARK    5  A    between atoms: C_9  and  C_10
REMARK    6  A    between atoms: C_10  and  C_11
REMARK    7  A    between atoms: C_11  and  N_12
REMARK    8  A    between atoms: C_18  and  C_19
REMARK    9  A    between atoms: C_24  and  S_25
REMARK   10  A    between atoms: S_25  and  N_26
REMARK                            x       y       z     vdW  Elec       q    Type
REMARK                         _______ _______ _______ _____ _____    ______ ____
ROOT
ATOM      1  N   UNL     1       1.134   8.887  19.196  0.00  0.00    +0.000 N 
ATOM      2  C   UNL     1       1.641   8.406  20.401  0.00  0.00    +0.000 A 
ATOM      3  C   UNL     1       0.757   8.203  21.396  0.00  0.00    +0.000 A 
ATOM      4  C   UNL     1      -0.077   9.390  21.663  0.00  0.00    +0.000 A 
ATOM      5  C   UNL     1      -0.551   9.634  22.940  0.00  0.00    +0.000 A 
ATOM      6  C   UNL     1      -1.195  10.841  23.209  0.00  0.00    +0.000 A 
ATOM      7  C   UNL     1      -1.316  11.889  22.257  0.00  0.00    +0.000 A 
ATOM      8  C   UNL     1      -0.952  11.553  20.928  0.00  0.00    +0.000 A 
ATOM      9  C   UNL     1      -0.358  10.290  20.627  0.00  0.00    +0.000 A 
ATOM     10  C   UNL     1       0.082   9.850  19.238  0.00  0.00    +0.000 A 
ATOM     11  O   UNL     1      -0.448  10.333  18.243  0.00  0.00    +0.000 OA
ENDROOT
BRANCH   7  12
ATOM     12  C   UNL     1      -1.667  13.251  22.829  0.00  0.00    +0.000 A 
ATOM     13  C   UNL     1      -0.596  14.204  22.817  0.00  0.00    +0.000 A 
ATOM     14  C   UNL     1      -0.614  15.427  23.499  0.00  0.00    +0.000 A 
ATOM     15  C   UNL     1      -1.756  15.813  24.167  0.00  0.00    +0.000 A 
ATOM     16  C   UNL     1      -2.869  14.978  24.123  0.00  0.00    +0.000 A 
ATOM     17  C   UNL     1      -2.834  13.708  23.478  0.00  0.00    +0.000 A 
BRANCH  17  18
ATOM     18  S   UNL     1      -4.320  12.760  23.635  0.00  0.00    +0.000 S 
ATOM     19  O   UNL     1      -4.763  12.351  22.308  0.00  0.00    +0.000 OA
ATOM     20  O   UNL     1      -4.177  11.801  24.698  0.00  0.00    +0.000 OA
BRANCH  18  21
ATOM     21  N   UNL     1      -5.443  13.901  24.097  0.00  0.00    +0.000 NA
ATOM     22  H   UNL     1      -5.364  14.057  25.102  0.00  0.00    +0.000 HD
ATOM     23  H   UNL     1      -5.331  14.744  23.532  0.00  0.00    +0.000 HD
ENDBRANCH  18  21
ENDBRANCH  17  18
ENDBRANCH   7  12
BRANCH   1  24
ATOM     24  C   UNL     1       1.887   8.660  17.928  0.00  0.00    +0.000 C 
BRANCH  24  25
ATOM     25  C   UNL     1       3.228   7.864  18.031  0.00  0.00    +0.000 C 
BRANCH  25  30
ATOM     26  C   UNL     1       2.024   4.222  17.739  0.00  0.00    +0.000 A 
ATOM     27  C   UNL     1       3.184   3.550  17.383  0.00  0.00    +0.000 A 
ATOM     28  C   UNL     1       4.383   4.244  17.235  0.00  0.00    +0.000 A 
ATOM     29  C   UNL     1       4.455   5.626  17.453  0.00  0.00    +0.000 A 
ATOM     30  C   UNL     1       3.296   6.349  17.782  0.00  0.00    +0.000 A 
ATOM     31  C   UNL     1       2.079   5.614  17.920  0.00  0.00    +0.000 A 
BRANCH  26  33
ATOM     32  C   UNL     1       0.917   2.508  18.973  0.00  0.00    +0.000 C 
ATOM     33  O   UNL     1       0.937   3.408  17.878  0.00  0.00    +0.000 OA
ENDBRANCH  26  33
BRANCH  29  34
ATOM     34  O   UNL     1       5.630   6.317  17.331  0.00  0.00    +0.000 OA
ATOM     35  C   UNL     1       6.540   5.815  16.358  0.00  0.00    +0.000 C 
ENDBRANCH  29  34
ENDBRANCH  25  30
ENDBRANCH  24  25
ENDBRANCH   1  24
TORSDOF 8
ENDMDL
MODEL 2
REMARK VINA RESULT:      -8.7      4.059      9.805
REMARK  Name = 
REMARK  10 active torsions:
REMARK  status: ('A' for Active; 'I' for Inactive)
REMARK    1  A    between atoms: C_1  and  O_2
REMARK    2  A    between atoms: O_2  and  C_3
REMARK    3  A    between atoms: C_6  and  O_7
REMARK    4  A    between atoms: O_7  and  C_8
REMARK    5  A    between atoms: C_9  and  C_10
REMARK    6  A    between atoms: C_10  and  C_11
REMARK    7  A    between atoms: C_11  and  N_12
REMARK    8  A    between atoms: C_18  and  C_19
REMARK    9  A    between atoms: C_24  and  S_25
REMARK   10  A    between atoms: S_25  and  N_26
REMARK                            x       y       z     vdW  Elec       q    Type
REMARK                         _______ _______ _______ _____ _____    ______ ____
ROOT
ATOM      1  N   UNL     1       0.412  10.787  19.446  0.00  0.00    +0.000 N 
ATOM      2  C   UNL     1      -0.352  10.167  20.432  0.00  0.00    +0.000 A 
ATOM      3  C   UNL     1       0.304   9.389  21.313  0.00  0.00    +0.000 A 
ATOM      4  C   UNL     1       1.153   8.379  20.654  0.00  0.00    +0.000 A 
ATOM      5  C   UNL     1       1.386   7.160  21.266  0.00  0.00    +0.000 A 
ATOM      6  C   UNL     1       2.050   6.158  20.559  0.00  0.00    +0.000 A 
ATOM      7  C   UNL     1       2.429   6.286  19.195  0.00  0.00    +0.000 A 
ATOM      8  C   UNL     1       2.307   7.589  18.647  0.00  0.00    +0.000 A 
ATOM      9  C   UNL     1       1.694   8.643  19.388  0.00  0.00    +0.000 A 
ATOM     10  C   UNL     1       1.503  10.064  18.876  0.00  0.00    +0.000 A 
ATOM     11  O   UNL     1       2.249  10.513  18.013  0.00  0.00    +0.000 OA
ENDROOT
BRANCH   7  12
ATOM     12  C   UNL     1       2.758   4.985  18.486  0.00  0.00    +0.000 A 
ATOM     13  C   UNL     1       1.632   4.136  18.229  0.00  0.00    +0.000 A 
ATOM     14  C   UNL     1       1.721   2.804  17.810  0.00  0.00    +0.000 A 
ATOM     15  C   UNL     1       2.958   2.263  17.530  0.00  0.00    +0.000 A 
ATOM     16  C   UNL     1       4.083   3.073  17.655  0.00  0.00    +0.000 A 
ATOM     17  C   UNL     1       4.000   4.412  18.137  0.00  0.00    +0.000 A 
BRANCH  17  18
ATOM     18  S   UNL     1       5.559   5.227  18.324  0.00  0.00    +0.000 S 
ATOM     19  O   UNL     1       5.661   6.289  17.331  0.00  0.00    +0.000 OA
ATOM     20  O   UNL     1       5.810   5.487  19.717  0.00  0.00    +0.000 OA
BRANCH  18  21
ATOM     21  N   UNL     1       6.645   4.080  17.795  0.00  0.00    +0.000 NA
ATOM     22  H   UNL     1       6.342   3.161  18.118  0.00  0.00    +0.000 HD
ATOM     23  H   UNL     1       6.758   4.152  16.783  0.00  0.00    +0.000 HD
ENDBRANCH  18  21
ENDBRANCH  17  18
ENDBRANCH   7  12
BRANCH   1  24
ATOM     24  C   UNL     1      -0.094  12.021  18.777  0.00  0.00    +0.000 C 
BRANCH  24  25
ATOM     25  C   UNL     1      -1.615  12.343  18.938  0.00  0.00    +0.000 C 
BRANCH  25  30
ATOM     26  C   UNL     1      -3.079  10.640  15.815  0.00  0.00    +0.000 A 
ATOM     27  C   UNL     1      -4.442  10.661  16.072  0.00  0.00    +0.000 A 
ATOM     28  C   UNL     1      -4.928  11.227  17.249  0.00  0.00    +0.000 A 
ATOM     29  C   UNL     1      -4.064  11.800  18.192  0.00  0.00    +0.000 A 
ATOM     30  C   UNL     1      -2.675  11.769  17.984  0.00  0.00    +0.000 A 
ATOM     31  C   UNL     1      -2.202  11.177  16.773  0.00  0.00    +0.000 A 
BRANCH  26  33
ATOM     32  C   UNL     1      -3.771   9.996  13.626  0.00  0.00    +0.000 C 
ATOM     33  O   UNL     1      -2.756  10.085  14.611  0.00  0.00    +0.000 OA
ENDBRANCH  26  33
BRANCH  29  34
ATOM     34  O   UNL     1      -4.529  12.377  19.342  0.00  0.00    +0.000 OA
ATOM     35  C   UNL     1      -5.818  11.948  19.768  0.00  0.00    +0.000 C 
ENDBRANCH  29  34
ENDBRANCH  25  30
ENDBRANCH  24  25
ENDBRANCH   1  24
TORSDOF 8
ENDMDL
MODEL 3
REMARK VINA RESULT:      -8.5      4.068      9.864
REMARK  Name = 
REMARK  10 active torsions:
REMARK  status: ('A' for Active; 'I' for Inactive)
REMARK    1  A    between atoms: C_1  and  O_2
REMARK    2  A    between atoms: O_2  and  C_3
REMARK    3  A    between atoms: C_6  and  O_7
REMARK    4  A    between atoms: O_7  and  C_8
REMARK    5  A    between atoms: C_9  and  C_10
REMARK    6  A    between atoms: C_10  and  C_11
REMARK    7  A    between atoms: C_11  and  N_12
REMARK    8  A    between atoms: C_18  and  C_19
REMARK    9  A    between atoms: C_24  and  S_25
REMARK   10  A    between atoms: S_25  and  N_26
REMARK                            x       y       z     vdW  Elec       q    Type
REMARK                         _______ _______ _______ _____ _____    ______ ____
ROOT
ATOM      1  N   UNL     1       0.332  10.707  19.472  0.00  0.00    +0.000 N 
ATOM      2  C   UNL     1      -0.416  10.076  20.464  0.00  0.00    +0.000 A 
ATOM      3  C   UNL     1       0.259   9.311  21.343  0.00  0.00    +0.000 A 
ATOM      4  C   UNL     1       1.121   8.314  20.680  0.00  0.00    +0.000 A 
ATOM      5  C   UNL     1       1.379   7.100  21.293  0.00  0.00    +0.000 A 
ATOM      6  C   UNL     1       2.055   6.108  20.583  0.00  0.00    +0.000 A 
ATOM      7  C   UNL     1       2.423   6.240  19.217  0.00  0.00    +0.000 A 
ATOM      8  C   UNL     1       2.275   7.540  18.667  0.00  0.00    +0.000 A 
ATOM      9  C   UNL     1       1.650   8.585  19.411  0.00  0.00    +0.000 A 
ATOM     10  C   UNL     1       1.431  10.001  18.897  0.00  0.00    +0.000 A 
ATOM     11  O   UNL     1       2.164  10.461  18.029  0.00  0.00    +0.000 OA
ENDROOT
BRANCH   7  12
ATOM     12  C   UNL     1       2.770   4.944  18.508  0.00  0.00    +0.000 A 
ATOM     13  C   UNL     1       1.667   4.049  18.313  0.00  0.00    +0.000 A 
ATOM     14  C   UNL     1       1.789   2.715  17.905  0.00  0.00    +0.000 A 
ATOM     15  C   UNL     1       3.031   2.219  17.575  0.00  0.00    +0.000 A 
ATOM     16  C   UNL     1       4.128   3.073  17.638  0.00  0.00    +0.000 A 
ATOM     17  C   UNL     1       4.016   4.414  18.109  0.00  0.00    +0.000 A 
BRANCH  17  18
ATOM     18  S   UNL     1       5.549   5.291  18.215  0.00  0.00    +0.000 S 
ATOM     19  O   UNL     1       5.504   6.434  17.313  0.00  0.00    +0.000 OA
ATOM     20  O   UNL     1       5.927   5.447  19.594  0.00  0.00    +0.000 OA
BRANCH  18  21
ATOM     21  N   UNL     1       6.625   4.249  17.485  0.00  0.00    +0.000 NA
ATOM     22  H   UNL     1       7.352   4.793  17.020  0.00  0.00    +0.000 HD
ATOM     23  H   UNL     1       6.975   3.578  18.169  0.00  0.00    +0.000 HD
ENDBRANCH  18  21
ENDBRANCH  17  18
ENDBRANCH   7  12
BRANCH   1  24
ATOM     24  C   UNL     1      -0.200  11.931  18.805  0.00  0.00    +0.000 C 
BRANCH  24  25
ATOM     25  C   UNL     1      -1.071  11.720  17.525  0.00  0.00    +0.000 C 
BRANCH  25  30
ATOM     26  C   UNL     1      -4.614  11.925  19.009  0.00  0.00    +0.000 A 
ATOM     27  C   UNL     1      -5.410  11.538  17.941  0.00  0.00    +0.000 A 
ATOM     28  C   UNL     1      -4.833  11.195  16.720  0.00  0.00    +0.000 A 
ATOM     29  C   UNL     1      -3.443  11.216  16.542  0.00  0.00    +0.000 A 
ATOM     30  C   UNL     1      -2.604  11.633  17.588  0.00  0.00    +0.000 A 
ATOM     31  C   UNL     1      -3.222  11.987  18.827  0.00  0.00    +0.000 A 
BRANCH  26  33
ATOM     32  C   UNL     1      -6.678  12.568  20.015  0.00  0.00    +0.000 C 
ATOM     33  O   UNL     1      -5.316  12.199  20.147  0.00  0.00    +0.000 OA
ENDBRANCH  26  33
BRANCH  29  34
ATOM     34  O   UNL     1      -2.862  10.861  15.354  0.00  0.00    +0.000 OA
ATOM     35  C   UNL     1      -3.708  10.178  14.435  0.00  0.00    +0.000 C 
ENDBRANCH  29  34
ENDBRANCH  25  30
ENDBRANCH  24  25
ENDBRANCH   1  24
TORSDOF 8
ENDMDL
MODEL 4
REMARK VINA RESULT:      -8.5      0.985      2.310
REMARK  Name = 
REMARK  10 active torsions:
REMARK  status: ('A' for Active; 'I' for Inactive)
REMARK    1  A    between atoms: C_1  and  O_2
REMARK    2  A    between atoms: O_2  and  C_3
REMARK    3  A    between atoms: C_6  and  O_7
REMARK    4  A    between atoms: O_7  and  C_8
REMARK    5  A    between atoms: C_9  and  C_10
REMARK    6  A    between atoms: C_10  and  C_11
REMARK    7  A    between atoms: C_11  and  N_12
REMARK    8  A    between atoms: C_18  and  C_19
REMARK    9  A    between atoms: C_24  and  S_25
REMARK   10  A    between atoms: S_25  and  N_26
REMARK                            x       y       z     vdW  Elec       q    Type
REMARK                         _______ _______ _______ _____ _____    ______ ____
ROOT
ATOM      1  N   UNL     1       1.120   8.845  19.143  0.00  0.00    +0.000 N 
ATOM      2  C   UNL     1       1.640   8.372  20.346  0.00  0.00    +0.000 A 
ATOM      3  C   UNL     1       0.767   8.177  21.352  0.00  0.00    +0.000 A 
ATOM      4  C   UNL     1      -0.062   9.367  21.620  0.00  0.00    +0.000 A 
ATOM      5  C   UNL     1      -0.523   9.620  22.900  0.00  0.00    +0.000 A 
ATOM      6  C   UNL     1      -1.162  10.831  23.167  0.00  0.00    +0.000 A 
ATOM      7  C   UNL     1      -1.293  11.872  22.209  0.00  0.00    +0.000 A 
ATOM      8  C   UNL     1      -0.943  11.526  20.879  0.00  0.00    +0.000 A 
ATOM      9  C   UNL     1      -0.355  10.260  20.580  0.00  0.00    +0.000 A 
ATOM     10  C   UNL     1       0.069   9.809  19.189  0.00  0.00    +0.000 A 
ATOM     11  O   UNL     1      -0.471  10.286  18.197  0.00  0.00    +0.000 OA
ENDROOT
BRANCH   7  12
ATOM     12  C   UNL     1      -1.636  13.238  22.775  0.00  0.00    +0.000 A 
ATOM     13  C   UNL     1      -0.564  14.190  22.744  0.00  0.00    +0.000 A 
ATOM     14  C   UNL     1      -0.573  15.417  23.418  0.00  0.00    +0.000 A 
ATOM     15  C   UNL     1      -1.707  15.810  24.095  0.00  0.00    +0.000 A 
ATOM     16  C   UNL     1      -2.821  14.976  24.069  0.00  0.00    +0.000 A 
ATOM     17  C   UNL     1      -2.796  13.701  23.433  0.00  0.00    +0.000 A 
BRANCH  17  18
ATOM     18  S   UNL     1      -4.281  12.756  23.613  0.00  0.00    +0.000 S 
ATOM     19  O   UNL     1      -4.754  12.361  22.293  0.00  0.00    +0.000 OA
ATOM     20  O   UNL     1      -4.118  11.786  24.664  0.00  0.00    +0.000 OA
BRANCH  18  21
ATOM     21  N   UNL     1      -5.389  13.896  24.110  0.00  0.00    +0.000 NA
ATOM     22  H   UNL     1      -4.891  14.696  24.502  0.00  0.00    +0.000 HD
ATOM     23  H   UNL     1      -6.015  14.129  23.339  0.00  0.00    +0.000 HD
ENDBRANCH  18  21
ENDBRANCH  17  18
ENDBRANCH   7  12
BRANCH   1  24
ATOM     24  C   UNL     1       1.859   8.608  17.868  0.00  0.00    +0.000 C 
BRANCH  24  25
ATOM     25  C   UNL     1       3.344   8.134  17.986  0.00  0.00    +0.000 C 
BRANCH  25  30
ATOM     26  C   UNL     1       5.339   5.581  15.914  0.00  0.00    +0.000 A 
ATOM     27  C   UNL     1       4.810   4.370  16.337  0.00  0.00    +0.000 A 
ATOM     28  C   UNL     1       3.796   4.341  17.292  0.00  0.00    +0.000 A 
ATOM     29  C   UNL     1       3.275   5.523  17.836  0.00  0.00    +0.000 A 
ATOM     30  C   UNL     1       3.806   6.767  17.459  0.00  0.00    +0.000 A 
ATOM     31  C   UNL     1       4.851   6.768  16.483  0.00  0.00    +0.000 A 
BRANCH  26  33
ATOM     32  C   UNL     1       6.286   4.288  14.147  0.00  0.00    +0.000 C 
ATOM     33  O   UNL     1       6.301   5.454  14.953  0.00  0.00    +0.000 OA
ENDBRANCH  26  33
BRANCH  29  34
ATOM     34  O   UNL     1       2.264   5.509  18.759  0.00  0.00    +0.000 OA
ATOM     35  C   UNL     1       2.319   4.456  19.716  0.00  0.00    +0.000 C 
ENDBRANCH  29  34
ENDBRANCH  25  30
ENDBRANCH  24  25
ENDBRANCH   1  24
TORSDOF 8
ENDMDL
MODEL 5
REMARK VINA RESULT:      -8.5      4.144      9.892
REMARK  Name = 
REMARK  10 active torsions:
REMARK  status: ('A' for Active; 'I' for Inactive)
REMARK    1  A    between atoms: C_1  and  O_2
REMARK    2  A    between atoms: O_2  and  C_3
REMARK    3  A    between atoms: C_6  and  O_7
REMARK    4  A    between atoms: O_7  and  C_8
REMARK    5  A    between atoms: C_9  and  C_10
REMARK    6  A    between atoms: C_10  and  C_11
REMARK    7  A    between atoms: C_11  and  N_12
REMARK    8  A    between atoms: C_18  and  C_19
REMARK    9  A    between atoms: C_24  and  S_25
REMARK   10  A    between atoms: S_25  and  N_26
REMARK                            x       y       z     vdW  Elec       q    Type
REMARK                         _______ _______ _______ _____ _____    ______ ____
ROOT
ATOM      1  N   UNL     1       0.359  10.889  18.972  0.00  0.00    +0.000 N 
ATOM      2  C   UNL     1      -0.362  10.345  20.032  0.00  0.00    +0.000 A 
ATOM      3  C   UNL     1       0.336   9.661  20.957  0.00  0.00    +0.000 A 
ATOM      4  C   UNL     1       1.186   8.612  20.363  0.00  0.00    +0.000 A 
ATOM      5  C   UNL     1       1.463   7.456  21.073  0.00  0.00    +0.000 A 
ATOM      6  C   UNL     1       2.126   6.408  20.435  0.00  0.00    +0.000 A 
ATOM      7  C   UNL     1       2.461   6.421  19.054  0.00  0.00    +0.000 A 
ATOM      8  C   UNL     1       2.295   7.668  18.398  0.00  0.00    +0.000 A 
ATOM      9  C   UNL     1       1.683   8.772  19.063  0.00  0.00    +0.000 A 
ATOM     10  C   UNL     1       1.447  10.138  18.434  0.00  0.00    +0.000 A 
ATOM     11  O   UNL     1       2.157  10.522  17.511  0.00  0.00    +0.000 OA
ENDROOT
BRANCH   7  12
ATOM     12  C   UNL     1       2.796   5.069  18.452  0.00  0.00    +0.000 A 
ATOM     13  C   UNL     1       1.669   4.210  18.233  0.00  0.00    +0.000 A 
ATOM     14  C   UNL     1       1.757   2.849  17.917  0.00  0.00    +0.000 A 
ATOM     15  C   UNL     1       2.996   2.282  17.707  0.00  0.00    +0.000 A 
ATOM     16  C   UNL     1       4.124   3.092  17.797  0.00  0.00    +0.000 A 
ATOM     17  C   UNL     1       4.041   4.463  18.176  0.00  0.00    +0.000 A 
BRANCH  17  18
ATOM     18  S   UNL     1       5.602   5.280  18.338  0.00  0.00    +0.000 S 
ATOM     19  O   UNL     1       5.679   6.353  17.355  0.00  0.00    +0.000 OA
ATOM     20  O   UNL     1       5.882   5.526  19.728  0.00  0.00    +0.000 OA
BRANCH  18  21
ATOM     21  N   UNL     1       6.678   4.142  17.772  0.00  0.00    +0.000 NA
ATOM     22  H   UNL     1       6.178   3.270  17.596  0.00  0.00    +0.000 HD
ATOM     23  H   UNL     1       7.177   4.510  16.962  0.00  0.00    +0.000 HD
ENDBRANCH  18  21
ENDBRANCH  17  18
ENDBRANCH   7  12
BRANCH   1  24
ATOM     24  C   UNL     1      -0.193  12.050  18.214  0.00  0.00    +0.000 C 
BRANCH  24  25
ATOM     25  C   UNL     1       0.165  13.477  18.739  0.00  0.00    +0.000 C 
BRANCH  25  30
ATOM     26  C   UNL     1       3.845  14.574  18.516  0.00  0.00    +0.000 A 
ATOM     27  C   UNL     1       4.251  14.539  19.842  0.00  0.00    +0.000 A 
ATOM     28  C   UNL     1       3.357  14.158  20.841  0.00  0.00    +0.000 A 
ATOM     29  C   UNL     1       2.041  13.786  20.537  0.00  0.00    +0.000 A 
ATOM     30  C   UNL     1       1.582  13.839  19.211  0.00  0.00    +0.000 A 
ATOM     31  C   UNL     1       2.516  14.241  18.206  0.00  0.00    +0.000 A 
BRANCH  26  33
ATOM     32  C   UNL     1       6.171  14.931  18.124  0.00  0.00    +0.000 C 
ATOM     33  O   UNL     1       4.836  14.934  17.648  0.00  0.00    +0.000 OA
ENDBRANCH  26  33
BRANCH  29  34
ATOM     34  O   UNL     1       1.160  13.389  21.506  0.00  0.00    +0.000 OA
ATOM     35  C   UNL     1       0.396  14.430  22.107  0.00  0.00    +0.000 C 
ENDBRANCH  29  34
ENDBRANCH  25  30
ENDBRANCH  24  25
ENDBRANCH   1  24
TORSDOF 8
ENDMDL
MODEL 6
REMARK VINA RESULT:      -8.3      1.062      2.606
REMARK  Name = 
REMARK  10 active torsions:
REMARK  status: ('A' for Active; 'I' for Inactive)
REMARK    1  A    between atoms: C_1  and  O_2
REMARK    2  A    between atoms: O_2  and  C_3
REMARK    3  A    between atoms: C_6  and  O_7
REMARK    4  A    between atoms: O_7  and  C_8
REMARK    5  A    between atoms: C_9  and  C_10
REMARK    6  A    between atoms: C_10  and  C_11
REMARK    7  A    between atoms: C_11  and  N_12
REMARK    8  A    between atoms: C_18  and  C_19
REMARK    9  A    between atoms: C_24  and  S_25
REMARK   10  A    between atoms: S_25  and  N_26
REMARK                            x       y       z     vdW  Elec       q    Type
REMARK                         _______ _______ _______ _____ _____    ______ ____
ROOT
ATOM      1  N   UNL     1       1.202   9.153  19.342  0.00  0.00    +0.000 N 
ATOM      2  C   UNL     1       1.651   8.623  20.550  0.00  0.00    +0.000 A 
ATOM      3  C   UNL     1       0.720   8.375  21.491  0.00  0.00    +0.000 A 
ATOM      4  C   UNL     1      -0.133   9.547  21.766  0.00  0.00    +0.000 A 
ATOM      5  C   UNL     1      -0.672   9.734  23.027  0.00  0.00    +0.000 A 
ATOM      6  C   UNL     1      -1.335  10.927  23.314  0.00  0.00    +0.000 A 
ATOM      7  C   UNL     1      -1.415  12.014  22.402  0.00  0.00    +0.000 A 
ATOM      8  C   UNL     1      -0.983  11.735  21.080  0.00  0.00    +0.000 A 
ATOM      9  C   UNL     1      -0.368  10.489  20.755  0.00  0.00    +0.000 A 
ATOM     10  C   UNL     1       0.143  10.110  19.373  0.00  0.00    +0.000 A 
ATOM     11  O   UNL     1      -0.340  10.632  18.373  0.00  0.00    +0.000 OA
ENDROOT
BRANCH   7  12
ATOM     12  C   UNL     1      -1.801  13.349  23.013  0.00  0.00    +0.000 A 
ATOM     13  C   UNL     1      -0.742  14.313  23.074  0.00  0.00    +0.000 A 
ATOM     14  C   UNL     1      -0.798  15.508  23.802  0.00  0.00    +0.000 A 
ATOM     15  C   UNL     1      -1.967  15.856  24.443  0.00  0.00    +0.000 A 
ATOM     16  C   UNL     1      -3.068  15.012  24.328  0.00  0.00    +0.000 A 
ATOM     17  C   UNL     1      -2.996  13.768  23.637  0.00  0.00    +0.000 A 
BRANCH  17  18
ATOM     18  S   UNL     1      -4.475  12.799  23.705  0.00  0.00    +0.000 S 
ATOM     19  O   UNL     1      -4.828  12.378  22.356  0.00  0.00    +0.000 OA
ATOM     20  O   UNL     1      -4.385  11.846  24.780  0.00  0.00    +0.000 OA
BRANCH  18  21
ATOM     21  N   UNL     1      -5.640  13.926  24.091  0.00  0.00    +0.000 NA
ATOM     22  H   UNL     1      -5.754  14.568  23.306  0.00  0.00    +0.000 HD
ATOM     23  H   UNL     1      -6.499  13.452  24.373  0.00  0.00    +0.000 HD
ENDBRANCH  18  21
ENDBRANCH  17  18
ENDBRANCH   7  12
BRANCH   1  24
ATOM     24  C   UNL     1       2.018   8.983  18.105  0.00  0.00    +0.000 C 
BRANCH  24  25
ATOM     25  C   UNL     1       2.213   7.526  17.578  0.00  0.00    +0.000 C 
BRANCH  25  30
ATOM     26  C   UNL     1       5.784   6.135  17.919  0.00  0.00    +0.000 A 
ATOM     27  C   UNL     1       5.618   5.099  18.826  0.00  0.00    +0.000 A 
ATOM     28  C   UNL     1       4.357   4.814  19.347  0.00  0.00    +0.000 A 
ATOM     29  C   UNL     1       3.228   5.549  18.962  0.00  0.00    +0.000 A 
ATOM     30  C   UNL     1       3.359   6.628  18.071  0.00  0.00    +0.000 A 
ATOM     31  C   UNL     1       4.664   6.903  17.558  0.00  0.00    +0.000 A 
BRANCH  26  33
ATOM     32  C   UNL     1       7.642   7.569  17.496  0.00  0.00    +0.000 C 
ATOM     33  O   UNL     1       7.066   6.274  17.473  0.00  0.00    +0.000 OA
ENDBRANCH  26  33
BRANCH  29  34
ATOM     34  O   UNL     1       1.981   5.267  19.449  0.00  0.00    +0.000 OA
ATOM     35  C   UNL     1       1.681   3.884  19.610  0.00  0.00    +0.000 C 
ENDBRANCH  29  34
ENDBRANCH  25  30
ENDBRANCH  24  25
ENDBRANCH   1  24
TORSDOF 8
ENDMDL
MODEL 7
REMARK VINA RESULT:      -8.3      3.046      4.570
REMARK  Name = 
REMARK  10 active torsions:
REMARK  status: ('A' for Active; 'I' for Inactive)
REMARK    1  A    between atoms: C_1  and  O_2
REMARK    2  A    between atoms: O_2  and  C_3
REMARK    3  A    between atoms: C_6  and  O_7
REMARK    4  A    between atoms: O_7  and  C_8
REMARK    5  A    between atoms: C_9  and  C_10
REMARK    6  A    between atoms: C_10  and  C_11
REMARK    7  A    between atoms: C_11  and  N_12
REMARK    8  A    between atoms: C_18  and  C_19
REMARK    9  A    between atoms: C_24  and  S_25
REMARK   10  A    between atoms: S_25  and  N_26
REMARK                            x       y       z     vdW  Elec       q    Type
REMARK                         _______ _______ _______ _____ _____    ______ ____
ROOT
ATOM      1  N   UNL     1       2.224   6.982  19.404  0.00  0.00    +0.000 N 
ATOM      2  C   UNL     1       2.373   7.432  18.094  0.00  0.00    +0.000 A 
ATOM      3  C   UNL     1       2.657   8.737  17.926  0.00  0.00    +0.000 A 
ATOM      4  C   UNL     1       1.710   9.618  18.635  0.00  0.00    +0.000 A 
ATOM      5  C   UNL     1       1.419  10.875  18.131  0.00  0.00    +0.000 A 
ATOM      6  C   UNL     1       0.401  11.625  18.718  0.00  0.00    +0.000 A 
ATOM      7  C   UNL     1      -0.428  11.133  19.763  0.00  0.00    +0.000 A 
ATOM      8  C   UNL     1      -0.012   9.910  20.348  0.00  0.00    +0.000 A 
ATOM      9  C   UNL     1       1.077   9.166  19.800  0.00  0.00    +0.000 A 
ATOM     10  C   UNL     1       1.580   7.838  20.348  0.00  0.00    +0.000 A 
ATOM     11  O   UNL     1       1.406   7.553  21.528  0.00  0.00    +0.000 OA
ENDROOT
BRANCH   7  12
ATOM     12  C   UNL     1      -1.714  11.905  19.991  0.00  0.00    +0.000 A 
ATOM     13  C   UNL     1      -1.760  12.655  21.212  0.00  0.00    +0.000 A 
ATOM     14  C   UNL     1      -2.916  13.241  21.742  0.00  0.00    +0.000 A 
ATOM     15  C   UNL     1      -4.091  13.189  21.024  0.00  0.00    +0.000 A 
ATOM     16  C   UNL     1      -4.084  12.569  19.778  0.00  0.00    +0.000 A 
ATOM     17  C   UNL     1      -2.923  11.922  19.263  0.00  0.00    +0.000 A 
BRANCH  17  18
ATOM     18  S   UNL     1      -3.162  11.102  17.713  0.00  0.00    +0.000 S 
ATOM     19  O   UNL     1      -2.583   9.767  17.790  0.00  0.00    +0.000 OA
ATOM     20  O   UNL     1      -4.513  11.300  17.259  0.00  0.00    +0.000 OA
BRANCH  18  21
ATOM     21  N   UNL     1      -2.134  11.926  16.694  0.00  0.00    +0.000 NA
ATOM     22  H   UNL     1      -1.600  12.604  17.237  0.00  0.00    +0.000 HD
ATOM     23  H   UNL     1      -1.561  11.262  16.171  0.00  0.00    +0.000 HD
ENDBRANCH  18  21
ENDBRANCH  17  18
ENDBRANCH   7  12
BRANCH   1  24
ATOM     24  C   UNL     1       2.422   5.538  19.722  0.00  0.00    +0.000 C 
BRANCH  24  25
ATOM     25  C   UNL     1       3.879   4.982  19.619  0.00  0.00    +0.000 C 
BRANCH  25  30
ATOM     26  C   UNL     1       6.494   5.901  16.952  0.00  0.00    +0.000 A 
ATOM     27  C   UNL     1       6.180   5.037  15.913  0.00  0.00    +0.000 A 
ATOM     28  C   UNL     1       5.118   4.143  16.037  0.00  0.00    +0.000 A 
ATOM     29  C   UNL     1       4.335   4.101  17.198  0.00  0.00    +0.000 A 
ATOM     30  C   UNL     1       4.641   4.935  18.285  0.00  0.00    +0.000 A 
ATOM     31  C   UNL     1       5.738   5.838  18.135  0.00  0.00    +0.000 A 
BRANCH  26  33
ATOM     32  C   UNL     1       7.746   7.845  17.535  0.00  0.00    +0.000 C 
ATOM     33  O   UNL     1       7.534   6.739  16.674  0.00  0.00    +0.000 OA
ENDBRANCH  26  33
BRANCH  29  34
ATOM     34  O   UNL     1       3.277   3.242  17.325  0.00  0.00    +0.000 OA
ATOM     35  C   UNL     1       3.579   1.973  17.896  0.00  0.00    +0.000 C 
ENDBRANCH  29  34
ENDBRANCH  25  30
ENDBRANCH  24  25
ENDBRANCH   1  24
TORSDOF 8
ENDMDL
MODEL 8
REMARK VINA RESULT:      -8.3      3.794      9.961
REMARK  Name = 
REMARK  10 active torsions:
REMARK  status: ('A' for Active; 'I' for Inactive)
REMARK    1  A    between atoms: C_1  and  O_2
REMARK    2  A    between atoms: O_2  and  C_3
REMARK    3  A    between atoms: C_6  and  O_7
REMARK    4  A    between atoms: O_7  and  C_8
REMARK    5  A    between atoms: C_9  and  C_10
REMARK    6  A    between atoms: C_10  and  C_11
REMARK    7  A    between atoms: C_11  and  N_12
REMARK    8  A    between atoms: C_18  and  C_19
REMARK    9  A    between atoms: C_24  and  S_25
REMARK   10  A    between atoms: S_25  and  N_26
REMARK                            x       y       z     vdW  Elec       q    Type
REMARK                         _______ _______ _______ _____ _____    ______ ____
ROOT
ATOM      1  N   UNL     1       0.339  10.711  19.449  0.00  0.00    +0.000 N 
ATOM      2  C   UNL     1      -0.350  10.093  20.490  0.00  0.00    +0.000 A 
ATOM      3  C   UNL     1       0.375   9.342  21.340  0.00  0.00    +0.000 A 
ATOM      4  C   UNL     1       1.201   8.337  20.644  0.00  0.00    +0.000 A 
ATOM      5  C   UNL     1       1.496   7.133  21.259  0.00  0.00    +0.000 A 
ATOM      6  C   UNL     1       2.134   6.132  20.526  0.00  0.00    +0.000 A 
ATOM      7  C   UNL     1       2.424   6.245  19.139  0.00  0.00    +0.000 A 
ATOM      8  C   UNL     1       2.242   7.536  18.580  0.00  0.00    +0.000 A 
ATOM      9  C   UNL     1       1.657   8.591  19.343  0.00  0.00    +0.000 A 
ATOM     10  C   UNL     1       1.405   9.999  18.823  0.00  0.00    +0.000 A 
ATOM     11  O   UNL     1       2.088  10.448  17.907  0.00  0.00    +0.000 OA
ENDROOT
BRANCH   7  12
ATOM     12  C   UNL     1       2.734   4.939  18.430  0.00  0.00    +0.000 A 
ATOM     13  C   UNL     1       1.631   4.028  18.335  0.00  0.00    +0.000 A 
ATOM     14  C   UNL     1       1.740   2.688  17.944  0.00  0.00    +0.000 A 
ATOM     15  C   UNL     1       2.961   2.201  17.530  0.00  0.00    +0.000 A 
ATOM     16  C   UNL     1       4.048   3.069  17.495  0.00  0.00    +0.000 A 
ATOM     17  C   UNL     1       3.953   4.417  17.948  0.00  0.00    +0.000 A 
BRANCH  17  18
ATOM     18  S   UNL     1       5.478   5.313  17.922  0.00  0.00    +0.000 S 
ATOM     19  O   UNL     1       6.526   4.450  17.393  0.00  0.00    +0.000 OA
ATOM     20  O   UNL     1       5.261   6.631  17.385  0.00  0.00    +0.000 OA
BRANCH  18  21
ATOM     21  N   UNL     1       5.855   5.455  19.539  0.00  0.00    +0.000 NA
ATOM     22  H   UNL     1       5.663   6.410  19.843  0.00  0.00    +0.000 HD
ATOM     23  H   UNL     1       5.363   4.738  20.072  0.00  0.00    +0.000 HD
ENDBRANCH  18  21
ENDBRANCH  17  18
ENDBRANCH   7  12
BRANCH   1  24
ATOM     24  C   UNL     1      -0.233  11.924  18.795  0.00  0.00    +0.000 C 
BRANCH  24  25
ATOM     25  C   UNL     1      -1.583  12.468  19.363  0.00  0.00    +0.000 C 
BRANCH  25  30
ATOM     26  C   UNL     1      -4.073  11.057  16.794  0.00  0.00    +0.000 A 
ATOM     27  C   UNL     1      -5.300  11.389  17.349  0.00  0.00    +0.000 A 
ATOM     28  C   UNL     1      -5.361  12.079  18.558  0.00  0.00    +0.000 A 
ATOM     29  C   UNL     1      -4.197  12.468  19.234  0.00  0.00    +0.000 A 
ATOM     30  C   UNL     1      -2.936  12.122  18.721  0.00  0.00    +0.000 A 
ATOM     31  C   UNL     1      -2.901  11.408  17.484  0.00  0.00    +0.000 A 
BRANCH  26  33
ATOM     32  C   UNL     1      -3.021  10.372  14.766  0.00  0.00    +0.000 C 
ATOM     33  O   UNL     1      -4.170  10.412  15.594  0.00  0.00    +0.000 OA
ENDBRANCH  26  33
BRANCH  29  34
ATOM     34  O   UNL     1      -4.243  13.165  20.411  0.00  0.00    +0.000 OA
ATOM     35  C   UNL     1      -5.029  12.578  21.443  0.00  0.00    +0.000 C 
ENDBRANCH  29  34
ENDBRANCH  25  30
ENDBRANCH  24  25
ENDBRANCH   1  24
TORSDOF 8
ENDMDL
MODEL 9
REMARK VINA RESULT:      -8.3      1.018      1.044
REMARK  Name = 
REMARK  10 active torsions:
REMARK  status: ('A' for Active; 'I' for Inactive)
REMARK    1  A    between atoms: C_1  and  O_2
REMARK    2  A    between atoms: O_2  and  C_3
REMARK    3  A    between atoms: C_6  and  O_7
REMARK    4  A    between atoms: O_7  and  C_8
REMARK    5  A    between atoms: C_9  and  C_10
REMARK    6  A    between atoms: C_10  and  C_11
REMARK    7  A    between atoms: C_11  and  N_12
REMARK    8  A    between atoms: C_18  and  C_19
REMARK    9  A    between atoms: C_24  and  S_25
REMARK   10  A    between atoms: S_25  and  N_26
REMARK                            x       y       z     vdW  Elec       q    Type
REMARK                         _______ _______ _______ _____ _____    ______ ____
ROOT
ATOM      1  N   UNL     1       1.273   8.981  19.419  0.00  0.00    +0.000 N 
ATOM      2  C   UNL     1       1.665   8.475  20.657  0.00  0.00    +0.000 A 
ATOM      3  C   UNL     1       0.696   8.282  21.571  0.00  0.00    +0.000 A 
ATOM      4  C   UNL     1      -0.131   9.485  21.782  0.00  0.00    +0.000 A 
ATOM      5  C   UNL     1      -0.707   9.726  23.018  0.00  0.00    +0.000 A 
ATOM      6  C   UNL     1      -1.343  10.945  23.247  0.00  0.00    +0.000 A 
ATOM      7  C   UNL     1      -1.360  12.006  22.302  0.00  0.00    +0.000 A 
ATOM      8  C   UNL     1      -0.892  11.676  21.004  0.00  0.00    +0.000 A 
ATOM      9  C   UNL     1      -0.304  10.403  20.737  0.00  0.00    +0.000 A 
ATOM     10  C   UNL     1       0.242   9.968  19.385  0.00  0.00    +0.000 A 
ATOM     11  O   UNL     1      -0.191  10.474  18.355  0.00  0.00    +0.000 OA
ENDROOT
BRANCH   7  12
ATOM     12  C   UNL     1      -1.727  13.369  22.859  0.00  0.00    +0.000 A 
ATOM     13  C   UNL     1      -0.659  14.325  22.867  0.00  0.00    +0.000 A 
ATOM     14  C   UNL     1      -0.695  15.551  23.544  0.00  0.00    +0.000 A 
ATOM     15  C   UNL     1      -1.853  15.937  24.183  0.00  0.00    +0.000 A 
ATOM     16  C   UNL     1      -2.963  15.099  24.117  0.00  0.00    +0.000 A 
ATOM     17  C   UNL     1      -2.911  13.826  23.479  0.00  0.00    +0.000 A 
BRANCH  17  18
ATOM     18  S   UNL     1      -4.397  12.875  23.606  0.00  0.00    +0.000 S 
ATOM     19  O   UNL     1      -4.797  12.440  22.274  0.00  0.00    +0.000 OA
ATOM     20  O   UNL     1      -4.284  11.935  24.691  0.00  0.00    +0.000 OA
BRANCH  18  21
ATOM     21  N   UNL     1      -5.538  14.019  24.012  0.00  0.00    +0.000 NA
ATOM     22  H   UNL     1      -5.104  14.943  23.991  0.00  0.00    +0.000 HD
ATOM     23  H   UNL     1      -6.353  13.924  23.405  0.00  0.00    +0.000 HD
ENDBRANCH  18  21
ENDBRANCH  17  18
ENDBRANCH   7  12
BRANCH   1  24
ATOM     24  C   UNL     1       2.126   8.751  18.217  0.00  0.00    +0.000 C 
BRANCH  24  25
ATOM     25  C   UNL     1       2.116   7.313  17.605  0.00  0.00    +0.000 C 
BRANCH  25  30
ATOM     26  C   UNL     1       3.155   4.242  19.676  0.00  0.00    +0.000 A 
ATOM     27  C   UNL     1       4.476   4.056  19.295  0.00  0.00    +0.000 A 
ATOM     28  C   UNL     1       5.070   4.913  18.371  0.00  0.00    +0.000 A 
ATOM     29  C   UNL     1       4.363   5.987  17.815  0.00  0.00    +0.000 A 
ATOM     30  C   UNL     1       3.014   6.190  18.149  0.00  0.00    +0.000 A 
ATOM     31  C   UNL     1       2.426   5.293  19.094  0.00  0.00    +0.000 A 
BRANCH  26  33
ATOM     32  C   UNL     1       1.336   3.317  20.909  0.00  0.00    +0.000 C 
ATOM     33  O   UNL     1       2.721   3.348  20.611  0.00  0.00    +0.000 OA
ENDBRANCH  26  33
BRANCH  29  34
ATOM     34  O   UNL     1       4.940   6.848  16.922  0.00  0.00    +0.000 OA
ATOM     35  C   UNL     1       5.299   6.283  15.666  0.00  0.00    +0.000 C 
ENDBRANCH  29  34
ENDBRANCH  25  30
ENDBRANCH  24  25
ENDBRANCH   1  24
TORSDOF 8
ENDMDL
