MODEL 1
REMARK VINA RESULT:      -6.3      0.000      0.000
REMARK  Name = 
REMARK  6 active torsions:
REMARK  status: ('A' for Active; 'I' for Inactive)
REMARK    1  A    between atoms: C_1  and  C_2
REMARK    2  A    between atoms: N_4  and  N_5
REMARK    3  A    between atoms: C_6  and  C_8
REMARK    4  A    between atoms: C_10  and  C_11
REMARK    5  A    between atoms: C_11  and  C_12
REMARK    6  A    between atoms: C_11  and  C_13
REMARK                            x       y       z     vdW  Elec       q    Type
REMARK                         _______ _______ _______ _____ _____    ______ ____
ROOT
ATOM      1  N   UNL     1       6.465   5.038  16.047  0.00  0.00    +0.000 N 
ATOM      2  C   UNL     1       5.362   5.806  16.385  0.00  0.00    +0.000 C 
ATOM      3  O   UNL     1       5.093   6.822  15.736  0.00  0.00    +0.000 OA
ATOM      4  H   UNL     1       6.721   4.196  16.566  0.00  0.00    +0.000 HD
ENDROOT
BRANCH   1   8
ATOM      5  C   UNL     1       8.078   5.322  12.710  0.00  0.00    +0.000 C 
ATOM      6  C   UNL     1       7.116   4.818  13.752  0.00  0.00    +0.000 C 
ATOM      7  O   UNL     1       6.285   3.943  13.532  0.00  0.00    +0.000 OA
ATOM      8  N   UNL     1       7.265   5.439  14.972  0.00  0.00    +0.000 N 
ATOM      9  H   UNL     1       7.990   6.125  15.172  0.00  0.00    +0.000 HD
ENDBRANCH   1   8
BRANCH   2  10
ATOM     10  C   UNL     1       4.603   5.311  17.528  0.00  0.00    +0.000 A 
ATOM     11  N   UNL     1       3.329   4.960  17.479  0.00  0.00    +0.000 NA
ATOM     12  C   UNL     1       2.920   4.503  18.730  0.00  0.00    +0.000 A 
ATOM     13  C   UNL     1       3.900   4.543  19.705  0.00  0.00    +0.000 A 
ATOM     14  S   UNL     1       5.364   5.143  19.055  0.00  0.00    +0.000 S 
BRANCH  12  15
ATOM     15  C   UNL     1       1.516   3.995  18.929  0.00  0.00    +0.000 C 
ATOM     16  C   UNL     1       1.364   2.537  18.498  0.00  0.00    +0.000 C 
ATOM     17  C   UNL     1       1.053   4.185  20.374  0.00  0.00    +0.000 C 
ENDBRANCH  12  15
ENDBRANCH   2  10
TORSDOF 3
ENDMDL
MODEL 2
REMARK VINA RESULT:      -6.1      2.440      6.299
REMARK  Name = 
REMARK  6 active torsions:
REMARK  status: ('A' for Active; 'I' for Inactive)
REMARK    1  A    between atoms: C_1  and  C_2
REMARK    2  A    between atoms: N_4  and  N_5
REMARK    3  A    between atoms: C_6  and  C_8
REMARK    4  A    between atoms: C_10  and  C_11
REMARK    5  A    between atoms: C_11  and  C_12
REMARK    6  A    between atoms: C_11  and  C_13
REMARK                            x       y       z     vdW  Elec       q    Type
REMARK                         _______ _______ _______ _____ _____    ______ ____
ROOT
ATOM      1  N   UNL     1       3.670   3.429  17.352  0.00  0.00    +0.000 N 
ATOM      2  C   UNL     1       4.948   3.939  17.525  0.00  0.00    +0.000 C 
ATOM      3  O   UNL     1       5.383   4.146  18.663  0.00  0.00    +0.000 OA
ATOM      4  H   UNL     1       3.277   3.252  16.426  0.00  0.00    +0.000 HD
ENDROOT
BRANCH   1   8
ATOM      5  C   UNL     1       0.858   3.207  19.773  0.00  0.00    +0.000 C 
ATOM      6  C   UNL     1       1.555   3.506  18.473  0.00  0.00    +0.000 C 
ATOM      7  O   UNL     1       0.986   4.004  17.507  0.00  0.00    +0.000 OA
ATOM      8  N   UNL     1       2.888   3.165  18.481  0.00  0.00    +0.000 N 
ATOM      9  H   UNL     1       3.374   2.803  19.300  0.00  0.00    +0.000 HD
ENDBRANCH   1   8
BRANCH   2  10
ATOM     10  C   UNL     1       5.674   4.193  16.286  0.00  0.00    +0.000 A 
ATOM     11  N   UNL     1       5.487   3.521  15.163  0.00  0.00    +0.000 NA
ATOM     12  C   UNL     1       6.313   4.035  14.166  0.00  0.00    +0.000 A 
ATOM     13  C   UNL     1       7.127   5.076  14.574  0.00  0.00    +0.000 A 
ATOM     14  S   UNL     1       6.850   5.439  16.222  0.00  0.00    +0.000 S 
BRANCH  12  15
ATOM     15  C   UNL     1       6.256   3.472  12.770  0.00  0.00    +0.000 C 
ATOM     16  C   UNL     1       4.840   3.495  12.197  0.00  0.00    +0.000 C 
ATOM     17  C   UNL     1       7.231   4.192  11.837  0.00  0.00    +0.000 C 
ENDBRANCH  12  15
ENDBRANCH   2  10
TORSDOF 3
ENDMDL
MODEL 3
REMARK VINA RESULT:      -6.0      3.985      6.189
REMARK  Name = 
REMARK  6 active torsions:
REMARK  status: ('A' for Active; 'I' for Inactive)
REMARK    1  A    between atoms: C_1  and  C_2
REMARK    2  A    between atoms: N_4  and  N_5
REMARK    3  A    between atoms: C_6  and  C_8
REMARK    4  A    between atoms: C_10  and  C_11
REMARK    5  A    between atoms: C_11  and  C_12
REMARK    6  A    between atoms: C_11  and  C_13
REMARK                            x       y       z     vdW  Elec       q    Type
REMARK                         _______ _______ _______ _____ _____    ______ ____
ROOT
ATOM      1  N   UNL     1       7.966   8.060  17.792  0.00  0.00    +0.000 N 
ATOM      2  C   UNL     1       7.665   6.715  17.944  0.00  0.00    +0.000 C 
ATOM      3  O   UNL     1       8.003   6.118  18.972  0.00  0.00    +0.000 OA
ATOM      4  H   UNL     1       7.708   8.582  16.953  0.00  0.00    +0.000 HD
ENDROOT
BRANCH   1   8
ATOM      5  C   UNL     1       9.709  10.622  19.846  0.00  0.00    +0.000 C 
ATOM      6  C   UNL     1       8.911  10.067  18.697  0.00  0.00    +0.000 C 
ATOM      7  O   UNL     1       8.524  10.752  17.756  0.00  0.00    +0.000 OA
ATOM      8  N   UNL     1       8.661   8.718  18.812  0.00  0.00    +0.000 N 
ATOM      9  H   UNL     1       9.028   8.137  19.564  0.00  0.00    +0.000 HD
ENDBRANCH   1   8
BRANCH   2  10
ATOM     10  C   UNL     1       6.953   6.119  16.819  0.00  0.00    +0.000 A 
ATOM     11  N   UNL     1       7.545   5.550  15.783  0.00  0.00    +0.000 NA
ATOM     12  C   UNL     1       6.582   5.055  14.907  0.00  0.00    +0.000 A 
ATOM     13  C   UNL     1       5.275   5.285  15.300  0.00  0.00    +0.000 A 
ATOM     14  S   UNL     1       5.239   6.117  16.792  0.00  0.00    +0.000 S 
BRANCH  12  15
ATOM     15  C   UNL     1       6.998   4.313  13.664  0.00  0.00    +0.000 C 
ATOM     16  C   UNL     1       5.810   3.666  12.953  0.00  0.00    +0.000 C 
ATOM     17  C   UNL     1       7.776   5.218  12.708  0.00  0.00    +0.000 C 
ENDBRANCH  12  15
ENDBRANCH   2  10
TORSDOF 3
ENDMDL
MODEL 4
REMARK VINA RESULT:      -5.9      4.417      6.431
REMARK  Name = 
REMARK  6 active torsions:
REMARK  status: ('A' for Active; 'I' for Inactive)
REMARK    1  A    between atoms: C_1  and  C_2
REMARK    2  A    between atoms: N_4  and  N_5
REMARK    3  A    between atoms: C_6  and  C_8
REMARK    4  A    between atoms: C_10  and  C_11
REMARK    5  A    between atoms: C_11  and  C_12
REMARK    6  A    between atoms: C_11  and  C_13
REMARK                            x       y       z     vdW  Elec       q    Type
REMARK                         _______ _______ _______ _____ _____    ______ ____
ROOT
ATOM      1  N   UNL     1       5.262   1.788  20.540  0.00  0.00    +0.000 N 
ATOM      2  C   UNL     1       4.409   2.104  19.493  0.00  0.00    +0.000 C 
ATOM      3  O   UNL     1       3.813   1.206  18.888  0.00  0.00    +0.000 OA
ATOM      4  H   UNL     1       5.775   2.504  21.057  0.00  0.00    +0.000 HD
ENDROOT
BRANCH   1   8
ATOM      5  C   UNL     1       6.352  -1.355  22.197  0.00  0.00    +0.000 C 
ATOM      6  C   UNL     1       6.215   0.127  21.979  0.00  0.00    +0.000 C 
ATOM      7  O   UNL     1       6.744   0.964  22.703  0.00  0.00    +0.000 OA
ATOM      8  N   UNL     1       5.438   0.445  20.888  0.00  0.00    +0.000 N 
ATOM      9  H   UNL     1       5.044  -0.248  20.254  0.00  0.00    +0.000 HD
ENDBRANCH   1   8
BRANCH   2  10
ATOM     10  C   UNL     1       4.305   3.529  19.200  0.00  0.00    +0.000 A 
ATOM     11  N   UNL     1       5.114   4.179  18.381  0.00  0.00    +0.000 NA
ATOM     12  C   UNL     1       4.723   5.514  18.299  0.00  0.00    +0.000 A 
ATOM     13  C   UNL     1       3.631   5.842  19.083  0.00  0.00    +0.000 A 
ATOM     14  S   UNL     1       3.068   4.466  19.927  0.00  0.00    +0.000 S 
BRANCH  12  15
ATOM     15  C   UNL     1       5.456   6.464  17.388  0.00  0.00    +0.000 C 
ATOM     16  C   UNL     1       6.954   6.506  17.685  0.00  0.00    +0.000 C 
ATOM     17  C   UNL     1       5.203   6.134  15.916  0.00  0.00    +0.000 C 
ENDBRANCH  12  15
ENDBRANCH   2  10
TORSDOF 3
ENDMDL
MODEL 5
REMARK VINA RESULT:      -5.9      2.057      2.508
REMARK  Name = 
REMARK  6 active torsions:
REMARK  status: ('A' for Active; 'I' for Inactive)
REMARK    1  A    between atoms: C_1  and  C_2
REMARK    2  A    between atoms: N_4  and  N_5
REMARK    3  A    between atoms: C_6  and  C_8
REMARK    4  A    between atoms: C_10  and  C_11
REMARK    5  A    between atoms: C_11  and  C_12
REMARK    6  A    between atoms: C_11  and  C_13
REMARK                            x       y       z     vdW  Elec       q    Type
REMARK                         _______ _______ _______ _____ _____    ______ ____
ROOT
ATOM      1  N   UNL     1       5.851   3.693  14.289  0.00  0.00    +0.000 N 
ATOM      2  C   UNL     1       6.327   4.728  15.079  0.00  0.00    +0.000 C 
ATOM      3  O   UNL     1       7.450   5.200  14.872  0.00  0.00    +0.000 OA
ATOM      4  H   UNL     1       4.931   3.276  14.436  0.00  0.00    +0.000 HD
ENDROOT
BRANCH   1   8
ATOM      5  C   UNL     1       7.094   2.312  11.069  0.00  0.00    +0.000 C 
ATOM      6  C   UNL     1       6.105   2.884  12.048  0.00  0.00    +0.000 C 
ATOM      7  O   UNL     1       4.920   3.056  11.781  0.00  0.00    +0.000 OA
ATOM      8  N   UNL     1       6.666   3.193  13.267  0.00  0.00    +0.000 N 
ATOM      9  H   UNL     1       7.636   3.001  13.508  0.00  0.00    +0.000 HD
ENDBRANCH   1   8
BRANCH   2  10
ATOM     10  C   UNL     1       5.409   5.167  16.124  0.00  0.00    +0.000 A 
ATOM     11  N   UNL     1       4.502   4.389  16.691  0.00  0.00    +0.000 NA
ATOM     12  C   UNL     1       3.816   5.106  17.669  0.00  0.00    +0.000 A 
ATOM     13  C   UNL     1       4.213   6.425  17.801  0.00  0.00    +0.000 A 
ATOM     14  S   UNL     1       5.473   6.780  16.701  0.00  0.00    +0.000 S 
BRANCH  12  15
ATOM     15  C   UNL     1       2.757   4.430  18.501  0.00  0.00    +0.000 C 
ATOM     16  C   UNL     1       2.471   5.186  19.797  0.00  0.00    +0.000 C 
ATOM     17  C   UNL     1       1.471   4.216  17.701  0.00  0.00    +0.000 C 
ENDBRANCH  12  15
ENDBRANCH   2  10
TORSDOF 3
ENDMDL
MODEL 6
REMARK VINA RESULT:      -5.9      4.456      6.174
REMARK  Name = 
REMARK  6 active torsions:
REMARK  status: ('A' for Active; 'I' for Inactive)
REMARK    1  A    between atoms: C_1  and  C_2
REMARK    2  A    between atoms: N_4  and  N_5
REMARK    3  A    between atoms: C_6  and  C_8
REMARK    4  A    between atoms: C_10  and  C_11
REMARK    5  A    between atoms: C_11  and  C_12
REMARK    6  A    between atoms: C_11  and  C_13
REMARK                            x       y       z     vdW  Elec       q    Type
REMARK                         _______ _______ _______ _____ _____    ______ ____
ROOT
ATOM      1  N   UNL     1       5.126   1.670  20.383  0.00  0.00    +0.000 N 
ATOM      2  C   UNL     1       4.213   1.949  19.378  0.00  0.00    +0.000 C 
ATOM      3  O   UNL     1       3.794   1.040  18.653  0.00  0.00    +0.000 OA
ATOM      4  H   UNL     1       5.498   2.397  20.996  0.00  0.00    +0.000 HD
ENDROOT
BRANCH   1   8
ATOM      5  C   UNL     1       6.694  -1.425  21.716  0.00  0.00    +0.000 C 
ATOM      6  C   UNL     1       6.243   0.010  21.701  0.00  0.00    +0.000 C 
ATOM      7  O   UNL     1       6.459   0.791  22.621  0.00  0.00    +0.000 OA
ATOM      8  N   UNL     1       5.566   0.353  20.552  0.00  0.00    +0.000 N 
ATOM      9  H   UNL     1       5.433  -0.279  19.764  0.00  0.00    +0.000 HD
ENDBRANCH   1   8
BRANCH   2  10
ATOM     10  C   UNL     1       3.830   3.352  19.275  0.00  0.00    +0.000 A 
ATOM     11  N   UNL     1       4.207   4.155  18.295  0.00  0.00    +0.000 NA
ATOM     12  C   UNL     1       3.643   5.416  18.478  0.00  0.00    +0.000 A 
ATOM     13  C   UNL     1       2.866   5.538  19.617  0.00  0.00    +0.000 A 
ATOM     14  S   UNL     1       2.819   4.056  20.467  0.00  0.00    +0.000 S 
BRANCH  12  15
ATOM     15  C   UNL     1       3.879   6.506  17.466  0.00  0.00    +0.000 C 
ATOM     16  C   UNL     1       3.129   7.790  17.816  0.00  0.00    +0.000 C 
ATOM     17  C   UNL     1       5.372   6.782  17.280  0.00  0.00    +0.000 C 
ENDBRANCH  12  15
ENDBRANCH   2  10
TORSDOF 3
ENDMDL
MODEL 7
REMARK VINA RESULT:      -5.9      2.699      6.368
REMARK  Name = 
REMARK  6 active torsions:
REMARK  status: ('A' for Active; 'I' for Inactive)
REMARK    1  A    between atoms: C_1  and  C_2
REMARK    2  A    between atoms: N_4  and  N_5
REMARK    3  A    between atoms: C_6  and  C_8
REMARK    4  A    between atoms: C_10  and  C_11
REMARK    5  A    between atoms: C_11  and  C_12
REMARK    6  A    between atoms: C_11  and  C_13
REMARK                            x       y       z     vdW  Elec       q    Type
REMARK                         _______ _______ _______ _____ _____    ______ ____
ROOT
ATOM      1  N   UNL     1       3.366   4.254  18.877  0.00  0.00    +0.000 N 
ATOM      2  C   UNL     1       4.717   4.160  18.578  0.00  0.00    +0.000 C 
ATOM      3  O   UNL     1       5.504   3.696  19.411  0.00  0.00    +0.000 OA
ATOM      4  H   UNL     1       2.690   4.638  18.216  0.00  0.00    +0.000 HD
ENDROOT
BRANCH   1   8
ATOM      5  C   UNL     1       1.474   2.604  21.618  0.00  0.00    +0.000 C 
ATOM      6  C   UNL     1       1.875   2.931  20.205  0.00  0.00    +0.000 C 
ATOM      7  O   UNL     1       1.324   2.447  19.222  0.00  0.00    +0.000 OA
ATOM      8  N   UNL     1       2.919   3.826  20.131  0.00  0.00    +0.000 N 
ATOM      9  H   UNL     1       3.341   4.270  20.944  0.00  0.00    +0.000 HD
ENDBRANCH   1   8
BRANCH   2  10
ATOM     10  C   UNL     1       5.083   4.646  17.253  0.00  0.00    +0.000 A 
ATOM     11  N   UNL     1       5.614   3.892  16.305  0.00  0.00    +0.000 NA
ATOM     12  C   UNL     1       5.812   4.654  15.156  0.00  0.00    +0.000 A 
ATOM     13  C   UNL     1       5.442   5.982  15.276  0.00  0.00    +0.000 A 
ATOM     14  S   UNL     1       4.820   6.288  16.839  0.00  0.00    +0.000 S 
BRANCH  12  15
ATOM     15  C   UNL     1       6.363   4.014  13.909  0.00  0.00    +0.000 C 
ATOM     16  C   UNL     1       5.262   3.641  12.917  0.00  0.00    +0.000 C 
ATOM     17  C   UNL     1       7.415   4.903  13.243  0.00  0.00    +0.000 C 
ENDBRANCH  12  15
ENDBRANCH   2  10
TORSDOF 3
ENDMDL
MODEL 8
REMARK VINA RESULT:      -5.9      1.975      2.415
REMARK  Name = 
REMARK  6 active torsions:
REMARK  status: ('A' for Active; 'I' for Inactive)
REMARK    1  A    between atoms: C_1  and  C_2
REMARK    2  A    between atoms: N_4  and  N_5
REMARK    3  A    between atoms: C_6  and  C_8
REMARK    4  A    between atoms: C_10  and  C_11
REMARK    5  A    between atoms: C_11  and  C_12
REMARK    6  A    between atoms: C_11  and  C_13
REMARK                            x       y       z     vdW  Elec       q    Type
REMARK                         _______ _______ _______ _____ _____    ______ ____
ROOT
ATOM      1  N   UNL     1       6.075   3.813  14.856  0.00  0.00    +0.000 N 
ATOM      2  C   UNL     1       6.597   4.849  15.616  0.00  0.00    +0.000 C 
ATOM      3  O   UNL     1       7.606   5.450  15.233  0.00  0.00    +0.000 OA
ATOM      4  H   UNL     1       5.247   3.291  15.145  0.00  0.00    +0.000 HD
ENDROOT
BRANCH   1   8
ATOM      5  C   UNL     1       6.790   2.904  11.323  0.00  0.00    +0.000 C 
ATOM      6  C   UNL     1       5.973   3.337  12.510  0.00  0.00    +0.000 C 
ATOM      7  O   UNL     1       4.768   3.556  12.451  0.00  0.00    +0.000 OA
ATOM      8  N   UNL     1       6.716   3.460  13.663  0.00  0.00    +0.000 N 
ATOM      9  H   UNL     1       7.704   3.226  13.726  0.00  0.00    +0.000 HD
ENDBRANCH   1   8
BRANCH   2  10
ATOM     10  C   UNL     1       5.866   5.128  16.847  0.00  0.00    +0.000 A 
ATOM     11  N   UNL     1       4.580   5.433  16.895  0.00  0.00    +0.000 NA
ATOM     12  C   UNL     1       4.189   5.607  18.220  0.00  0.00    +0.000 A 
ATOM     13  C   UNL     1       5.206   5.448  19.145  0.00  0.00    +0.000 A 
ATOM     14  S   UNL     1       6.673   5.059  18.358  0.00  0.00    +0.000 S 
BRANCH  12  15
ATOM     15  C   UNL     1       2.752   5.914  18.552  0.00  0.00    +0.000 C 
ATOM     16  C   UNL     1       2.361   7.337  18.157  0.00  0.00    +0.000 C 
ATOM     17  C   UNL     1       1.803   4.894  17.922  0.00  0.00    +0.000 C 
ENDBRANCH  12  15
ENDBRANCH   2  10
TORSDOF 3
ENDMDL
MODEL 9
REMARK VINA RESULT:      -5.8      3.787      6.833
REMARK  Name = 
REMARK  6 active torsions:
REMARK  status: ('A' for Active; 'I' for Inactive)
REMARK    1  A    between atoms: C_1  and  C_2
REMARK    2  A    between atoms: N_4  and  N_5
REMARK    3  A    between atoms: C_6  and  C_8
REMARK    4  A    between atoms: C_10  and  C_11
REMARK    5  A    between atoms: C_11  and  C_12
REMARK    6  A    between atoms: C_11  and  C_13
REMARK                            x       y       z     vdW  Elec       q    Type
REMARK                         _______ _______ _______ _____ _____    ______ ____
ROOT
ATOM      1  N   UNL     1       2.362   6.871  20.187  0.00  0.00    +0.000 N 
ATOM      2  C   UNL     1       2.690   5.525  20.246  0.00  0.00    +0.000 C 
ATOM      3  O   UNL     1       2.228   4.814  21.145  0.00  0.00    +0.000 OA
ATOM      4  H   UNL     1       2.731   7.489  19.463  0.00  0.00    +0.000 HD
ENDROOT
BRANCH   1   8
ATOM      5  C   UNL     1       0.106   9.106  22.120  0.00  0.00    +0.000 C 
ATOM      6  C   UNL     1       0.955   8.647  20.965  0.00  0.00    +0.000 C 
ATOM      7  O   UNL     1       1.129   9.317  19.953  0.00  0.00    +0.000 OA
ATOM      8  N   UNL     1       1.512   7.404  21.163  0.00  0.00    +0.000 N 
ATOM      9  H   UNL     1       1.413   6.870  22.024  0.00  0.00    +0.000 HD
ENDBRANCH   1   8
BRANCH   2  10
ATOM     10  C   UNL     1       3.593   5.072  19.194  0.00  0.00    +0.000 A 
ATOM     11  N   UNL     1       4.901   5.265  19.204  0.00  0.00    +0.000 NA
ATOM     12  C   UNL     1       5.469   4.681  18.073  0.00  0.00    +0.000 A 
ATOM     13  C   UNL     1       4.562   4.077  17.221  0.00  0.00    +0.000 A 
ATOM     14  S   UNL     1       2.975   4.219  17.842  0.00  0.00    +0.000 S 
BRANCH  12  15
ATOM     15  C   UNL     1       6.961   4.719  17.870  0.00  0.00    +0.000 C 
ATOM     16  C   UNL     1       7.344   4.634  16.393  0.00  0.00    +0.000 C 
ATOM     17  C   UNL     1       7.583   5.954  18.522  0.00  0.00    +0.000 C 
ENDBRANCH  12  15
ENDBRANCH   2  10
TORSDOF 3
ENDMDL
