MODEL 1
REMARK VINA RESULT:      -7.0      0.000      0.000
REMARK  Name = 
REMARK  5 active torsions:
REMARK  status: ('A' for Active; 'I' for Inactive)
REMARK    1  A    between atoms: C_1  and  C_2
REMARK    2  A    between atoms: C_2  and  C_13
REMARK    3  A    between atoms: N_3  and  N_4
REMARK    4  A    between atoms: C_5  and  C_7
REMARK    5  A    between atoms: C_11  and  C_12
REMARK                            x       y       z     vdW  Elec       q    Type
REMARK                         _______ _______ _______ _____ _____    ______ ____
ROOT
ATOM      1  N   UNL     1       4.243   3.739  17.733  0.00  0.00    +0.000 N 
ATOM      2  C   UNL     1       2.882   3.453  17.849  0.00  0.00    +0.000 C 
ATOM      3  O   UNL     1       2.144   3.149  16.922  0.00  0.00    +0.000 OA
ATOM      4  H   UNL     1       4.786   3.841  18.576  0.00  0.00    +0.000 HD
ENDROOT
BRANCH   2   5
ATOM      5  C   UNL     1       2.406   3.530  19.229  0.00  0.00    +0.000 A 
ATOM      6  C   UNL     1       1.982   2.469  20.092  0.00  0.00    +0.000 A 
ATOM      7  C   UNL     1       1.624   3.050  21.284  0.00  0.00    +0.000 A 
ATOM      8  O   UNL     1       1.797   4.391  21.226  0.00  0.00    +0.000 OA
ATOM      9  C   UNL     1       2.270   4.687  19.983  0.00  0.00    +0.000 A 
ATOM     10  C   UNL     1       2.472   6.128  19.709  0.00  0.00    +0.000 C 
ENDBRANCH   2   5
BRANCH   1  13
ATOM     11  C   UNL     1       5.090   6.168  16.413  0.00  0.00    +0.000 C 
ATOM     12  C   UNL     1       5.268   4.747  15.911  0.00  0.00    +0.000 C 
ATOM     13  N   UNL     1       4.862   3.671  16.522  0.00  0.00    +0.000 NA
BRANCH  12  14
ATOM     14  C   UNL     1       5.954   4.584  14.588  0.00  0.00    +0.000 A 
ATOM     15  C   UNL     1       5.497   3.701  13.603  0.00  0.00    +0.000 A 
ATOM     16  C   UNL     1       6.197   3.576  12.404  0.00  0.00    +0.000 A 
ATOM     17  C   UNL     1       7.334   4.345  12.223  0.00  0.00    +0.000 A 
ATOM     18  N   UNL     1       7.798   5.217  13.140  0.00  0.00    +0.000 NA
ATOM     19  C   UNL     1       7.101   5.319  14.301  0.00  0.00    +0.000 A 
ENDBRANCH  12  14
ENDBRANCH   1  13
TORSDOF 3
ENDMDL
MODEL 2
REMARK VINA RESULT:      -6.9      1.019      1.493
REMARK  Name = 
REMARK  5 active torsions:
REMARK  status: ('A' for Active; 'I' for Inactive)
REMARK    1  A    between atoms: C_1  and  C_2
REMARK    2  A    between atoms: C_2  and  C_13
REMARK    3  A    between atoms: N_3  and  N_4
REMARK    4  A    between atoms: C_5  and  C_7
REMARK    5  A    between atoms: C_11  and  C_12
REMARK                            x       y       z     vdW  Elec       q    Type
REMARK                         _______ _______ _______ _____ _____    ______ ____
ROOT
ATOM      1  N   UNL     1       4.177   3.935  17.578  0.00  0.00    +0.000 N 
ATOM      2  C   UNL     1       2.875   3.493  17.816  0.00  0.00    +0.000 C 
ATOM      3  O   UNL     1       2.072   3.167  16.953  0.00  0.00    +0.000 OA
ATOM      4  H   UNL     1       4.799   4.045  18.363  0.00  0.00    +0.000 HD
ENDROOT
BRANCH   2   5
ATOM      5  C   UNL     1       2.555   3.429  19.241  0.00  0.00    +0.000 A 
ATOM      6  C   UNL     1       1.461   4.031  19.943  0.00  0.00    +0.000 A 
ATOM      7  C   UNL     1       1.600   3.683  21.263  0.00  0.00    +0.000 A 
ATOM      8  O   UNL     1       2.697   2.909  21.434  0.00  0.00    +0.000 OA
ATOM      9  C   UNL     1       3.279   2.753  20.211  0.00  0.00    +0.000 A 
ATOM     10  C   UNL     1       4.537   1.971  20.205  0.00  0.00    +0.000 C 
ENDBRANCH   2   5
BRANCH   1  13
ATOM     11  C   UNL     1       6.923   4.722  17.124  0.00  0.00    +0.000 C 
ATOM     12  C   UNL     1       5.894   4.350  16.072  0.00  0.00    +0.000 C 
ATOM     13  N   UNL     1       4.657   4.014  16.306  0.00  0.00    +0.000 NA
BRANCH  12  14
ATOM     14  C   UNL     1       6.347   4.399  14.643  0.00  0.00    +0.000 A 
ATOM     15  C   UNL     1       5.763   3.622  13.636  0.00  0.00    +0.000 A 
ATOM     16  C   UNL     1       6.251   3.694  12.333  0.00  0.00    +0.000 A 
ATOM     17  C   UNL     1       7.309   4.547  12.072  0.00  0.00    +0.000 A 
ATOM     18  N   UNL     1       7.890   5.322  13.010  0.00  0.00    +0.000 NA
ATOM     19  C   UNL     1       7.399   5.233  14.274  0.00  0.00    +0.000 A 
ENDBRANCH  12  14
ENDBRANCH   1  13
TORSDOF 3
ENDMDL
MODEL 3
REMARK VINA RESULT:      -6.8      1.185      1.185
REMARK  Name = 
REMARK  5 active torsions:
REMARK  status: ('A' for Active; 'I' for Inactive)
REMARK    1  A    between atoms: C_1  and  C_2
REMARK    2  A    between atoms: C_2  and  C_13
REMARK    3  A    between atoms: N_3  and  N_4
REMARK    4  A    between atoms: C_5  and  C_7
REMARK    5  A    between atoms: C_11  and  C_12
REMARK                            x       y       z     vdW  Elec       q    Type
REMARK                         _______ _______ _______ _____ _____    ______ ____
ROOT
ATOM      1  N   UNL     1       3.779   3.703  17.618  0.00  0.00    +0.000 N 
ATOM      2  C   UNL     1       4.352   3.672  18.889  0.00  0.00    +0.000 C 
ATOM      3  O   UNL     1       5.552   3.621  19.121  0.00  0.00    +0.000 OA
ATOM      4  H   UNL     1       2.790   3.885  17.540  0.00  0.00    +0.000 HD
ENDROOT
BRANCH   2   5
ATOM      5  C   UNL     1       3.355   3.730  19.957  0.00  0.00    +0.000 A 
ATOM      6  C   UNL     1       2.950   2.698  20.864  0.00  0.00    +0.000 A 
ATOM      7  C   UNL     1       1.984   3.241  21.674  0.00  0.00    +0.000 A 
ATOM      8  O   UNL     1       1.760   4.533  21.340  0.00  0.00    +0.000 OA
ATOM      9  C   UNL     1       2.589   4.834  20.300  0.00  0.00    +0.000 A 
ATOM     10  C   UNL     1       2.449   6.204  19.755  0.00  0.00    +0.000 C 
ENDBRANCH   2   5
BRANCH   1  13
ATOM     11  C   UNL     1       4.771   6.202  16.552  0.00  0.00    +0.000 C 
ATOM     12  C   UNL     1       5.038   4.809  16.012  0.00  0.00    +0.000 C 
ATOM     13  N   UNL     1       4.565   3.701  16.506  0.00  0.00    +0.000 NA
BRANCH  12  14
ATOM     14  C   UNL     1       5.907   4.718  14.793  0.00  0.00    +0.000 A 
ATOM     15  C   UNL     1       5.608   3.881  13.712  0.00  0.00    +0.000 A 
ATOM     16  C   UNL     1       6.473   3.822  12.620  0.00  0.00    +0.000 A 
ATOM     17  C   UNL     1       7.613   4.607  12.640  0.00  0.00    +0.000 A 
ATOM     18  N   UNL     1       7.930   5.435  13.656  0.00  0.00    +0.000 NA
ATOM     19  C   UNL     1       7.073   5.474  14.709  0.00  0.00    +0.000 A 
ENDBRANCH  12  14
ENDBRANCH   1  13
TORSDOF 3
ENDMDL
MODEL 4
REMARK VINA RESULT:      -6.8      0.688      1.137
REMARK  Name = 
REMARK  5 active torsions:
REMARK  status: ('A' for Active; 'I' for Inactive)
REMARK    1  A    between atoms: C_1  and  C_2
REMARK    2  A    between atoms: C_2  and  C_13
REMARK    3  A    between atoms: N_3  and  N_4
REMARK    4  A    between atoms: C_5  and  C_7
REMARK    5  A    between atoms: C_11  and  C_12
REMARK                            x       y       z     vdW  Elec       q    Type
REMARK                         _______ _______ _______ _____ _____    ______ ____
ROOT
ATOM      1  N   UNL     1       4.299   3.758  17.721  0.00  0.00    +0.000 N 
ATOM      2  C   UNL     1       2.935   3.490  17.836  0.00  0.00    +0.000 C 
ATOM      3  O   UNL     1       2.197   3.176  16.912  0.00  0.00    +0.000 OA
ATOM      4  H   UNL     1       4.840   3.870  18.565  0.00  0.00    +0.000 HD
ENDROOT
BRANCH   2   5
ATOM      5  C   UNL     1       2.454   3.598  19.213  0.00  0.00    +0.000 A 
ATOM      6  C   UNL     1       2.035   2.556  20.101  0.00  0.00    +0.000 A 
ATOM      7  C   UNL     1       1.670   3.163  21.277  0.00  0.00    +0.000 A 
ATOM      8  O   UNL     1       1.833   4.503  21.186  0.00  0.00    +0.000 OA
ATOM      9  C   UNL     1       2.308   4.771  19.937  0.00  0.00    +0.000 A 
ATOM     10  C   UNL     1       2.501   6.207  19.628  0.00  0.00    +0.000 C 
ENDBRANCH   2   5
BRANCH   1  13
ATOM     11  C   UNL     1       5.055   6.158  16.296  0.00  0.00    +0.000 C 
ATOM     12  C   UNL     1       5.288   4.724  15.857  0.00  0.00    +0.000 C 
ATOM     13  N   UNL     1       4.923   3.661  16.515  0.00  0.00    +0.000 NA
BRANCH  12  14
ATOM     14  C   UNL     1       5.982   4.530  14.542  0.00  0.00    +0.000 A 
ATOM     15  C   UNL     1       7.172   5.188  14.209  0.00  0.00    +0.000 A 
ATOM     16  C   UNL     1       7.751   4.984  12.958  0.00  0.00    +0.000 A 
ATOM     17  C   UNL     1       7.123   4.122  12.074  0.00  0.00    +0.000 A 
ATOM     18  N   UNL     1       5.985   3.460  12.361  0.00  0.00    +0.000 NA
ATOM     19  C   UNL     1       5.438   3.676  13.586  0.00  0.00    +0.000 A 
ENDBRANCH  12  14
ENDBRANCH   1  13
TORSDOF 3
ENDMDL
MODEL 5
REMARK VINA RESULT:      -6.7      1.164      1.639
REMARK  Name = 
REMARK  5 active torsions:
REMARK  status: ('A' for Active; 'I' for Inactive)
REMARK    1  A    between atoms: C_1  and  C_2
REMARK    2  A    between atoms: C_2  and  C_13
REMARK    3  A    between atoms: N_3  and  N_4
REMARK    4  A    between atoms: C_5  and  C_7
REMARK    5  A    between atoms: C_11  and  C_12
REMARK                            x       y       z     vdW  Elec       q    Type
REMARK                         _______ _______ _______ _____ _____    ______ ____
ROOT
ATOM      1  N   UNL     1       3.915   3.471  17.676  0.00  0.00    +0.000 N 
ATOM      2  C   UNL     1       3.010   4.389  18.209  0.00  0.00    +0.000 C 
ATOM      3  O   UNL     1       2.685   5.445  17.684  0.00  0.00    +0.000 OA
ATOM      4  H   UNL     1       4.006   2.571  18.122  0.00  0.00    +0.000 HD
ENDROOT
BRANCH   2   5
ATOM      5  C   UNL     1       2.448   3.950  19.485  0.00  0.00    +0.000 A 
ATOM      6  C   UNL     1       2.811   4.351  20.811  0.00  0.00    +0.000 A 
ATOM      7  C   UNL     1       1.997   3.655  21.670  0.00  0.00    +0.000 A 
ATOM      8  O   UNL     1       1.155   2.853  20.978  0.00  0.00    +0.000 OA
ATOM      9  C   UNL     1       1.425   3.029  19.653  0.00  0.00    +0.000 A 
ATOM     10  C   UNL     1       0.632   2.186  18.729  0.00  0.00    +0.000 C 
ENDBRANCH   2   5
BRANCH   1  13
ATOM     11  C   UNL     1       6.604   4.530  17.562  0.00  0.00    +0.000 C 
ATOM     12  C   UNL     1       5.717   4.162  16.387  0.00  0.00    +0.000 C 
ATOM     13  N   UNL     1       4.502   3.700  16.469  0.00  0.00    +0.000 NA
BRANCH  12  14
ATOM     14  C   UNL     1       6.294   4.374  15.019  0.00  0.00    +0.000 A 
ATOM     15  C   UNL     1       5.837   3.685  13.890  0.00  0.00    +0.000 A 
ATOM     16  C   UNL     1       6.436   3.908  12.651  0.00  0.00    +0.000 A 
ATOM     17  C   UNL     1       7.476   4.819  12.577  0.00  0.00    +0.000 A 
ATOM     18  N   UNL     1       7.936   5.512  13.638  0.00  0.00    +0.000 NA
ATOM     19  C   UNL     1       7.338   5.276  14.835  0.00  0.00    +0.000 A 
ENDBRANCH  12  14
ENDBRANCH   1  13
TORSDOF 3
ENDMDL
MODEL 6
REMARK VINA RESULT:      -6.5      1.216      1.875
REMARK  Name = 
REMARK  5 active torsions:
REMARK  status: ('A' for Active; 'I' for Inactive)
REMARK    1  A    between atoms: C_1  and  C_2
REMARK    2  A    between atoms: C_2  and  C_13
REMARK    3  A    between atoms: N_3  and  N_4
REMARK    4  A    between atoms: C_5  and  C_7
REMARK    5  A    between atoms: C_11  and  C_12
REMARK                            x       y       z     vdW  Elec       q    Type
REMARK                         _______ _______ _______ _____ _____    ______ ____
ROOT
ATOM      1  N   UNL     1       4.215   3.943  17.502  0.00  0.00    +0.000 N 
ATOM      2  C   UNL     1       2.917   3.483  17.729  0.00  0.00    +0.000 C 
ATOM      3  O   UNL     1       2.134   3.126  16.860  0.00  0.00    +0.000 OA
ATOM      4  H   UNL     1       4.823   4.079  18.295  0.00  0.00    +0.000 HD
ENDROOT
BRANCH   2   5
ATOM      5  C   UNL     1       2.575   3.442  19.150  0.00  0.00    +0.000 A 
ATOM      6  C   UNL     1       1.466   4.048  19.824  0.00  0.00    +0.000 A 
ATOM      7  C   UNL     1       1.587   3.724  21.152  0.00  0.00    +0.000 A 
ATOM      8  O   UNL     1       2.686   2.961  21.354  0.00  0.00    +0.000 OA
ATOM      9  C   UNL     1       3.288   2.787  20.143  0.00  0.00    +0.000 A 
ATOM     10  C   UNL     1       4.552   2.014  20.169  0.00  0.00    +0.000 C 
ENDBRANCH   2   5
BRANCH   1  13
ATOM     11  C   UNL     1       6.982   4.671  17.083  0.00  0.00    +0.000 C 
ATOM     12  C   UNL     1       5.961   4.314  16.019  0.00  0.00    +0.000 C 
ATOM     13  N   UNL     1       4.715   4.004  16.237  0.00  0.00    +0.000 NA
BRANCH  12  14
ATOM     14  C   UNL     1       6.435   4.346  14.596  0.00  0.00    +0.000 A 
ATOM     15  C   UNL     1       7.480   5.172  14.165  0.00  0.00    +0.000 A 
ATOM     16  C   UNL     1       7.854   5.174  12.822  0.00  0.00    +0.000 A 
ATOM     17  C   UNL     1       7.173   4.345  11.948  0.00  0.00    +0.000 A 
ATOM     18  N   UNL     1       6.171   3.526  12.326  0.00  0.00    +0.000 NA
ATOM     19  C   UNL     1       5.823   3.543  13.639  0.00  0.00    +0.000 A 
ENDBRANCH  12  14
ENDBRANCH   1  13
TORSDOF 3
ENDMDL
MODEL 7
REMARK VINA RESULT:      -6.4      3.598      4.643
REMARK  Name = 
REMARK  5 active torsions:
REMARK  status: ('A' for Active; 'I' for Inactive)
REMARK    1  A    between atoms: C_1  and  C_2
REMARK    2  A    between atoms: C_2  and  C_13
REMARK    3  A    between atoms: N_3  and  N_4
REMARK    4  A    between atoms: C_5  and  C_7
REMARK    5  A    between atoms: C_11  and  C_12
REMARK                            x       y       z     vdW  Elec       q    Type
REMARK                         _______ _______ _______ _____ _____    ______ ____
ROOT
ATOM      1  N   UNL     1       2.624   7.581  18.613  0.00  0.00    +0.000 N 
ATOM      2  C   UNL     1       2.013   8.818  18.408  0.00  0.00    +0.000 C 
ATOM      3  O   UNL     1       2.209   9.552  17.449  0.00  0.00    +0.000 OA
ATOM      4  H   UNL     1       2.288   6.996  19.363  0.00  0.00    +0.000 HD
ENDROOT
BRANCH   2   5
ATOM      5  C   UNL     1       1.066   9.160  19.469  0.00  0.00    +0.000 A 
ATOM      6  C   UNL     1       1.084   8.773  20.847  0.00  0.00    +0.000 A 
ATOM      7  C   UNL     1      -0.020   9.343  21.431  0.00  0.00    +0.000 A 
ATOM      8  O   UNL     1      -0.720  10.057  20.520  0.00  0.00    +0.000 OA
ATOM      9  C   UNL     1      -0.066   9.949  19.329  0.00  0.00    +0.000 A 
ATOM     10  C   UNL     1      -0.718  10.627  18.185  0.00  0.00    +0.000 C 
ENDBRANCH   2   5
BRANCH   1  13
ATOM     11  C   UNL     1       4.347   5.370  19.326  0.00  0.00    +0.000 C 
ATOM     12  C   UNL     1       4.281   6.081  17.987  0.00  0.00    +0.000 C 
ATOM     13  N   UNL     1       3.503   7.085  17.699  0.00  0.00    +0.000 NA
BRANCH  12  14
ATOM     14  C   UNL     1       5.211   5.587  16.919  0.00  0.00    +0.000 A 
ATOM     15  C   UNL     1       4.923   4.474  16.120  0.00  0.00    +0.000 A 
ATOM     16  C   UNL     1       5.844   4.050  15.163  0.00  0.00    +0.000 A 
ATOM     17  C   UNL     1       7.027   4.756  15.030  0.00  0.00    +0.000 A 
ATOM     18  N   UNL     1       7.336   5.840  15.771  0.00  0.00    +0.000 NA
ATOM     19  C   UNL     1       6.424   6.232  16.698  0.00  0.00    +0.000 A 
ENDBRANCH  12  14
ENDBRANCH   1  13
TORSDOF 3
ENDMDL
MODEL 8
REMARK VINA RESULT:      -6.3      4.373      8.288
REMARK  Name = 
REMARK  5 active torsions:
REMARK  status: ('A' for Active; 'I' for Inactive)
REMARK    1  A    between atoms: C_1  and  C_2
REMARK    2  A    between atoms: C_2  and  C_13
REMARK    3  A    between atoms: N_3  and  N_4
REMARK    4  A    between atoms: C_5  and  C_7
REMARK    5  A    between atoms: C_11  and  C_12
REMARK                            x       y       z     vdW  Elec       q    Type
REMARK                         _______ _______ _______ _____ _____    ______ ____
ROOT
ATOM      1  N   UNL     1       2.447   6.897  19.777  0.00  0.00    +0.000 N 
ATOM      2  C   UNL     1       2.568   5.538  20.067  0.00  0.00    +0.000 C 
ATOM      3  O   UNL     1       2.085   4.978  21.041  0.00  0.00    +0.000 OA
ATOM      4  H   UNL     1       2.765   7.228  18.880  0.00  0.00    +0.000 HD
ENDROOT
BRANCH   2   5
ATOM      5  C   UNL     1       3.333   4.813  19.054  0.00  0.00    +0.000 A 
ATOM      6  C   UNL     1       4.706   4.975  18.678  0.00  0.00    +0.000 A 
ATOM      7  C   UNL     1       4.952   4.067  17.679  0.00  0.00    +0.000 A 
ATOM      8  O   UNL     1       3.836   3.351  17.407  0.00  0.00    +0.000 OA
ATOM      9  C   UNL     1       2.852   3.800  18.237  0.00  0.00    +0.000 A 
ATOM     10  C   UNL     1       1.527   3.166  18.049  0.00  0.00    +0.000 C 
ENDBRANCH   2   5
BRANCH   1  13
ATOM     11  C   UNL     1       1.309   9.339  18.727  0.00  0.00    +0.000 C 
ATOM     12  C   UNL     1       1.191   8.814  20.146  0.00  0.00    +0.000 C 
ATOM     13  N   UNL     1       1.728   7.716  20.595  0.00  0.00    +0.000 NA
BRANCH  12  14
ATOM     14  C   UNL     1       0.403   9.652  21.108  0.00  0.00    +0.000 A 
ATOM     15  C   UNL     1      -0.383  10.736  20.700  0.00  0.00    +0.000 A 
ATOM     16  C   UNL     1      -1.069  11.492  21.649  0.00  0.00    +0.000 A 
ATOM     17  C   UNL     1      -0.951  11.139  22.982  0.00  0.00    +0.000 A 
ATOM     18  N   UNL     1      -0.215  10.095  23.414  0.00  0.00    +0.000 NA
ATOM     19  C   UNL     1       0.446   9.375  22.471  0.00  0.00    +0.000 A 
ENDBRANCH  12  14
ENDBRANCH   1  13
TORSDOF 3
ENDMDL
MODEL 9
REMARK VINA RESULT:      -6.3      0.967      1.808
REMARK  Name = 
REMARK  5 active torsions:
REMARK  status: ('A' for Active; 'I' for Inactive)
REMARK    1  A    between atoms: C_1  and  C_2
REMARK    2  A    between atoms: C_2  and  C_13
REMARK    3  A    between atoms: N_3  and  N_4
REMARK    4  A    between atoms: C_5  and  C_7
REMARK    5  A    between atoms: C_11  and  C_12
REMARK                            x       y       z     vdW  Elec       q    Type
REMARK                         _______ _______ _______ _____ _____    ______ ____
ROOT
ATOM      1  N   UNL     1       4.247   4.195  17.532  0.00  0.00    +0.000 N 
ATOM      2  C   UNL     1       2.884   3.919  17.646  0.00  0.00    +0.000 C 
ATOM      3  O   UNL     1       2.168   3.514  16.741  0.00  0.00    +0.000 OA
ATOM      4  H   UNL     1       4.770   4.390  18.371  0.00  0.00    +0.000 HD
ENDROOT
BRANCH   2   5
ATOM      5  C   UNL     1       2.376   4.142  18.999  0.00  0.00    +0.000 A 
ATOM      6  C   UNL     1       2.768   5.137  19.951  0.00  0.00    +0.000 A 
ATOM      7  C   UNL     1       2.004   4.932  21.073  0.00  0.00    +0.000 A 
ATOM      8  O   UNL     1       1.166   3.885  20.888  0.00  0.00    +0.000 OA
ATOM      9  C   UNL     1       1.388   3.404  19.633  0.00  0.00    +0.000 A 
ATOM     10  C   UNL     1       0.593   2.210  19.263  0.00  0.00    +0.000 C 
ENDBRANCH   2   5
BRANCH   1  13
ATOM     11  C   UNL     1       5.325   6.459  16.090  0.00  0.00    +0.000 C 
ATOM     12  C   UNL     1       5.403   4.998  15.686  0.00  0.00    +0.000 C 
ATOM     13  N   UNL     1       4.894   4.000  16.350  0.00  0.00    +0.000 NA
BRANCH  12  14
ATOM     14  C   UNL     1       6.112   4.695  14.400  0.00  0.00    +0.000 A 
ATOM     15  C   UNL     1       7.282   5.355  14.007  0.00  0.00    +0.000 A 
ATOM     16  C   UNL     1       7.877   5.045  12.785  0.00  0.00    +0.000 A 
ATOM     17  C   UNL     1       7.284   4.080  11.990  0.00  0.00    +0.000 A 
ATOM     18  N   UNL     1       6.165   3.412  12.338  0.00  0.00    +0.000 NA
ATOM     19  C   UNL     1       5.603   3.733  13.533  0.00  0.00    +0.000 A 
ENDBRANCH  12  14
ENDBRANCH   1  13
TORSDOF 3
ENDMDL
