MODEL 1
REMARK VINA RESULT:      -7.4      0.000      0.000
REMARK  Name = 
REMARK  20 active torsions:
REMARK  status: ('A' for Active; 'I' for Inactive)
REMARK    1  A    between atoms: C_1  and  C_2
REMARK    2  A    between atoms: C_2  and  C_3
REMARK    3  A    between atoms: C_2  and  C_4
REMARK    4  A    between atoms: C_2  and  C_5
REMARK    5  A    between atoms: C_7  and  N_8
REMARK    6  A    between atoms: C_9  and  C_11
REMARK    7  A    between atoms: C_11  and  C_12
REMARK    8  A    between atoms: C_12  and  C_13
REMARK    9  A    between atoms: C_13  and  C_14
REMARK   10  A    between atoms: C_14  and  C_15
REMARK   11  A    between atoms: C_15  and  C_16
REMARK   12  A    between atoms: C_16  and  C_17
REMARK   13  A    between atoms: C_17  and  C_18
REMARK   14  A    between atoms: C_18  and  C_19
REMARK   15  A    between atoms: C_19  and  O_21
REMARK   16  A    between atoms: C_22  and  O_23
REMARK   17  A    between atoms: C_24  and  C_25
REMARK   18  A    between atoms: C_25  and  C_26
REMARK   19  A    between atoms: C_25  and  C_27
REMARK   20  A    between atoms: C_25  and  C_28
REMARK                            x       y       z     vdW  Elec       q    Type
REMARK                         _______ _______ _______ _____ _____    ______ ____
ROOT
ATOM      1  C   UNL     1       4.203   5.601  17.556  0.00  0.00    +0.000 A 
ATOM      2  C   UNL     1       3.661   6.821  17.975  0.00  0.00    +0.000 A 
ATOM      3  C   UNL     1       2.719   6.911  19.005  0.00  0.00    +0.000 A 
ATOM      4  C   UNL     1       2.262   5.708  19.595  0.00  0.00    +0.000 A 
ATOM      5  C   UNL     1       2.706   4.438  19.157  0.00  0.00    +0.000 A 
ATOM      6  C   UNL     1       3.704   4.438  18.154  0.00  0.00    +0.000 A 
ENDROOT
BRANCH   1   8
ATOM      7  C   UNL     1       6.732   5.552  17.041  0.00  0.00    +0.000 C 
ATOM      8  C   UNL     1       5.295   5.506  16.475  0.00  0.00    +0.000 C 
ATOM      9  C   UNL     1       5.151   6.677  15.478  0.00  0.00    +0.000 C 
ATOM     10  C   UNL     1       5.158   4.175  15.702  0.00  0.00    +0.000 C 
ENDBRANCH   1   8
BRANCH   3  11
ATOM     11  N   UNL     1       2.212   8.183  19.417  0.00  0.00    +0.000 N 
ATOM     12  C   UNL     1       1.742   9.181  18.569  0.00  0.00    +0.000 C 
ATOM     13  O   UNL     1       1.792   9.181  17.342  0.00  0.00    +0.000 OA
ATOM     14  H   UNL     1       2.316   8.434  20.387  0.00  0.00    +0.000 HD
BRANCH  12  15
ATOM     15  C   UNL     1       1.071  10.345  19.278  0.00  0.00    +0.000 C 
BRANCH  15  16
ATOM     16  C   UNL     1      -0.378   9.988  19.603  0.00  0.00    +0.000 C 
BRANCH  16  17
ATOM     17  C   UNL     1      -1.265  11.225  19.762  0.00  0.00    +0.000 C 
BRANCH  17  18
ATOM     18  C   UNL     1      -2.292  11.312  18.627  0.00  0.00    +0.000 C 
BRANCH  18  19
ATOM     19  C   UNL     1      -2.016  10.271  17.545  0.00  0.00    +0.000 C 
BRANCH  19  20
ATOM     20  C   UNL     1      -3.290   9.853  16.803  0.00  0.00    +0.000 C 
BRANCH  20  21
ATOM     21  C   UNL     1      -2.953   9.424  15.373  0.00  0.00    +0.000 C 
BRANCH  21  22
ATOM     22  C   UNL     1      -3.379  10.462  14.336  0.00  0.00    +0.000 C 
BRANCH  22  23
ATOM     23  C   UNL     1      -3.714   9.809  13.010  0.00  0.00    +0.000 C 
ATOM     24  O   UNL     1      -4.835   9.590  12.591  0.00  0.00    +0.000 OA
BRANCH  23  25
ATOM     25  O   UNL     1      -2.606   9.476  12.307  0.00  0.00    +0.000 OA
ATOM     26  H   UNL     1      -2.440  10.051  11.538  0.00  0.00    +0.000 HD
ENDBRANCH  23  25
ENDBRANCH  22  23
ENDBRANCH  21  22
ENDBRANCH  20  21
ENDBRANCH  19  20
ENDBRANCH  18  19
ENDBRANCH  17  18
ENDBRANCH  16  17
ENDBRANCH  15  16
ENDBRANCH  12  15
ENDBRANCH   3  11
BRANCH   5  27
ATOM     27  C   UNL     1       2.098   3.099  19.651  0.00  0.00    +0.000 C 
ATOM     28  C   UNL     1       2.973   1.918  19.168  0.00  0.00    +0.000 C 
ATOM     29  C   UNL     1       2.051   2.998  21.201  0.00  0.00    +0.000 C 
ATOM     30  C   UNL     1       0.650   2.879  19.166  0.00  0.00    +0.000 C 
ENDBRANCH   5  27
BRANCH   4  31
ATOM     31  O   UNL     1       1.382   5.745  20.645  0.00  0.00    +0.000 OA
ATOM     32  H   UNL     1       1.857   6.047  21.426  0.00  0.00    +0.000 HD
ENDBRANCH   4  31
TORSDOF 14
ENDMDL
MODEL 2
REMARK VINA RESULT:      -7.2      2.452      4.474
REMARK  Name = 
REMARK  20 active torsions:
REMARK  status: ('A' for Active; 'I' for Inactive)
REMARK    1  A    between atoms: C_1  and  C_2
REMARK    2  A    between atoms: C_2  and  C_3
REMARK    3  A    between atoms: C_2  and  C_4
REMARK    4  A    between atoms: C_2  and  C_5
REMARK    5  A    between atoms: C_7  and  N_8
REMARK    6  A    between atoms: C_9  and  C_11
REMARK    7  A    between atoms: C_11  and  C_12
REMARK    8  A    between atoms: C_12  and  C_13
REMARK    9  A    between atoms: C_13  and  C_14
REMARK   10  A    between atoms: C_14  and  C_15
REMARK   11  A    between atoms: C_15  and  C_16
REMARK   12  A    between atoms: C_16  and  C_17
REMARK   13  A    between atoms: C_17  and  C_18
REMARK   14  A    between atoms: C_18  and  C_19
REMARK   15  A    between atoms: C_19  and  O_21
REMARK   16  A    between atoms: C_22  and  O_23
REMARK   17  A    between atoms: C_24  and  C_25
REMARK   18  A    between atoms: C_25  and  C_26
REMARK   19  A    between atoms: C_25  and  C_27
REMARK   20  A    between atoms: C_25  and  C_28
REMARK                            x       y       z     vdW  Elec       q    Type
REMARK                         _______ _______ _______ _____ _____    ______ ____
ROOT
ATOM      1  C   UNL     1       2.533   4.287  19.005  0.00  0.00    +0.000 A 
ATOM      2  C   UNL     1       2.146   5.545  19.479  0.00  0.00    +0.000 A 
ATOM      3  C   UNL     1       2.677   6.736  18.972  0.00  0.00    +0.000 A 
ATOM      4  C   UNL     1       3.687   6.645  17.984  0.00  0.00    +0.000 A 
ATOM      5  C   UNL     1       4.183   5.402  17.526  0.00  0.00    +0.000 A 
ATOM      6  C   UNL     1       3.550   4.249  18.044  0.00  0.00    +0.000 A 
ENDROOT
BRANCH   1   8
ATOM      7  C   UNL     1       1.650   2.958  21.034  0.00  0.00    +0.000 C 
ATOM      8  C   UNL     1       1.896   2.978  19.509  0.00  0.00    +0.000 C 
ATOM      9  C   UNL     1       2.815   1.783  19.171  0.00  0.00    +0.000 C 
ATOM     10  C   UNL     1       0.527   2.762  18.828  0.00  0.00    +0.000 C 
ENDBRANCH   1   8
BRANCH   3  11
ATOM     11  N   UNL     1       2.233   8.000  19.470  0.00  0.00    +0.000 N 
ATOM     12  C   UNL     1       1.486   8.934  18.759  0.00  0.00    +0.000 C 
ATOM     13  O   UNL     1       1.188   8.878  17.569  0.00  0.00    +0.000 OA
ATOM     14  H   UNL     1       2.592   8.302  20.362  0.00  0.00    +0.000 HD
BRANCH  12  15
ATOM     15  C   UNL     1       0.975  10.098  19.591  0.00  0.00    +0.000 C 
BRANCH  15  16
ATOM     16  C   UNL     1      -0.543  10.001  19.740  0.00  0.00    +0.000 C 
BRANCH  16  17
ATOM     17  C   UNL     1      -1.287  10.905  18.754  0.00  0.00    +0.000 C 
BRANCH  17  18
ATOM     18  C   UNL     1      -2.434  10.147  18.075  0.00  0.00    +0.000 C 
BRANCH  18  19
ATOM     19  C   UNL     1      -2.893  10.855  16.802  0.00  0.00    +0.000 C 
BRANCH  19  20
ATOM     20  C   UNL     1      -4.390  11.182  16.828  0.00  0.00    +0.000 C 
BRANCH  20  21
ATOM     21  C   UNL     1      -4.911  11.162  18.267  0.00  0.00    +0.000 C 
BRANCH  21  22
ATOM     22  C   UNL     1      -6.436  11.156  18.336  0.00  0.00    +0.000 C 
BRANCH  22  23
ATOM     23  C   UNL     1      -6.934  10.245  19.440  0.00  0.00    +0.000 C 
ATOM     24  O   UNL     1      -6.852  10.468  20.634  0.00  0.00    +0.000 OA
BRANCH  23  25
ATOM     25  O   UNL     1      -7.498   9.113  18.957  0.00  0.00    +0.000 OA
ATOM     26  H   UNL     1      -7.202   8.301  19.408  0.00  0.00    +0.000 HD
ENDBRANCH  23  25
ENDBRANCH  22  23
ENDBRANCH  21  22
ENDBRANCH  20  21
ENDBRANCH  19  20
ENDBRANCH  18  19
ENDBRANCH  17  18
ENDBRANCH  16  17
ENDBRANCH  15  16
ENDBRANCH  12  15
ENDBRANCH   3  11
BRANCH   5  27
ATOM     27  C   UNL     1       5.407   5.262  16.583  0.00  0.00    +0.000 C 
ATOM     28  C   UNL     1       6.696   5.665  17.336  0.00  0.00    +0.000 C 
ATOM     29  C   UNL     1       5.627   3.801  16.099  0.00  0.00    +0.000 C 
ATOM     30  C   UNL     1       5.286   6.119  15.306  0.00  0.00    +0.000 C 
ENDBRANCH   5  27
BRANCH   4  31
ATOM     31  O   UNL     1       4.200   7.782  17.415  0.00  0.00    +0.000 OA
ATOM     32  H   UNL     1       3.587   8.081  16.734  0.00  0.00    +0.000 HD
ENDBRANCH   4  31
TORSDOF 14
ENDMDL
MODEL 3
REMARK VINA RESULT:      -7.2      3.319      5.095
REMARK  Name = 
REMARK  20 active torsions:
REMARK  status: ('A' for Active; 'I' for Inactive)
REMARK    1  A    between atoms: C_1  and  C_2
REMARK    2  A    between atoms: C_2  and  C_3
REMARK    3  A    between atoms: C_2  and  C_4
REMARK    4  A    between atoms: C_2  and  C_5
REMARK    5  A    between atoms: C_7  and  N_8
REMARK    6  A    between atoms: C_9  and  C_11
REMARK    7  A    between atoms: C_11  and  C_12
REMARK    8  A    between atoms: C_12  and  C_13
REMARK    9  A    between atoms: C_13  and  C_14
REMARK   10  A    between atoms: C_14  and  C_15
REMARK   11  A    between atoms: C_15  and  C_16
REMARK   12  A    between atoms: C_16  and  C_17
REMARK   13  A    between atoms: C_17  and  C_18
REMARK   14  A    between atoms: C_18  and  C_19
REMARK   15  A    between atoms: C_19  and  O_21
REMARK   16  A    between atoms: C_22  and  O_23
REMARK   17  A    between atoms: C_24  and  C_25
REMARK   18  A    between atoms: C_25  and  C_26
REMARK   19  A    between atoms: C_25  and  C_27
REMARK   20  A    between atoms: C_25  and  C_28
REMARK                            x       y       z     vdW  Elec       q    Type
REMARK                         _______ _______ _______ _____ _____    ______ ____
ROOT
ATOM      1  C   UNL     1       4.327   5.489  17.421  0.00  0.00    +0.000 A 
ATOM      2  C   UNL     1       3.704   6.637  17.922  0.00  0.00    +0.000 A 
ATOM      3  C   UNL     1       2.731   6.588  18.927  0.00  0.00    +0.000 A 
ATOM      4  C   UNL     1       2.331   5.315  19.401  0.00  0.00    +0.000 A 
ATOM      5  C   UNL     1       2.860   4.114  18.874  0.00  0.00    +0.000 A 
ATOM      6  C   UNL     1       3.882   4.254  17.906  0.00  0.00    +0.000 A 
ENDROOT
BRANCH   1   8
ATOM      7  C   UNL     1       5.211   6.602  15.267  0.00  0.00    +0.000 C 
ATOM      8  C   UNL     1       5.451   5.547  16.369  0.00  0.00    +0.000 C 
ATOM      9  C   UNL     1       5.591   4.174  15.675  0.00  0.00    +0.000 C 
ATOM     10  C   UNL     1       6.792   5.901  17.048  0.00  0.00    +0.000 C 
ENDBRANCH   1   8
BRANCH   3  11
ATOM     11  N   UNL     1       2.140   7.789  19.426  0.00  0.00    +0.000 N 
ATOM     12  C   UNL     1       1.580   8.800  18.650  0.00  0.00    +0.000 C 
ATOM     13  O   UNL     1       1.604   8.879  17.425  0.00  0.00    +0.000 OA
ATOM     14  H   UNL     1       2.245   7.988  20.408  0.00  0.00    +0.000 HD
BRANCH  12  15
ATOM     15  C   UNL     1       0.839   9.864  19.441  0.00  0.00    +0.000 C 
BRANCH  15  16
ATOM     16  C   UNL     1       1.072   9.655  20.936  0.00  0.00    +0.000 C 
BRANCH  16  17
ATOM     17  C   UNL     1      -0.216   9.316  21.689  0.00  0.00    +0.000 C 
BRANCH  17  18
ATOM     18  C   UNL     1      -0.264  10.034  23.044  0.00  0.00    +0.000 C 
BRANCH  18  19
ATOM     19  C   UNL     1      -1.479  10.953  23.144  0.00  0.00    +0.000 C 
BRANCH  19  20
ATOM     20  C   UNL     1      -1.417  12.109  22.139  0.00  0.00    +0.000 C 
BRANCH  20  21
ATOM     21  C   UNL     1      -2.621  13.036  22.325  0.00  0.00    +0.000 C 
BRANCH  21  22
ATOM     22  C   UNL     1      -2.811  13.464  23.778  0.00  0.00    +0.000 C 
BRANCH  22  23
ATOM     23  C   UNL     1      -4.180  13.071  24.293  0.00  0.00    +0.000 C 
ATOM     24  O   UNL     1      -4.547  11.936  24.537  0.00  0.00    +0.000 OA
BRANCH  23  25
ATOM     25  O   UNL     1      -4.992  14.141  24.462  0.00  0.00    +0.000 OA
ATOM     26  H   UNL     1      -5.868  13.918  24.827  0.00  0.00    +0.000 HD
ENDBRANCH  23  25
ENDBRANCH  22  23
ENDBRANCH  21  22
ENDBRANCH  20  21
ENDBRANCH  19  20
ENDBRANCH  18  19
ENDBRANCH  17  18
ENDBRANCH  16  17
ENDBRANCH  15  16
ENDBRANCH  12  15
ENDBRANCH   3  11
BRANCH   5  27
ATOM     27  C   UNL     1       2.319   2.706  19.237  0.00  0.00    +0.000 C 
ATOM     28  C   UNL     1       3.219   1.620  18.602  0.00  0.00    +0.000 C 
ATOM     29  C   UNL     1       2.331   2.437  20.768  0.00  0.00    +0.000 C 
ATOM     30  C   UNL     1       0.865   2.481  18.777  0.00  0.00    +0.000 C 
ENDBRANCH   5  27
BRANCH   4  31
ATOM     31  O   UNL     1       1.424   5.214  20.423  0.00  0.00    +0.000 OA
ATOM     32  H   UNL     1       1.144   4.295  20.489  0.00  0.00    +0.000 HD
ENDBRANCH   4  31
TORSDOF 14
ENDMDL
MODEL 4
REMARK VINA RESULT:      -7.1      3.446      5.125
REMARK  Name = 
REMARK  20 active torsions:
REMARK  status: ('A' for Active; 'I' for Inactive)
REMARK    1  A    between atoms: C_1  and  C_2
REMARK    2  A    between atoms: C_2  and  C_3
REMARK    3  A    between atoms: C_2  and  C_4
REMARK    4  A    between atoms: C_2  and  C_5
REMARK    5  A    between atoms: C_7  and  N_8
REMARK    6  A    between atoms: C_9  and  C_11
REMARK    7  A    between atoms: C_11  and  C_12
REMARK    8  A    between atoms: C_12  and  C_13
REMARK    9  A    between atoms: C_13  and  C_14
REMARK   10  A    between atoms: C_14  and  C_15
REMARK   11  A    between atoms: C_15  and  C_16
REMARK   12  A    between atoms: C_16  and  C_17
REMARK   13  A    between atoms: C_17  and  C_18
REMARK   14  A    between atoms: C_18  and  C_19
REMARK   15  A    between atoms: C_19  and  O_21
REMARK   16  A    between atoms: C_22  and  O_23
REMARK   17  A    between atoms: C_24  and  C_25
REMARK   18  A    between atoms: C_25  and  C_26
REMARK   19  A    between atoms: C_25  and  C_27
REMARK   20  A    between atoms: C_25  and  C_28
REMARK                            x       y       z     vdW  Elec       q    Type
REMARK                         _______ _______ _______ _____ _____    ______ ____
ROOT
ATOM      1  C   UNL     1       4.261   5.464  17.567  0.00  0.00    +0.000 A 
ATOM      2  C   UNL     1       3.692   6.633  18.086  0.00  0.00    +0.000 A 
ATOM      3  C   UNL     1       2.723   6.615  19.095  0.00  0.00    +0.000 A 
ATOM      4  C   UNL     1       2.269   5.355  19.557  0.00  0.00    +0.000 A 
ATOM      5  C   UNL     1       2.741   4.138  19.012  0.00  0.00    +0.000 A 
ATOM      6  C   UNL     1       3.763   4.245  18.040  0.00  0.00    +0.000 A 
ENDROOT
BRANCH   1   8
ATOM      7  C   UNL     1       5.464   4.187  15.675  0.00  0.00    +0.000 C 
ATOM      8  C   UNL     1       5.380   5.484  16.510  0.00  0.00    +0.000 C 
ATOM      9  C   UNL     1       6.748   5.684  17.197  0.00  0.00    +0.000 C 
ATOM     10  C   UNL     1       5.147   6.644  15.517  0.00  0.00    +0.000 C 
ENDBRANCH   1   8
BRANCH   3  11
ATOM     11  N   UNL     1       2.189   7.835  19.612  0.00  0.00    +0.000 N 
ATOM     12  C   UNL     1       1.571   8.831  18.862  0.00  0.00    +0.000 C 
ATOM     13  O   UNL     1       1.488   8.879  17.637  0.00  0.00    +0.000 OA
ATOM     14  H   UNL     1       2.382   8.058  20.575  0.00  0.00    +0.000 HD
BRANCH  12  15
ATOM     15  C   UNL     1       0.913   9.924  19.686  0.00  0.00    +0.000 C 
BRANCH  15  16
ATOM     16  C   UNL     1      -0.201   9.326  20.544  0.00  0.00    +0.000 C 
BRANCH  16  17
ATOM     17  C   UNL     1      -0.084   9.723  22.017  0.00  0.00    +0.000 C 
BRANCH  17  18
ATOM     18  C   UNL     1      -0.255  11.238  22.191  0.00  0.00    +0.000 C 
BRANCH  18  19
ATOM     19  C   UNL     1      -1.499  11.567  23.013  0.00  0.00    +0.000 C 
BRANCH  19  20
ATOM     20  C   UNL     1      -2.241  12.795  22.475  0.00  0.00    +0.000 C 
BRANCH  20  21
ATOM     21  C   UNL     1      -3.153  13.377  23.558  0.00  0.00    +0.000 C 
BRANCH  21  22
ATOM     22  C   UNL     1      -4.634  13.184  23.240  0.00  0.00    +0.000 C 
BRANCH  22  23
ATOM     23  C   UNL     1      -5.346  12.449  24.358  0.00  0.00    +0.000 C 
ATOM     24  O   UNL     1      -6.469  11.985  24.299  0.00  0.00    +0.000 OA
BRANCH  23  25
ATOM     25  O   UNL     1      -4.586  12.354  25.475  0.00  0.00    +0.000 OA
ATOM     26  H   UNL     1      -4.925  11.716  26.129  0.00  0.00    +0.000 HD
ENDBRANCH  23  25
ENDBRANCH  22  23
ENDBRANCH  21  22
ENDBRANCH  20  21
ENDBRANCH  19  20
ENDBRANCH  18  19
ENDBRANCH  17  18
ENDBRANCH  16  17
ENDBRANCH  15  16
ENDBRANCH  12  15
ENDBRANCH   3  11
BRANCH   5  27
ATOM     27  C   UNL     1       2.141   2.752  19.363  0.00  0.00    +0.000 C 
ATOM     28  C   UNL     1       3.022   1.632  18.760  0.00  0.00    +0.000 C 
ATOM     29  C   UNL     1       2.092   2.489  20.894  0.00  0.00    +0.000 C 
ATOM     30  C   UNL     1       0.695   2.576  18.856  0.00  0.00    +0.000 C 
ENDBRANCH   5  27
BRANCH   4  31
ATOM     31  O   UNL     1       1.364   5.283  20.583  0.00  0.00    +0.000 OA
ATOM     32  H   UNL     1       0.534   5.667  20.282  0.00  0.00    +0.000 HD
ENDBRANCH   4  31
TORSDOF 14
ENDMDL
MODEL 5
REMARK VINA RESULT:      -7.0      3.509      4.684
REMARK  Name = 
REMARK  20 active torsions:
REMARK  status: ('A' for Active; 'I' for Inactive)
REMARK    1  A    between atoms: C_1  and  C_2
REMARK    2  A    between atoms: C_2  and  C_3
REMARK    3  A    between atoms: C_2  and  C_4
REMARK    4  A    between atoms: C_2  and  C_5
REMARK    5  A    between atoms: C_7  and  N_8
REMARK    6  A    between atoms: C_9  and  C_11
REMARK    7  A    between atoms: C_11  and  C_12
REMARK    8  A    between atoms: C_12  and  C_13
REMARK    9  A    between atoms: C_13  and  C_14
REMARK   10  A    between atoms: C_14  and  C_15
REMARK   11  A    between atoms: C_15  and  C_16
REMARK   12  A    between atoms: C_16  and  C_17
REMARK   13  A    between atoms: C_17  and  C_18
REMARK   14  A    between atoms: C_18  and  C_19
REMARK   15  A    between atoms: C_19  and  O_21
REMARK   16  A    between atoms: C_22  and  O_23
REMARK   17  A    between atoms: C_24  and  C_25
REMARK   18  A    between atoms: C_25  and  C_26
REMARK   19  A    between atoms: C_25  and  C_27
REMARK   20  A    between atoms: C_25  and  C_28
REMARK                            x       y       z     vdW  Elec       q    Type
REMARK                         _______ _______ _______ _____ _____    ______ ____
ROOT
ATOM      1  C   UNL     1       5.577   5.606  18.362  0.00  0.00    +0.000 A 
ATOM      2  C   UNL     1       4.651   6.568  17.944  0.00  0.00    +0.000 A 
ATOM      3  C   UNL     1       3.290   6.488  18.258  0.00  0.00    +0.000 A 
ATOM      4  C   UNL     1       2.840   5.353  18.975  0.00  0.00    +0.000 A 
ATOM      5  C   UNL     1       3.711   4.304  19.350  0.00  0.00    +0.000 A 
ATOM      6  C   UNL     1       5.080   4.492  19.049  0.00  0.00    +0.000 A 
ENDROOT
BRANCH   1   8
ATOM      7  C   UNL     1       7.481   7.058  17.399  0.00  0.00    +0.000 C 
ATOM      8  C   UNL     1       7.087   5.730  18.082  0.00  0.00    +0.000 C 
ATOM      9  C   UNL     1       7.546   4.579  17.159  0.00  0.00    +0.000 C 
ATOM     10  C   UNL     1       7.878   5.652  19.406  0.00  0.00    +0.000 C 
ENDBRANCH   1   8
BRANCH   3  11
ATOM     11  N   UNL     1       2.384   7.508  17.832  0.00  0.00    +0.000 N 
ATOM     12  C   UNL     1       1.732   8.412  18.664  0.00  0.00    +0.000 C 
ATOM     13  O   UNL     1       1.737   8.410  19.892  0.00  0.00    +0.000 OA
ATOM     14  H   UNL     1       2.091   7.498  16.868  0.00  0.00    +0.000 HD
BRANCH  12  15
ATOM     15  C   UNL     1       0.990   9.518  17.934  0.00  0.00    +0.000 C 
BRANCH  15  16
ATOM     16  C   UNL     1       0.288  10.425  18.943  0.00  0.00    +0.000 C 
BRANCH  16  17
ATOM     17  C   UNL     1       1.161  11.602  19.380  0.00  0.00    +0.000 C 
BRANCH  17  18
ATOM     18  C   UNL     1       0.466  12.938  19.090  0.00  0.00    +0.000 C 
BRANCH  18  19
ATOM     19  C   UNL     1      -0.811  13.092  19.913  0.00  0.00    +0.000 C 
BRANCH  19  20
ATOM     20  C   UNL     1      -0.606  12.702  21.381  0.00  0.00    +0.000 C 
BRANCH  20  21
ATOM     21  C   UNL     1      -1.552  11.561  21.761  0.00  0.00    +0.000 C 
BRANCH  21  22
ATOM     22  C   UNL     1      -1.194  10.929  23.105  0.00  0.00    +0.000 C 
BRANCH  22  23
ATOM     23  C   UNL     1      -0.351   9.683  22.920  0.00  0.00    +0.000 C 
ATOM     24  O   UNL     1      -0.652   8.718  22.243  0.00  0.00    +0.000 OA
BRANCH  23  25
ATOM     25  O   UNL     1       0.814   9.745  23.607  0.00  0.00    +0.000 OA
ATOM     26  H   UNL     1       0.726  10.126  24.499  0.00  0.00    +0.000 HD
ENDBRANCH  23  25
ENDBRANCH  22  23
ENDBRANCH  21  22
ENDBRANCH  20  21
ENDBRANCH  19  20
ENDBRANCH  18  19
ENDBRANCH  17  18
ENDBRANCH  16  17
ENDBRANCH  15  16
ENDBRANCH  12  15
ENDBRANCH   3  11
BRANCH   5  27
ATOM     27  C   UNL     1       3.227   2.968  19.974  0.00  0.00    +0.000 C 
ATOM     28  C   UNL     1       4.444   2.062  20.277  0.00  0.00    +0.000 C 
ATOM     29  C   UNL     1       2.489   3.171  21.327  0.00  0.00    +0.000 C 
ATOM     30  C   UNL     1       2.246   2.199  19.066  0.00  0.00    +0.000 C 
ENDBRANCH   5  27
BRANCH   4  31
ATOM     31  O   UNL     1       1.527   5.254  19.357  0.00  0.00    +0.000 OA
ATOM     32  H   UNL     1       1.483   5.345  20.314  0.00  0.00    +0.000 HD
ENDBRANCH   4  31
TORSDOF 14
ENDMDL
MODEL 6
REMARK VINA RESULT:      -7.0      2.734      3.330
REMARK  Name = 
REMARK  20 active torsions:
REMARK  status: ('A' for Active; 'I' for Inactive)
REMARK    1  A    between atoms: C_1  and  C_2
REMARK    2  A    between atoms: C_2  and  C_3
REMARK    3  A    between atoms: C_2  and  C_4
REMARK    4  A    between atoms: C_2  and  C_5
REMARK    5  A    between atoms: C_7  and  N_8
REMARK    6  A    between atoms: C_9  and  C_11
REMARK    7  A    between atoms: C_11  and  C_12
REMARK    8  A    between atoms: C_12  and  C_13
REMARK    9  A    between atoms: C_13  and  C_14
REMARK   10  A    between atoms: C_14  and  C_15
REMARK   11  A    between atoms: C_15  and  C_16
REMARK   12  A    between atoms: C_16  and  C_17
REMARK   13  A    between atoms: C_17  and  C_18
REMARK   14  A    between atoms: C_18  and  C_19
REMARK   15  A    between atoms: C_19  and  O_21
REMARK   16  A    between atoms: C_22  and  O_23
REMARK   17  A    between atoms: C_24  and  C_25
REMARK   18  A    between atoms: C_25  and  C_26
REMARK   19  A    between atoms: C_25  and  C_27
REMARK   20  A    between atoms: C_25  and  C_28
REMARK                            x       y       z     vdW  Elec       q    Type
REMARK                         _______ _______ _______ _____ _____    ______ ____
ROOT
ATOM      1  C   UNL     1       4.235   5.533  17.681  0.00  0.00    +0.000 A 
ATOM      2  C   UNL     1       3.646   6.705  18.168  0.00  0.00    +0.000 A 
ATOM      3  C   UNL     1       2.663   6.695  19.165  0.00  0.00    +0.000 A 
ATOM      4  C   UNL     1       2.217   5.439  19.644  0.00  0.00    +0.000 A 
ATOM      5  C   UNL     1       2.711   4.217  19.130  0.00  0.00    +0.000 A 
ATOM      6  C   UNL     1       3.745   4.317  18.170  0.00  0.00    +0.000 A 
ENDROOT
BRANCH   1   8
ATOM      7  C   UNL     1       5.180   6.609  15.533  0.00  0.00    +0.000 C 
ATOM      8  C   UNL     1       5.369   5.546  16.639  0.00  0.00    +0.000 C 
ATOM      9  C   UNL     1       5.462   4.168  15.947  0.00  0.00    +0.000 C 
ATOM     10  C   UNL     1       6.717   5.849  17.329  0.00  0.00    +0.000 C 
ENDBRANCH   1   8
BRANCH   3  11
ATOM     11  N   UNL     1       2.107   7.918  19.650  0.00  0.00    +0.000 N 
ATOM     12  C   UNL     1       1.482   8.889  18.873  0.00  0.00    +0.000 C 
ATOM     13  O   UNL     1       1.408   8.908  17.647  0.00  0.00    +0.000 OA
ATOM     14  H   UNL     1       2.290   8.165  20.610  0.00  0.00    +0.000 HD
BRANCH  12  15
ATOM     15  C   UNL     1       0.801   9.990  19.668  0.00  0.00    +0.000 C 
BRANCH  15  16
ATOM     16  C   UNL     1      -0.698   9.989  19.375  0.00  0.00    +0.000 C 
BRANCH  16  17
ATOM     17  C   UNL     1      -1.110  11.115  18.425  0.00  0.00    +0.000 C 
BRANCH  17  18
ATOM     18  C   UNL     1      -2.597  11.456  18.591  0.00  0.00    +0.000 C 
BRANCH  18  19
ATOM     19  C   UNL     1      -3.321  11.461  17.247  0.00  0.00    +0.000 C 
BRANCH  19  20
ATOM     20  C   UNL     1      -4.695  10.787  17.325  0.00  0.00    +0.000 C 
BRANCH  20  21
ATOM     21  C   UNL     1      -5.464  11.295  18.547  0.00  0.00    +0.000 C 
BRANCH  21  22
ATOM     22  C   UNL     1      -6.742  10.499  18.805  0.00  0.00    +0.000 C 
BRANCH  22  23
ATOM     23  C   UNL     1      -7.179  10.615  20.251  0.00  0.00    +0.000 C 
ATOM     24  O   UNL     1      -7.463   9.684  20.982  0.00  0.00    +0.000 OA
BRANCH  23  25
ATOM     25  O   UNL     1      -7.227  11.901  20.673  0.00  0.00    +0.000 OA
ATOM     26  H   UNL     1      -7.629  12.511  20.028  0.00  0.00    +0.000 HD
ENDBRANCH  23  25
ENDBRANCH  22  23
ENDBRANCH  21  22
ENDBRANCH  20  21
ENDBRANCH  19  20
ENDBRANCH  18  19
ENDBRANCH  17  18
ENDBRANCH  16  17
ENDBRANCH  15  16
ENDBRANCH  12  15
ENDBRANCH   3  11
BRANCH   5  27
ATOM     27  C   UNL     1       2.122   2.831  19.498  0.00  0.00    +0.000 C 
ATOM     28  C   UNL     1       3.029   1.711  18.937  0.00  0.00    +0.000 C 
ATOM     29  C   UNL     1       2.048   2.600  21.034  0.00  0.00    +0.000 C 
ATOM     30  C   UNL     1       0.688   2.625  18.968  0.00  0.00    +0.000 C 
ENDBRANCH   5  27
BRANCH   4  31
ATOM     31  O   UNL     1       1.298   5.375  20.659  0.00  0.00    +0.000 OA
ATOM     32  H   UNL     1       1.717   4.960  21.420  0.00  0.00    +0.000 HD
ENDBRANCH   4  31
TORSDOF 14
ENDMDL
MODEL 7
REMARK VINA RESULT:      -7.0      2.712      3.359
REMARK  Name = 
REMARK  20 active torsions:
REMARK  status: ('A' for Active; 'I' for Inactive)
REMARK    1  A    between atoms: C_1  and  C_2
REMARK    2  A    between atoms: C_2  and  C_3
REMARK    3  A    between atoms: C_2  and  C_4
REMARK    4  A    between atoms: C_2  and  C_5
REMARK    5  A    between atoms: C_7  and  N_8
REMARK    6  A    between atoms: C_9  and  C_11
REMARK    7  A    between atoms: C_11  and  C_12
REMARK    8  A    between atoms: C_12  and  C_13
REMARK    9  A    between atoms: C_13  and  C_14
REMARK   10  A    between atoms: C_14  and  C_15
REMARK   11  A    between atoms: C_15  and  C_16
REMARK   12  A    between atoms: C_16  and  C_17
REMARK   13  A    between atoms: C_17  and  C_18
REMARK   14  A    between atoms: C_18  and  C_19
REMARK   15  A    between atoms: C_19  and  O_21
REMARK   16  A    between atoms: C_22  and  O_23
REMARK   17  A    between atoms: C_24  and  C_25
REMARK   18  A    between atoms: C_25  and  C_26
REMARK   19  A    between atoms: C_25  and  C_27
REMARK   20  A    between atoms: C_25  and  C_28
REMARK                            x       y       z     vdW  Elec       q    Type
REMARK                         _______ _______ _______ _____ _____    ______ ____
ROOT
ATOM      1  C   UNL     1       4.527   5.744  17.796  0.00  0.00    +0.000 A 
ATOM      2  C   UNL     1       3.814   6.890  18.164  0.00  0.00    +0.000 A 
ATOM      3  C   UNL     1       2.758   6.856  19.082  0.00  0.00    +0.000 A 
ATOM      4  C   UNL     1       2.371   5.598  19.603  0.00  0.00    +0.000 A 
ATOM      5  C   UNL     1       2.996   4.393  19.204  0.00  0.00    +0.000 A 
ATOM      6  C   UNL     1       4.093   4.522  18.320  0.00  0.00    +0.000 A 
ENDROOT
BRANCH   1   8
ATOM      7  C   UNL     1       6.590   4.502  16.865  0.00  0.00    +0.000 C 
ATOM      8  C   UNL     1       5.737   5.790  16.843  0.00  0.00    +0.000 C 
ATOM      9  C   UNL     1       6.662   6.966  17.225  0.00  0.00    +0.000 C 
ATOM     10  C   UNL     1       5.256   5.987  15.389  0.00  0.00    +0.000 C 
ENDBRANCH   1   8
BRANCH   3  11
ATOM     11  N   UNL     1       2.074   8.057  19.447  0.00  0.00    +0.000 N 
ATOM     12  C   UNL     1       1.744   9.097  18.583  0.00  0.00    +0.000 C 
ATOM     13  O   UNL     1       2.082   9.205  17.407  0.00  0.00    +0.000 OA
ATOM     14  H   UNL     1       1.927   8.229  20.429  0.00  0.00    +0.000 HD
BRANCH  12  15
ATOM     15  C   UNL     1       0.839  10.156  19.189  0.00  0.00    +0.000 C 
BRANCH  15  16
ATOM     16  C   UNL     1      -0.623   9.785  18.951  0.00  0.00    +0.000 C 
BRANCH  16  17
ATOM     17  C   UNL     1      -1.376  10.852  18.153  0.00  0.00    +0.000 C 
BRANCH  17  18
ATOM     18  C   UNL     1      -2.659  10.275  17.541  0.00  0.00    +0.000 C 
BRANCH  18  19
ATOM     19  C   UNL     1      -3.441  11.342  16.778  0.00  0.00    +0.000 C 
BRANCH  19  20
ATOM     20  C   UNL     1      -4.955  11.195  16.962  0.00  0.00    +0.000 C 
BRANCH  20  21
ATOM     21  C   UNL     1      -5.302  11.134  18.451  0.00  0.00    +0.000 C 
BRANCH  21  22
ATOM     22  C   UNL     1      -6.677  10.520  18.706  0.00  0.00    +0.000 C 
BRANCH  22  23
ATOM     23  C   UNL     1      -7.252  10.987  20.028  0.00  0.00    +0.000 C 
ATOM     24  O   UNL     1      -7.323  10.323  21.045  0.00  0.00    +0.000 OA
BRANCH  23  25
ATOM     25  O   UNL     1      -7.701  12.264  19.970  0.00  0.00    +0.000 OA
ATOM     26  H   UNL     1      -8.304  12.502  20.696  0.00  0.00    +0.000 HD
ENDBRANCH  23  25
ENDBRANCH  22  23
ENDBRANCH  21  22
ENDBRANCH  20  21
ENDBRANCH  19  20
ENDBRANCH  18  19
ENDBRANCH  17  18
ENDBRANCH  16  17
ENDBRANCH  15  16
ENDBRANCH  12  15
ENDBRANCH   3  11
BRANCH   5  27
ATOM     27  C   UNL     1       2.486   2.986  19.612  0.00  0.00    +0.000 C 
ATOM     28  C   UNL     1       1.020   2.808  19.151  0.00  0.00    +0.000 C 
ATOM     29  C   UNL     1       3.293   1.838  18.943  0.00  0.00    +0.000 C 
ATOM     30  C   UNL     1       2.566   2.733  21.131  0.00  0.00    +0.000 C 
ENDBRANCH   5  27
BRANCH   4  31
ATOM     31  O   UNL     1       1.382   5.517  20.547  0.00  0.00    +0.000 OA
ATOM     32  H   UNL     1       1.576   6.154  21.243  0.00  0.00    +0.000 HD
ENDBRANCH   4  31
TORSDOF 14
ENDMDL
MODEL 8
REMARK VINA RESULT:      -7.0      2.531      3.162
REMARK  Name = 
REMARK  20 active torsions:
REMARK  status: ('A' for Active; 'I' for Inactive)
REMARK    1  A    between atoms: C_1  and  C_2
REMARK    2  A    between atoms: C_2  and  C_3
REMARK    3  A    between atoms: C_2  and  C_4
REMARK    4  A    between atoms: C_2  and  C_5
REMARK    5  A    between atoms: C_7  and  N_8
REMARK    6  A    between atoms: C_9  and  C_11
REMARK    7  A    between atoms: C_11  and  C_12
REMARK    8  A    between atoms: C_12  and  C_13
REMARK    9  A    between atoms: C_13  and  C_14
REMARK   10  A    between atoms: C_14  and  C_15
REMARK   11  A    between atoms: C_15  and  C_16
REMARK   12  A    between atoms: C_16  and  C_17
REMARK   13  A    between atoms: C_17  and  C_18
REMARK   14  A    between atoms: C_18  and  C_19
REMARK   15  A    between atoms: C_19  and  O_21
REMARK   16  A    between atoms: C_22  and  O_23
REMARK   17  A    between atoms: C_24  and  C_25
REMARK   18  A    between atoms: C_25  and  C_26
REMARK   19  A    between atoms: C_25  and  C_27
REMARK   20  A    between atoms: C_25  and  C_28
REMARK                            x       y       z     vdW  Elec       q    Type
REMARK                         _______ _______ _______ _____ _____    ______ ____
ROOT
ATOM      1  C   UNL     1       4.577   5.716  17.694  0.00  0.00    +0.000 A 
ATOM      2  C   UNL     1       3.711   6.803  17.854  0.00  0.00    +0.000 A 
ATOM      3  C   UNL     1       2.559   6.737  18.645  0.00  0.00    +0.000 A 
ATOM      4  C   UNL     1       2.240   5.498  19.251  0.00  0.00    +0.000 A 
ATOM      5  C   UNL     1       3.028   4.340  19.058  0.00  0.00    +0.000 A 
ATOM      6  C   UNL     1       4.208   4.508  18.295  0.00  0.00    +0.000 A 
ENDROOT
BRANCH   1   8
ATOM      7  C   UNL     1       6.714   7.074  17.193  0.00  0.00    +0.000 C 
ATOM      8  C   UNL     1       5.884   5.808  16.884  0.00  0.00    +0.000 C 
ATOM      9  C   UNL     1       5.566   5.818  15.373  0.00  0.00    +0.000 C 
ATOM     10  C   UNL     1       6.785   4.592  17.196  0.00  0.00    +0.000 C 
ENDBRANCH   1   8
BRANCH   3  11
ATOM     11  N   UNL     1       1.717   7.882  18.799  0.00  0.00    +0.000 N 
ATOM     12  C   UNL     1       1.442   8.529  20.000  0.00  0.00    +0.000 C 
ATOM     13  O   UNL     1       1.778   8.161  21.122  0.00  0.00    +0.000 OA
ATOM     14  H   UNL     1       1.175   8.173  18.001  0.00  0.00    +0.000 HD
BRANCH  12  15
ATOM     15  C   UNL     1       0.685   9.838  19.851  0.00  0.00    +0.000 C 
BRANCH  15  16
ATOM     16  C   UNL     1       0.318  10.060  18.385  0.00  0.00    +0.000 C 
BRANCH  16  17
ATOM     17  C   UNL     1      -0.974  10.863  18.219  0.00  0.00    +0.000 C 
BRANCH  17  18
ATOM     18  C   UNL     1      -2.204   9.971  18.430  0.00  0.00    +0.000 C 
BRANCH  18  19
ATOM     19  C   UNL     1      -3.175  10.075  17.257  0.00  0.00    +0.000 C 
BRANCH  19  20
ATOM     20  C   UNL     1      -3.927  11.410  17.243  0.00  0.00    +0.000 C 
BRANCH  20  21
ATOM     21  C   UNL     1      -4.860  11.504  18.452  0.00  0.00    +0.000 C 
BRANCH  21  22
ATOM     22  C   UNL     1      -6.254  10.955  18.160  0.00  0.00    +0.000 C 
BRANCH  22  23
ATOM     23  C   UNL     1      -6.851  10.288  19.383  0.00  0.00    +0.000 C 
ATOM     24  O   UNL     1      -6.703  10.655  20.533  0.00  0.00    +0.000 OA
BRANCH  23  25
ATOM     25  O   UNL     1      -7.594   9.201  19.064  0.00  0.00    +0.000 OA
ATOM     26  H   UNL     1      -8.554   9.362  19.082  0.00  0.00    +0.000 HD
ENDBRANCH  23  25
ENDBRANCH  22  23
ENDBRANCH  21  22
ENDBRANCH  20  21
ENDBRANCH  19  20
ENDBRANCH  18  19
ENDBRANCH  17  18
ENDBRANCH  16  17
ENDBRANCH  15  16
ENDBRANCH  12  15
ENDBRANCH   3  11
BRANCH   5  27
ATOM     27  C   UNL     1       2.616   2.929  19.555  0.00  0.00    +0.000 C 
ATOM     28  C   UNL     1       2.645   2.890  21.101  0.00  0.00    +0.000 C 
ATOM     29  C   UNL     1       1.168   2.546  19.138  0.00  0.00    +0.000 C 
ATOM     30  C   UNL     1       3.525   1.808  19.010  0.00  0.00    +0.000 C 
ENDBRANCH   5  27
BRANCH   4  31
ATOM     31  O   UNL     1       1.154   5.396  20.082  0.00  0.00    +0.000 OA
ATOM     32  H   UNL     1       1.471   5.194  20.968  0.00  0.00    +0.000 HD
ENDBRANCH   4  31
TORSDOF 14
ENDMDL
MODEL 9
REMARK VINA RESULT:      -7.0      1.001      3.463
REMARK  Name = 
REMARK  20 active torsions:
REMARK  status: ('A' for Active; 'I' for Inactive)
REMARK    1  A    between atoms: C_1  and  C_2
REMARK    2  A    between atoms: C_2  and  C_3
REMARK    3  A    between atoms: C_2  and  C_4
REMARK    4  A    between atoms: C_2  and  C_5
REMARK    5  A    between atoms: C_7  and  N_8
REMARK    6  A    between atoms: C_9  and  C_11
REMARK    7  A    between atoms: C_11  and  C_12
REMARK    8  A    between atoms: C_12  and  C_13
REMARK    9  A    between atoms: C_13  and  C_14
REMARK   10  A    between atoms: C_14  and  C_15
REMARK   11  A    between atoms: C_15  and  C_16
REMARK   12  A    between atoms: C_16  and  C_17
REMARK   13  A    between atoms: C_17  and  C_18
REMARK   14  A    between atoms: C_18  and  C_19
REMARK   15  A    between atoms: C_19  and  O_21
REMARK   16  A    between atoms: C_22  and  O_23
REMARK   17  A    between atoms: C_24  and  C_25
REMARK   18  A    between atoms: C_25  and  C_26
REMARK   19  A    between atoms: C_25  and  C_27
REMARK   20  A    between atoms: C_25  and  C_28
REMARK                            x       y       z     vdW  Elec       q    Type
REMARK                         _______ _______ _______ _____ _____    ______ ____
ROOT
ATOM      1  C   UNL     1       2.607   4.398  19.063  0.00  0.00    +0.000 A 
ATOM      2  C   UNL     1       2.235   5.690  19.450  0.00  0.00    +0.000 A 
ATOM      3  C   UNL     1       2.771   6.837  18.855  0.00  0.00    +0.000 A 
ATOM      4  C   UNL     1       3.771   6.667  17.867  0.00  0.00    +0.000 A 
ATOM      5  C   UNL     1       4.253   5.391  17.495  0.00  0.00    +0.000 A 
ATOM      6  C   UNL     1       3.615   4.282  18.099  0.00  0.00    +0.000 A 
ENDROOT
BRANCH   1   8
ATOM      7  C   UNL     1       1.946   1.930  18.695  0.00  0.00    +0.000 C 
ATOM      8  C   UNL     1       1.965   3.134  19.664  0.00  0.00    +0.000 C 
ATOM      9  C   UNL     1       0.503   3.428  20.066  0.00  0.00    +0.000 C 
ATOM     10  C   UNL     1       2.747   2.690  20.919  0.00  0.00    +0.000 C 
ENDBRANCH   1   8
BRANCH   3  11
ATOM     11  N   UNL     1       2.341   8.137  19.265  0.00  0.00    +0.000 N 
ATOM     12  C   UNL     1       1.715   9.078  18.453  0.00  0.00    +0.000 C 
ATOM     13  O   UNL     1       1.536   8.993  17.241  0.00  0.00    +0.000 OA
ATOM     14  H   UNL     1       2.623   8.454  20.179  0.00  0.00    +0.000 HD
BRANCH  12  15
ATOM     15  C   UNL     1       1.181  10.292  19.191  0.00  0.00    +0.000 C 
BRANCH  15  16
ATOM     16  C   UNL     1      -0.220   9.999  19.725  0.00  0.00    +0.000 C 
BRANCH  16  17
ATOM     17  C   UNL     1      -1.191  11.157  19.491  0.00  0.00    +0.000 C 
BRANCH  17  18
ATOM     18  C   UNL     1      -1.847  11.051  18.108  0.00  0.00    +0.000 C 
BRANCH  18  19
ATOM     19  C   UNL     1      -2.567   9.716  17.935  0.00  0.00    +0.000 C 
BRANCH  19  20
ATOM     20  C   UNL     1      -3.572   9.744  16.777  0.00  0.00    +0.000 C 
BRANCH  20  21
ATOM     21  C   UNL     1      -2.837   9.653  15.438  0.00  0.00    +0.000 C 
BRANCH  21  22
ATOM     22  C   UNL     1      -3.434  10.579  14.380  0.00  0.00    +0.000 C 
BRANCH  22  23
ATOM     23  C   UNL     1      -3.536   9.886  13.037  0.00  0.00    +0.000 C 
ATOM     24  O   UNL     1      -4.566   9.680  12.422  0.00  0.00    +0.000 OA
BRANCH  23  25
ATOM     25  O   UNL     1      -2.327   9.499  12.565  0.00  0.00    +0.000 OA
ATOM     26  H   UNL     1      -1.845   8.900  13.163  0.00  0.00    +0.000 HD
ENDBRANCH  23  25
ENDBRANCH  22  23
ENDBRANCH  21  22
ENDBRANCH  20  21
ENDBRANCH  19  20
ENDBRANCH  18  19
ENDBRANCH  17  18
ENDBRANCH  16  17
ENDBRANCH  15  16
ENDBRANCH  12  15
ENDBRANCH   3  11
BRANCH   5  27
ATOM     27  C   UNL     1       5.467   5.173  16.554  0.00  0.00    +0.000 C 
ATOM     28  C   UNL     1       5.269   5.979  15.249  0.00  0.00    +0.000 C 
ATOM     29  C   UNL     1       6.803   5.674  17.173  0.00  0.00    +0.000 C 
ATOM     30  C   UNL     1       5.695   3.690  16.196  0.00  0.00    +0.000 C 
ENDBRANCH   5  27
BRANCH   4  31
ATOM     31  O   UNL     1       4.288   7.756  17.214  0.00  0.00    +0.000 OA
ATOM     32  H   UNL     1       5.044   7.466  16.695  0.00  0.00    +0.000 HD
ENDBRANCH   4  31
TORSDOF 14
ENDMDL
