MODEL 1
REMARK VINA RESULT:      -7.7      0.000      0.000
REMARK  Name = 
REMARK  8 active torsions:
REMARK  status: ('A' for Active; 'I' for Inactive)
REMARK    1  A    between atoms: C_1  and  C_2
REMARK    2  A    between atoms: C_2  and  C_3
REMARK    3  A    between atoms: C_9  and  C_10
REMARK    4  A    between atoms: C_11  and  O_12
REMARK    5  A    between atoms: O_12  and  C_13
REMARK    6  A    between atoms: C_13  and  C_14
REMARK    7  A    between atoms: C_19  and  C_20
REMARK    8  A    between atoms: C_20  and  O_22
REMARK                            x       y       z     vdW  Elec       q    Type
REMARK                         _______ _______ _______ _____ _____    ______ ____
ROOT
ATOM      1  C   UNL     1       4.337   4.497  17.177  0.00  0.00    +0.000 A 
ATOM      2  C   UNL     1       4.179   3.322  17.808  0.00  0.00    +0.000 A 
ATOM      3  C   UNL     1       3.383   3.143  19.029  0.00  0.00    +0.000 A 
ATOM      4  O   UNL     1       3.277   2.041  19.554  0.00  0.00    +0.000 OA
ATOM      5  O   UNL     1       2.792   4.276  19.551  0.00  0.00    +0.000 OA
ATOM      6  C   UNL     1       2.889   5.535  18.912  0.00  0.00    +0.000 A 
ATOM      7  C   UNL     1       2.192   6.607  19.511  0.00  0.00    +0.000 A 
ATOM      8  C   UNL     1       1.482   6.446  20.828  0.00  0.00    +0.000 C 
ATOM      9  C   UNL     1       2.188   7.845  18.851  0.00  0.00    +0.000 A 
ATOM     10  C   UNL     1       2.964   8.011  17.703  0.00  0.00    +0.000 A 
ATOM     11  C   UNL     1       3.705   6.947  17.173  0.00  0.00    +0.000 A 
ATOM     12  C   UNL     1       3.647   5.673  17.740  0.00  0.00    +0.000 A 
ENDROOT
BRANCH   1  14
ATOM     13  C   UNL     1       6.720   4.878  16.234  0.00  0.00    +0.000 C 
ATOM     14  C   UNL     1       5.247   4.578  15.966  0.00  0.00    +0.000 C 
ENDBRANCH   1  14
BRANCH   9  15
ATOM     15  O   UNL     1       1.456   8.867  19.412  0.00  0.00    +0.000 OA
BRANCH  15  16
ATOM     16  C   UNL     1       1.258   9.988  18.554  0.00  0.00    +0.000 C 
BRANCH  16  17
ATOM     17  C   UNL     1       0.196  10.981  19.046  0.00  0.00    +0.000 C 
ATOM     18  O   UNL     1       0.416  11.651  20.060  0.00  0.00    +0.000 OA
ATOM     19  N   UNL     1      -0.949  11.167  18.284  0.00  0.00    +0.000 N 
ATOM     20  C   UNL     1      -1.889  12.221  18.648  0.00  0.00    +0.000 C 
ATOM     21  C   UNL     1      -3.236  11.621  19.052  0.00  0.00    +0.000 C 
ATOM     22  C   UNL     1      -3.789  10.684  17.967  0.00  0.00    +0.000 C 
ATOM     23  C   UNL     1      -2.725   9.644  17.568  0.00  0.00    +0.000 C 
ATOM     24  C   UNL     1      -1.391  10.302  17.196  0.00  0.00    +0.000 C 
BRANCH  22  25
ATOM     25  C   UNL     1      -4.283  11.458  16.752  0.00  0.00    +0.000 C 
ATOM     26  O   UNL     1      -4.126  11.111  15.593  0.00  0.00    +0.000 OA
BRANCH  25  27
ATOM     27  O   UNL     1      -4.957  12.586  17.067  0.00  0.00    +0.000 OA
ATOM     28  H   UNL     1      -5.699  12.460  17.689  0.00  0.00    +0.000 HD
ENDBRANCH  25  27
ENDBRANCH  22  25
ENDBRANCH  16  17
ENDBRANCH  15  16
ENDBRANCH   9  15
TORSDOF 6
ENDMDL
MODEL 2
REMARK VINA RESULT:      -7.6      2.128      2.588
REMARK  Name = 
REMARK  8 active torsions:
REMARK  status: ('A' for Active; 'I' for Inactive)
REMARK    1  A    between atoms: C_1  and  C_2
REMARK    2  A    between atoms: C_2  and  C_3
REMARK    3  A    between atoms: C_9  and  C_10
REMARK    4  A    between atoms: C_11  and  O_12
REMARK    5  A    between atoms: O_12  and  C_13
REMARK    6  A    between atoms: C_13  and  C_14
REMARK    7  A    between atoms: C_19  and  C_20
REMARK    8  A    between atoms: C_20  and  O_22
REMARK                            x       y       z     vdW  Elec       q    Type
REMARK                         _______ _______ _______ _____ _____    ______ ____
ROOT
ATOM      1  C   UNL     1       4.344   4.735  16.912  0.00  0.00    +0.000 A 
ATOM      2  C   UNL     1       4.339   3.395  16.993  0.00  0.00    +0.000 A 
ATOM      3  C   UNL     1       3.640   2.636  18.038  0.00  0.00    +0.000 A 
ATOM      4  O   UNL     1       3.672   1.411  18.053  0.00  0.00    +0.000 OA
ATOM      5  O   UNL     1       2.976   3.375  18.997  0.00  0.00    +0.000 OA
ATOM      6  C   UNL     1       2.912   4.787  18.945  0.00  0.00    +0.000 A 
ATOM      7  C   UNL     1       2.154   5.426  19.950  0.00  0.00    +0.000 A 
ATOM      8  C   UNL     1       1.546   4.653  21.088  0.00  0.00    +0.000 C 
ATOM      9  C   UNL     1       1.990   6.818  19.872  0.00  0.00    +0.000 A 
ATOM     10  C   UNL     1       2.675   7.532  18.887  0.00  0.00    +0.000 A 
ATOM     11  C   UNL     1       3.481   6.876  17.948  0.00  0.00    +0.000 A 
ATOM     12  C   UNL     1       3.580   5.485  17.928  0.00  0.00    +0.000 A 
ENDROOT
BRANCH   1  14
ATOM     13  C   UNL     1       6.664   5.547  16.094  0.00  0.00    +0.000 C 
ATOM     14  C   UNL     1       5.165   5.415  15.833  0.00  0.00    +0.000 C 
ENDBRANCH   1  14
BRANCH   9  15
ATOM     15  O   UNL     1       1.200   7.424  20.821  0.00  0.00    +0.000 OA
BRANCH  15  16
ATOM     16  C   UNL     1       1.853   8.454  21.559  0.00  0.00    +0.000 C 
BRANCH  16  17
ATOM     17  C   UNL     1       0.917   9.559  22.066  0.00  0.00    +0.000 C 
ATOM     18  O   UNL     1       0.580   9.571  23.255  0.00  0.00    +0.000 OA
ATOM     19  N   UNL     1       0.543  10.572  21.194  0.00  0.00    +0.000 N 
ATOM     20  C   UNL     1      -0.210  11.713  21.700  0.00  0.00    +0.000 C 
ATOM     21  C   UNL     1      -1.599  11.763  21.064  0.00  0.00    +0.000 C 
ATOM     22  C   UNL     1      -1.523  11.738  19.530  0.00  0.00    +0.000 C 
ATOM     23  C   UNL     1      -0.650  10.559  19.058  0.00  0.00    +0.000 C 
ATOM     24  C   UNL     1       0.720  10.548  19.746  0.00  0.00    +0.000 C 
BRANCH  22  25
ATOM     25  C   UNL     1      -1.010  13.058  18.969  0.00  0.00    +0.000 C 
ATOM     26  O   UNL     1      -0.245  13.166  18.025  0.00  0.00    +0.000 OA
BRANCH  25  27
ATOM     27  O   UNL     1      -1.507  14.143  19.603  0.00  0.00    +0.000 OA
ATOM     28  H   UNL     1      -2.435  14.354  19.389  0.00  0.00    +0.000 HD
ENDBRANCH  25  27
ENDBRANCH  22  25
ENDBRANCH  16  17
ENDBRANCH  15  16
ENDBRANCH   9  15
TORSDOF 6
ENDMDL
MODEL 3
REMARK VINA RESULT:      -7.5      2.101      2.784
REMARK  Name = 
REMARK  8 active torsions:
REMARK  status: ('A' for Active; 'I' for Inactive)
REMARK    1  A    between atoms: C_1  and  C_2
REMARK    2  A    between atoms: C_2  and  C_3
REMARK    3  A    between atoms: C_9  and  C_10
REMARK    4  A    between atoms: C_11  and  O_12
REMARK    5  A    between atoms: O_12  and  C_13
REMARK    6  A    between atoms: C_13  and  C_14
REMARK    7  A    between atoms: C_19  and  C_20
REMARK    8  A    between atoms: C_20  and  O_22
REMARK                            x       y       z     vdW  Elec       q    Type
REMARK                         _______ _______ _______ _____ _____    ______ ____
ROOT
ATOM      1  C   UNL     1       4.288   4.918  16.916  0.00  0.00    +0.000 A 
ATOM      2  C   UNL     1       4.363   3.578  16.876  0.00  0.00    +0.000 A 
ATOM      3  C   UNL     1       3.790   2.689  17.895  0.00  0.00    +0.000 A 
ATOM      4  O   UNL     1       3.892   1.472  17.795  0.00  0.00    +0.000 OA
ATOM      5  O   UNL     1       3.163   3.299  18.963  0.00  0.00    +0.000 OA
ATOM      6  C   UNL     1       3.017   4.704  19.044  0.00  0.00    +0.000 A 
ATOM      7  C   UNL     1       2.304   5.206  20.155  0.00  0.00    +0.000 A 
ATOM      8  C   UNL     1       1.830   4.300  21.259  0.00  0.00    +0.000 C 
ATOM      9  C   UNL     1       2.058   6.586  20.215  0.00  0.00    +0.000 A 
ATOM     10  C   UNL     1       2.624   7.424  19.253  0.00  0.00    +0.000 A 
ATOM     11  C   UNL     1       3.390   6.903  18.203  0.00  0.00    +0.000 A 
ATOM     12  C   UNL     1       3.564   5.527  18.049  0.00  0.00    +0.000 A 
ENDROOT
BRANCH   1  14
ATOM     13  C   UNL     1       6.019   5.012  14.993  0.00  0.00    +0.000 C 
ATOM     14  C   UNL     1       4.984   5.738  15.848  0.00  0.00    +0.000 C 
ENDBRANCH   1  14
BRANCH   9  15
ATOM     15  O   UNL     1       1.312   7.057  21.271  0.00  0.00    +0.000 OA
BRANCH  15  16
ATOM     16  C   UNL     1       0.376   8.074  20.921  0.00  0.00    +0.000 C 
BRANCH  16  17
ATOM     17  C   UNL     1       0.794   9.490  21.341  0.00  0.00    +0.000 C 
ATOM     18  O   UNL     1       1.405   9.652  22.403  0.00  0.00    +0.000 OA
ATOM     19  N   UNL     1       0.556  10.543  20.469  0.00  0.00    +0.000 N 
ATOM     20  C   UNL     1       1.091  11.864  20.778  0.00  0.00    +0.000 C 
ATOM     21  C   UNL     1      -0.044  12.862  21.005  0.00  0.00    +0.000 C 
ATOM     22  C   UNL     1      -1.028  12.883  19.825  0.00  0.00    +0.000 C 
ATOM     23  C   UNL     1      -1.496  11.453  19.496  0.00  0.00    +0.000 C 
ATOM     24  C   UNL     1      -0.317  10.493  19.301  0.00  0.00    +0.000 C 
BRANCH  22  25
ATOM     25  C   UNL     1      -0.425  13.558  18.600  0.00  0.00    +0.000 C 
ATOM     26  O   UNL     1       0.436  14.422  18.632  0.00  0.00    +0.000 OA
BRANCH  25  27
ATOM     27  O   UNL     1      -0.915  13.092  17.431  0.00  0.00    +0.000 OA
ATOM     28  H   UNL     1      -1.573  13.671  17.002  0.00  0.00    +0.000 HD
ENDBRANCH  25  27
ENDBRANCH  22  25
ENDBRANCH  16  17
ENDBRANCH  15  16
ENDBRANCH   9  15
TORSDOF 6
ENDMDL
MODEL 4
REMARK VINA RESULT:      -7.5      3.923      8.306
REMARK  Name = 
REMARK  8 active torsions:
REMARK  status: ('A' for Active; 'I' for Inactive)
REMARK    1  A    between atoms: C_1  and  C_2
REMARK    2  A    between atoms: C_2  and  C_3
REMARK    3  A    between atoms: C_9  and  C_10
REMARK    4  A    between atoms: C_11  and  O_12
REMARK    5  A    between atoms: O_12  and  C_13
REMARK    6  A    between atoms: C_13  and  C_14
REMARK    7  A    between atoms: C_19  and  C_20
REMARK    8  A    between atoms: C_20  and  O_22
REMARK                            x       y       z     vdW  Elec       q    Type
REMARK                         _______ _______ _______ _____ _____    ______ ____
ROOT
ATOM      1  C   UNL     1       1.630   9.138  19.271  0.00  0.00    +0.000 A 
ATOM      2  C   UNL     1       1.135   9.501  20.465  0.00  0.00    +0.000 A 
ATOM      3  C   UNL     1       0.950   8.582  21.595  0.00  0.00    +0.000 A 
ATOM      4  O   UNL     1       0.495   8.981  22.661  0.00  0.00    +0.000 OA
ATOM      5  O   UNL     1       1.290   7.262  21.378  0.00  0.00    +0.000 OA
ATOM      6  C   UNL     1       1.852   6.823  20.156  0.00  0.00    +0.000 A 
ATOM      7  C   UNL     1       2.214   5.461  20.075  0.00  0.00    +0.000 A 
ATOM      8  C   UNL     1       1.905   4.499  21.189  0.00  0.00    +0.000 C 
ATOM      9  C   UNL     1       2.862   5.016  18.913  0.00  0.00    +0.000 A 
ATOM     10  C   UNL     1       3.016   5.892  17.837  0.00  0.00    +0.000 A 
ATOM     11  C   UNL     1       2.578   7.220  17.920  0.00  0.00    +0.000 A 
ATOM     12  C   UNL     1       2.029   7.728  19.098  0.00  0.00    +0.000 A 
ENDROOT
BRANCH   1  14
ATOM     13  C   UNL     1       1.467  11.616  18.535  0.00  0.00    +0.000 C 
ATOM     14  C   UNL     1       1.705  10.158  18.151  0.00  0.00    +0.000 C 
ENDBRANCH   1  14
BRANCH   9  15
ATOM     15  O   UNL     1       3.264   3.701  18.868  0.00  0.00    +0.000 OA
BRANCH  15  16
ATOM     16  C   UNL     1       4.559   3.463  19.415  0.00  0.00    +0.000 C 
BRANCH  16  17
ATOM     17  C   UNL     1       5.636   4.449  18.940  0.00  0.00    +0.000 C 
ATOM     18  O   UNL     1       6.162   5.212  19.757  0.00  0.00    +0.000 OA
ATOM     19  N   UNL     1       6.057   4.393  17.619  0.00  0.00    +0.000 N 
ATOM     20  C   UNL     1       7.190   5.207  17.193  0.00  0.00    +0.000 C 
ATOM     21  C   UNL     1       6.747   6.241  16.158  0.00  0.00    +0.000 C 
ATOM     22  C   UNL     1       6.013   5.586  14.978  0.00  0.00    +0.000 C 
ATOM     23  C   UNL     1       4.879   4.678  15.494  0.00  0.00    +0.000 C 
ATOM     24  C   UNL     1       5.378   3.678  16.544  0.00  0.00    +0.000 C 
BRANCH  22  25
ATOM     25  C   UNL     1       6.967   4.813  14.078  0.00  0.00    +0.000 C 
ATOM     26  O   UNL     1       6.697   3.770  13.506  0.00  0.00    +0.000 OA
BRANCH  25  27
ATOM     27  O   UNL     1       8.172   5.408  13.932  0.00  0.00    +0.000 OA
ATOM     28  H   UNL     1       8.719   5.428  14.740  0.00  0.00    +0.000 HD
ENDBRANCH  25  27
ENDBRANCH  22  25
ENDBRANCH  16  17
ENDBRANCH  15  16
ENDBRANCH   9  15
TORSDOF 6
ENDMDL
MODEL 5
REMARK VINA RESULT:      -7.4      2.971      9.040
REMARK  Name = 
REMARK  8 active torsions:
REMARK  status: ('A' for Active; 'I' for Inactive)
REMARK    1  A    between atoms: C_1  and  C_2
REMARK    2  A    between atoms: C_2  and  C_3
REMARK    3  A    between atoms: C_9  and  C_10
REMARK    4  A    between atoms: C_11  and  O_12
REMARK    5  A    between atoms: O_12  and  C_13
REMARK    6  A    between atoms: C_13  and  C_14
REMARK    7  A    between atoms: C_19  and  C_20
REMARK    8  A    between atoms: C_20  and  O_22
REMARK                            x       y       z     vdW  Elec       q    Type
REMARK                         _______ _______ _______ _____ _____    ______ ____
ROOT
ATOM      1  C   UNL     1      -0.760  11.008  21.364  0.00  0.00    +0.000 A 
ATOM      2  C   UNL     1      -1.177  11.864  20.418  0.00  0.00    +0.000 A 
ATOM      3  C   UNL     1      -0.733  11.826  19.018  0.00  0.00    +0.000 A 
ATOM      4  O   UNL     1      -1.155  12.637  18.203  0.00  0.00    +0.000 OA
ATOM      5  O   UNL     1       0.191  10.853  18.692  0.00  0.00    +0.000 OA
ATOM      6  C   UNL     1       0.640   9.898  19.634  0.00  0.00    +0.000 A 
ATOM      7  C   UNL     1       1.541   8.917  19.165  0.00  0.00    +0.000 A 
ATOM      8  C   UNL     1       2.089   8.959  17.764  0.00  0.00    +0.000 C 
ATOM      9  C   UNL     1       1.929   7.899  20.048  0.00  0.00    +0.000 A 
ATOM     10  C   UNL     1       1.518   7.955  21.381  0.00  0.00    +0.000 A 
ATOM     11  C   UNL     1       0.683   8.984  21.835  0.00  0.00    +0.000 A 
ATOM     12  C   UNL     1       0.189   9.953  20.961  0.00  0.00    +0.000 A 
ENDROOT
BRANCH   1  14
ATOM     13  C   UNL     1      -2.491  12.024  23.002  0.00  0.00    +0.000 C 
ATOM     14  C   UNL     1      -1.228  11.192  22.795  0.00  0.00    +0.000 C 
ENDBRANCH   1  14
BRANCH   9  15
ATOM     15  O   UNL     1       2.759   6.914  19.564  0.00  0.00    +0.000 OA
BRANCH  15  16
ATOM     16  C   UNL     1       2.119   5.659  19.346  0.00  0.00    +0.000 C 
BRANCH  16  17
ATOM     17  C   UNL     1       2.624   4.897  18.113  0.00  0.00    +0.000 C 
ATOM     18  O   UNL     1       1.897   4.049  17.584  0.00  0.00    +0.000 OA
ATOM     19  N   UNL     1       3.851   5.246  17.568  0.00  0.00    +0.000 N 
ATOM     20  C   UNL     1       4.272   4.649  16.306  0.00  0.00    +0.000 C 
ATOM     21  C   UNL     1       5.521   3.792  16.510  0.00  0.00    +0.000 C 
ATOM     22  C   UNL     1       6.647   4.582  17.193  0.00  0.00    +0.000 C 
ATOM     23  C   UNL     1       6.123   5.255  18.477  0.00  0.00    +0.000 C 
ATOM     24  C   UNL     1       4.858   6.081  18.216  0.00  0.00    +0.000 C 
BRANCH  22  25
ATOM     25  C   UNL     1       7.270   5.605  16.253  0.00  0.00    +0.000 C 
ATOM     26  O   UNL     1       7.611   6.732  16.574  0.00  0.00    +0.000 OA
BRANCH  25  27
ATOM     27  O   UNL     1       7.449   5.144  14.996  0.00  0.00    +0.000 OA
ATOM     28  H   UNL     1       6.764   4.524  14.685  0.00  0.00    +0.000 HD
ENDBRANCH  25  27
ENDBRANCH  22  25
ENDBRANCH  16  17
ENDBRANCH  15  16
ENDBRANCH   9  15
TORSDOF 6
ENDMDL
MODEL 6
REMARK VINA RESULT:      -7.4      1.366      1.806
REMARK  Name = 
REMARK  8 active torsions:
REMARK  status: ('A' for Active; 'I' for Inactive)
REMARK    1  A    between atoms: C_1  and  C_2
REMARK    2  A    between atoms: C_2  and  C_3
REMARK    3  A    between atoms: C_9  and  C_10
REMARK    4  A    between atoms: C_11  and  O_12
REMARK    5  A    between atoms: O_12  and  C_13
REMARK    6  A    between atoms: C_13  and  C_14
REMARK    7  A    between atoms: C_19  and  C_20
REMARK    8  A    between atoms: C_20  and  O_22
REMARK                            x       y       z     vdW  Elec       q    Type
REMARK                         _______ _______ _______ _____ _____    ______ ____
ROOT
ATOM      1  C   UNL     1       3.138   3.845  19.075  0.00  0.00    +0.000 A 
ATOM      2  C   UNL     1       2.766   3.179  20.179  0.00  0.00    +0.000 A 
ATOM      3  C   UNL     1       2.121   3.805  21.341  0.00  0.00    +0.000 A 
ATOM      4  O   UNL     1       1.803   3.137  22.319  0.00  0.00    +0.000 OA
ATOM      5  O   UNL     1       1.923   5.170  21.275  0.00  0.00    +0.000 OA
ATOM      6  C   UNL     1       2.259   5.921  20.124  0.00  0.00    +0.000 A 
ATOM      7  C   UNL     1       1.953   7.300  20.154  0.00  0.00    +0.000 A 
ATOM      8  C   UNL     1       1.410   7.958  21.393  0.00  0.00    +0.000 C 
ATOM      9  C   UNL     1       2.184   8.054  18.993  0.00  0.00    +0.000 A 
ATOM     10  C   UNL     1       2.815   7.454  17.902  0.00  0.00    +0.000 A 
ATOM     11  C   UNL     1       3.174   6.101  17.930  0.00  0.00    +0.000 A 
ATOM     12  C   UNL     1       2.862   5.293  19.024  0.00  0.00    +0.000 A 
ENDROOT
BRANCH   1  14
ATOM     13  C   UNL     1       3.003   2.514  16.857  0.00  0.00    +0.000 C 
ATOM     14  C   UNL     1       3.866   3.107  17.968  0.00  0.00    +0.000 C 
ENDBRANCH   1  14
BRANCH   9  15
ATOM     15  O   UNL     1       1.827   9.383  19.013  0.00  0.00    +0.000 OA
BRANCH  15  16
ATOM     16  C   UNL     1       0.771   9.721  18.117  0.00  0.00    +0.000 C 
BRANCH  16  17
ATOM     17  C   UNL     1      -0.170  10.818  18.635  0.00  0.00    +0.000 C 
ATOM     18  O   UNL     1       0.198  11.545  19.563  0.00  0.00    +0.000 OA
ATOM     19  N   UNL     1      -1.379  11.024  17.983  0.00  0.00    +0.000 N 
ATOM     20  C   UNL     1      -2.209  12.163  18.356  0.00  0.00    +0.000 C 
ATOM     21  C   UNL     1      -3.537  11.687  18.945  0.00  0.00    +0.000 C 
ATOM     22  C   UNL     1      -4.259  10.712  18.003  0.00  0.00    +0.000 C 
ATOM     23  C   UNL     1      -3.309   9.575  17.581  0.00  0.00    +0.000 C 
ATOM     24  C   UNL     1      -1.986  10.112  17.020  0.00  0.00    +0.000 C 
BRANCH  22  25
ATOM     25  C   UNL     1      -4.836  11.425  16.787  0.00  0.00    +0.000 C 
ATOM     26  O   UNL     1      -5.442  12.483  16.820  0.00  0.00    +0.000 OA
BRANCH  25  27
ATOM     27  O   UNL     1      -4.593  10.785  15.621  0.00  0.00    +0.000 OA
ATOM     28  H   UNL     1      -4.611   9.812  15.676  0.00  0.00    +0.000 HD
ENDBRANCH  25  27
ENDBRANCH  22  25
ENDBRANCH  16  17
ENDBRANCH  15  16
ENDBRANCH   9  15
TORSDOF 6
ENDMDL
MODEL 7
REMARK VINA RESULT:      -7.4      1.615      2.353
REMARK  Name = 
REMARK  8 active torsions:
REMARK  status: ('A' for Active; 'I' for Inactive)
REMARK    1  A    between atoms: C_1  and  C_2
REMARK    2  A    between atoms: C_2  and  C_3
REMARK    3  A    between atoms: C_9  and  C_10
REMARK    4  A    between atoms: C_11  and  O_12
REMARK    5  A    between atoms: O_12  and  C_13
REMARK    6  A    between atoms: C_13  and  C_14
REMARK    7  A    between atoms: C_19  and  C_20
REMARK    8  A    between atoms: C_20  and  O_22
REMARK                            x       y       z     vdW  Elec       q    Type
REMARK                         _______ _______ _______ _____ _____    ______ ____
ROOT
ATOM      1  C   UNL     1       3.145   5.620  18.498  0.00  0.00    +0.000 A 
ATOM      2  C   UNL     1       2.968   4.688  19.446  0.00  0.00    +0.000 A 
ATOM      3  C   UNL     1       2.253   4.920  20.708  0.00  0.00    +0.000 A 
ATOM      4  O   UNL     1       2.124   4.022  21.532  0.00  0.00    +0.000 OA
ATOM      5  O   UNL     1       1.765   6.195  20.913  0.00  0.00    +0.000 OA
ATOM      6  C   UNL     1       1.885   7.211  19.936  0.00  0.00    +0.000 A 
ATOM      7  C   UNL     1       1.293   8.457  20.238  0.00  0.00    +0.000 A 
ATOM      8  C   UNL     1       0.672   8.727  21.582  0.00  0.00    +0.000 C 
ATOM      9  C   UNL     1       1.310   9.454  19.252  0.00  0.00    +0.000 A 
ATOM     10  C   UNL     1       2.010   9.231  18.065  0.00  0.00    +0.000 A 
ATOM     11  C   UNL     1       2.651   8.009  17.825  0.00  0.00    +0.000 A 
ATOM     12  C   UNL     1       2.563   6.956  18.735  0.00  0.00    +0.000 A 
ENDROOT
BRANCH   1  14
ATOM     13  C   UNL     1       4.361   3.826  17.080  0.00  0.00    +0.000 C 
ATOM     14  C   UNL     1       3.968   5.289  17.268  0.00  0.00    +0.000 C 
ENDBRANCH   1  14
BRANCH   9  15
ATOM     15  O   UNL     1       0.678  10.644  19.534  0.00  0.00    +0.000 OA
BRANCH  15  16
ATOM     16  C   UNL     1      -0.591  10.800  18.904  0.00  0.00    +0.000 C 
BRANCH  16  17
ATOM     17  C   UNL     1      -1.641  11.513  19.766  0.00  0.00    +0.000 C 
ATOM     18  O   UNL     1      -1.382  11.777  20.945  0.00  0.00    +0.000 OA
ATOM     19  N   UNL     1      -2.826  11.926  19.171  0.00  0.00    +0.000 N 
ATOM     20  C   UNL     1      -3.762  12.747  19.931  0.00  0.00    +0.000 C 
ATOM     21  C   UNL     1      -5.078  11.999  20.144  0.00  0.00    +0.000 C 
ATOM     22  C   UNL     1      -5.670  11.502  18.817  0.00  0.00    +0.000 C 
ATOM     23  C   UNL     1      -4.612  10.711  18.024  0.00  0.00    +0.000 C 
ATOM     24  C   UNL     1      -3.308  11.500  17.862  0.00  0.00    +0.000 C 
BRANCH  22  25
ATOM     25  C   UNL     1      -6.235  12.648  17.986  0.00  0.00    +0.000 C 
ATOM     26  O   UNL     1      -6.422  13.781  18.396  0.00  0.00    +0.000 OA
BRANCH  25  27
ATOM     27  O   UNL     1      -6.497  12.307  16.705  0.00  0.00    +0.000 OA
ATOM     28  H   UNL     1      -6.309  13.004  16.049  0.00  0.00    +0.000 HD
ENDBRANCH  25  27
ENDBRANCH  22  25
ENDBRANCH  16  17
ENDBRANCH  15  16
ENDBRANCH   9  15
TORSDOF 6
ENDMDL
MODEL 8
REMARK VINA RESULT:      -7.3      2.637      3.560
REMARK  Name = 
REMARK  8 active torsions:
REMARK  status: ('A' for Active; 'I' for Inactive)
REMARK    1  A    between atoms: C_1  and  C_2
REMARK    2  A    between atoms: C_2  and  C_3
REMARK    3  A    between atoms: C_9  and  C_10
REMARK    4  A    between atoms: C_11  and  O_12
REMARK    5  A    between atoms: O_12  and  C_13
REMARK    6  A    between atoms: C_13  and  C_14
REMARK    7  A    between atoms: C_19  and  C_20
REMARK    8  A    between atoms: C_20  and  O_22
REMARK                            x       y       z     vdW  Elec       q    Type
REMARK                         _______ _______ _______ _____ _____    ______ ____
ROOT
ATOM      1  C   UNL     1       4.326   4.342  18.280  0.00  0.00    +0.000 A 
ATOM      2  C   UNL     1       5.007   4.677  17.172  0.00  0.00    +0.000 A 
ATOM      3  C   UNL     1       4.894   5.975  16.496  0.00  0.00    +0.000 A 
ATOM      4  O   UNL     1       5.547   6.218  15.488  0.00  0.00    +0.000 OA
ATOM      5  O   UNL     1       4.003   6.879  17.042  0.00  0.00    +0.000 OA
ATOM      6  C   UNL     1       3.285   6.601  18.229  0.00  0.00    +0.000 A 
ATOM      7  C   UNL     1       2.450   7.627  18.723  0.00  0.00    +0.000 A 
ATOM      8  C   UNL     1       2.242   8.906  17.958  0.00  0.00    +0.000 C 
ATOM      9  C   UNL     1       1.800   7.420  19.948  0.00  0.00    +0.000 A 
ATOM     10  C   UNL     1       1.898   6.175  20.573  0.00  0.00    +0.000 A 
ATOM     11  C   UNL     1       2.676   5.150  20.020  0.00  0.00    +0.000 A 
ATOM     12  C   UNL     1       3.424   5.356  18.860  0.00  0.00    +0.000 A 
ENDROOT
BRANCH   1  14
ATOM     13  C   UNL     1       3.462   1.901  18.359  0.00  0.00    +0.000 C 
ATOM     14  C   UNL     1       4.465   2.943  18.848  0.00  0.00    +0.000 C 
ENDBRANCH   1  14
BRANCH   9  15
ATOM     15  O   UNL     1       1.037   8.449  20.450  0.00  0.00    +0.000 OA
BRANCH  15  16
ATOM     16  C   UNL     1       1.379   8.843  21.776  0.00  0.00    +0.000 C 
BRANCH  16  17
ATOM     17  C   UNL     1       0.470   9.930  22.367  0.00  0.00    +0.000 C 
ATOM     18  O   UNL     1       0.113   9.847  23.547  0.00  0.00    +0.000 OA
ATOM     19  N   UNL     1       0.147  11.029  21.584  0.00  0.00    +0.000 N 
ATOM     20  C   UNL     1      -0.578  12.146  22.179  0.00  0.00    +0.000 C 
ATOM     21  C   UNL     1      -1.952  12.300  21.529  0.00  0.00    +0.000 C 
ATOM     22  C   UNL     1      -1.849  12.411  20.001  0.00  0.00    +0.000 C 
ATOM     23  C   UNL     1      -1.008  11.249  19.438  0.00  0.00    +0.000 C 
ATOM     24  C   UNL     1       0.349  11.129  20.142  0.00  0.00    +0.000 C 
BRANCH  22  25
ATOM     25  C   UNL     1      -1.284  13.757  19.569  0.00  0.00    +0.000 C 
ATOM     26  O   UNL     1      -0.437  13.914  18.704  0.00  0.00    +0.000 OA
BRANCH  25  27
ATOM     27  O   UNL     1      -1.830  14.807  20.222  0.00  0.00    +0.000 OA
ATOM     28  H   UNL     1      -1.707  15.670  19.785  0.00  0.00    +0.000 HD
ENDBRANCH  25  27
ENDBRANCH  22  25
ENDBRANCH  16  17
ENDBRANCH  15  16
ENDBRANCH   9  15
TORSDOF 6
ENDMDL
MODEL 9
REMARK VINA RESULT:      -7.3      2.076      2.901
REMARK  Name = 
REMARK  8 active torsions:
REMARK  status: ('A' for Active; 'I' for Inactive)
REMARK    1  A    between atoms: C_1  and  C_2
REMARK    2  A    between atoms: C_2  and  C_3
REMARK    3  A    between atoms: C_9  and  C_10
REMARK    4  A    between atoms: C_11  and  O_12
REMARK    5  A    between atoms: O_12  and  C_13
REMARK    6  A    between atoms: C_13  and  C_14
REMARK    7  A    between atoms: C_19  and  C_20
REMARK    8  A    between atoms: C_20  and  O_22
REMARK                            x       y       z     vdW  Elec       q    Type
REMARK                         _______ _______ _______ _____ _____    ______ ____
ROOT
ATOM      1  C   UNL     1       4.565   4.699  16.704  0.00  0.00    +0.000 A 
ATOM      2  C   UNL     1       4.489   3.377  16.927  0.00  0.00    +0.000 A 
ATOM      3  C   UNL     1       3.708   2.767  18.011  0.00  0.00    +0.000 A 
ATOM      4  O   UNL     1       3.679   1.551  18.157  0.00  0.00    +0.000 OA
ATOM      5  O   UNL     1       3.041   3.635  18.853  0.00  0.00    +0.000 OA
ATOM      6  C   UNL     1       3.050   5.035  18.648  0.00  0.00    +0.000 A 
ATOM      7  C   UNL     1       2.281   5.813  19.541  0.00  0.00    +0.000 A 
ATOM      8  C   UNL     1       1.586   5.195  20.723  0.00  0.00    +0.000 C 
ATOM      9  C   UNL     1       2.191   7.193  19.307  0.00  0.00    +0.000 A 
ATOM     10  C   UNL     1       2.953   7.766  18.286  0.00  0.00    +0.000 A 
ATOM     11  C   UNL     1       3.765   6.976  17.463  0.00  0.00    +0.000 A 
ATOM     12  C   UNL     1       3.796   5.587  17.596  0.00  0.00    +0.000 A 
ENDROOT
BRANCH   1  14
ATOM     13  C   UNL     1       5.859   4.226  14.510  0.00  0.00    +0.000 C 
ATOM     14  C   UNL     1       5.465   5.220  15.600  0.00  0.00    +0.000 C 
ENDBRANCH   1  14
BRANCH   9  15
ATOM     15  O   UNL     1       1.391   7.934  20.147  0.00  0.00    +0.000 OA
BRANCH  15  16
ATOM     16  C   UNL     1       1.590   9.342  20.058  0.00  0.00    +0.000 C 
BRANCH  16  17
ATOM     17  C   UNL     1       0.425  10.106  19.415  0.00  0.00    +0.000 C 
ATOM     18  O   UNL     1       0.349  10.175  18.184  0.00  0.00    +0.000 OA
ATOM     19  N   UNL     1      -0.568  10.624  20.235  0.00  0.00    +0.000 N 
ATOM     20  C   UNL     1      -1.762  11.208  19.634  0.00  0.00    +0.000 C 
ATOM     21  C   UNL     1      -1.848  12.700  19.957  0.00  0.00    +0.000 C 
ATOM     22  C   UNL     1      -1.759  12.961  21.468  0.00  0.00    +0.000 C 
ATOM     23  C   UNL     1      -0.524  12.254  22.059  0.00  0.00    +0.000 C 
ATOM     24  C   UNL     1      -0.479  10.768  21.684  0.00  0.00    +0.000 C 
BRANCH  22  25
ATOM     25  C   UNL     1      -3.031  12.537  22.191  0.00  0.00    +0.000 C 
ATOM     26  O   UNL     1      -4.155  12.597  21.719  0.00  0.00    +0.000 OA
BRANCH  25  27
ATOM     27  O   UNL     1      -2.810  12.044  23.429  0.00  0.00    +0.000 OA
ATOM     28  H   UNL     1      -2.735  12.718  24.131  0.00  0.00    +0.000 HD
ENDBRANCH  25  27
ENDBRANCH  22  25
ENDBRANCH  16  17
ENDBRANCH  15  16
ENDBRANCH   9  15
TORSDOF 6
ENDMDL
