MODEL 1
REMARK VINA RESULT:      -6.8      0.000      0.000
REMARK  Name = 
REMARK  7 active torsions:
REMARK  status: ('A' for Active; 'I' for Inactive)
REMARK    1  A    between atoms: C_1  and  C_2
REMARK    2  A    between atoms: C_2  and  C_3
REMARK    3  A    between atoms: C_2  and  C_4
REMARK    4  A    between atoms: C_4  and  S_5
REMARK    5  A    between atoms: S_5  and  N_8
REMARK    6  A    between atoms: C_11  and  C_12
REMARK    7  A    between atoms: N_14  and  C_15
REMARK                            x       y       z     vdW  Elec       q    Type
REMARK                         _______ _______ _______ _____ _____    ______ ____
ROOT
ATOM      1  N   UNL     1       7.270   5.268  15.729  0.00  0.00    +0.000 NA
ATOM      2  C   UNL     1       7.132   6.627  16.351  0.00  0.00    +0.000 C 
ATOM      3  C   UNL     1       7.437   6.592  17.848  0.00  0.00    +0.000 C 
ATOM      4  C   UNL     1       6.601   5.549  18.601  0.00  0.00    +0.000 C 
ATOM      5  C   UNL     1       6.800   4.189  17.920  0.00  0.00    +0.000 C 
ATOM      6  C   UNL     1       6.437   4.249  16.439  0.00  0.00    +0.000 C 
ENDROOT
BRANCH   4   7
ATOM      7  C   UNL     1       5.119   5.941  18.688  0.00  0.00    +0.000 C 
ATOM      8  O   UNL     1       4.672   6.967  18.186  0.00  0.00    +0.000 OA
ATOM      9  N   UNL     1       4.329   5.040  19.375  0.00  0.00    +0.000 N 
ATOM     10  H   UNL     1       4.782   4.363  19.974  0.00  0.00    +0.000 HD
BRANCH   9  11
ATOM     11  C   UNL     1       2.873   5.188  19.473  0.00  0.00    +0.000 C 
ATOM     12  C   UNL     1       2.198   4.727  18.173  0.00  0.00    +0.000 C 
ATOM     13  C   UNL     1       2.150   3.220  17.935  0.00  0.00    +0.000 C 
ATOM     14  C   UNL     1       0.969   2.519  18.600  0.00  0.00    +0.000 C 
ATOM     15  C   UNL     1       0.954   2.555  20.123  0.00  0.00    +0.000 C 
ATOM     16  C   UNL     1       0.946   3.956  20.730  0.00  0.00    +0.000 C 
ATOM     17  C   UNL     1       2.334   4.591  20.784  0.00  0.00    +0.000 C 
ENDBRANCH   9  11
ENDBRANCH   4   7
BRANCH   1  18
ATOM     18  S   UNL     1       6.965   5.328  14.024  0.00  0.00    +0.000 S 
ATOM     19  O   UNL     1       8.221   5.601  13.366  0.00  0.00    +0.000 OA
ATOM     20  O   UNL     1       5.812   6.178  13.825  0.00  0.00    +0.000 OA
BRANCH  18  21
ATOM     21  C   UNL     1       6.529   3.629  13.633  0.00  0.00    +0.000 C 
BRANCH  21  23
ATOM     22  C   UNL     1       6.915   2.217  11.572  0.00  0.00    +0.000 C 
ATOM     23  C   UNL     1       6.189   3.440  12.138  0.00  0.00    +0.000 C 
ATOM     24  C   UNL     1       4.688   3.291  11.879  0.00  0.00    +0.000 C 
ENDBRANCH  21  23
ENDBRANCH  18  21
ENDBRANCH   1  18
TORSDOF 5
ENDMDL
MODEL 2
REMARK VINA RESULT:      -6.8      1.325      2.016
REMARK  Name = 
REMARK  7 active torsions:
REMARK  status: ('A' for Active; 'I' for Inactive)
REMARK    1  A    between atoms: C_1  and  C_2
REMARK    2  A    between atoms: C_2  and  C_3
REMARK    3  A    between atoms: C_2  and  C_4
REMARK    4  A    between atoms: C_4  and  S_5
REMARK    5  A    between atoms: S_5  and  N_8
REMARK    6  A    between atoms: C_11  and  C_12
REMARK    7  A    between atoms: N_14  and  C_15
REMARK                            x       y       z     vdW  Elec       q    Type
REMARK                         _______ _______ _______ _____ _____    ______ ____
ROOT
ATOM      1  N   UNL     1       6.549   5.966  15.415  0.00  0.00    +0.000 NA
ATOM      2  C   UNL     1       5.098   5.770  15.746  0.00  0.00    +0.000 C 
ATOM      3  C   UNL     1       4.614   6.793  16.773  0.00  0.00    +0.000 C 
ATOM      4  C   UNL     1       5.476   6.815  18.042  0.00  0.00    +0.000 C 
ATOM      5  C   UNL     1       6.937   7.031  17.628  0.00  0.00    +0.000 C 
ATOM      6  C   UNL     1       7.401   5.961  16.644  0.00  0.00    +0.000 C 
ENDROOT
BRANCH   4   7
ATOM      7  C   UNL     1       5.296   5.549  18.891  0.00  0.00    +0.000 C 
ATOM      8  O   UNL     1       6.101   5.203  19.749  0.00  0.00    +0.000 OA
ATOM      9  N   UNL     1       4.148   4.833  18.613  0.00  0.00    +0.000 N 
ATOM     10  H   UNL     1       3.666   5.016  17.743  0.00  0.00    +0.000 HD
BRANCH   9  11
ATOM     11  C   UNL     1       3.749   3.654  19.391  0.00  0.00    +0.000 C 
ATOM     12  C   UNL     1       2.858   4.068  20.571  0.00  0.00    +0.000 C 
ATOM     13  C   UNL     1       1.427   4.474  20.227  0.00  0.00    +0.000 C 
ATOM     14  C   UNL     1       0.454   3.304  20.117  0.00  0.00    +0.000 C 
ATOM     15  C   UNL     1       0.735   2.317  18.992  0.00  0.00    +0.000 C 
ATOM     16  C   UNL     1       2.109   1.653  19.051  0.00  0.00    +0.000 C 
ATOM     17  C   UNL     1       3.220   2.533  18.481  0.00  0.00    +0.000 C 
ENDBRANCH   9  11
ENDBRANCH   4   7
BRANCH   1  18
ATOM     18  S   UNL     1       7.075   4.829  14.217  0.00  0.00    +0.000 S 
ATOM     19  O   UNL     1       7.813   3.792  14.896  0.00  0.00    +0.000 OA
ATOM     20  O   UNL     1       7.667   5.588  13.137  0.00  0.00    +0.000 OA
BRANCH  18  21
ATOM     21  C   UNL     1       5.535   4.094  13.655  0.00  0.00    +0.000 C 
BRANCH  21  23
ATOM     22  C   UNL     1       6.492   2.514  11.930  0.00  0.00    +0.000 C 
ATOM     23  C   UNL     1       5.577   3.719  12.157  0.00  0.00    +0.000 C 
ATOM     24  C   UNL     1       4.194   3.409  11.578  0.00  0.00    +0.000 C 
ENDBRANCH  21  23
ENDBRANCH  18  21
ENDBRANCH   1  18
TORSDOF 5
ENDMDL
MODEL 3
REMARK VINA RESULT:      -6.6      1.159      1.804
REMARK  Name = 
REMARK  7 active torsions:
REMARK  status: ('A' for Active; 'I' for Inactive)
REMARK    1  A    between atoms: C_1  and  C_2
REMARK    2  A    between atoms: C_2  and  C_3
REMARK    3  A    between atoms: C_2  and  C_4
REMARK    4  A    between atoms: C_4  and  S_5
REMARK    5  A    between atoms: S_5  and  N_8
REMARK    6  A    between atoms: C_11  and  C_12
REMARK    7  A    between atoms: N_14  and  C_15
REMARK                            x       y       z     vdW  Elec       q    Type
REMARK                         _______ _______ _______ _____ _____    ______ ____
ROOT
ATOM      1  N   UNL     1       7.153   5.544  15.784  0.00  0.00    +0.000 NA
ATOM      2  C   UNL     1       6.171   6.423  16.501  0.00  0.00    +0.000 C 
ATOM      3  C   UNL     1       6.476   6.500  17.997  0.00  0.00    +0.000 C 
ATOM      4  C   UNL     1       6.572   5.119  18.656  0.00  0.00    +0.000 C 
ATOM      5  C   UNL     1       7.598   4.284  17.881  0.00  0.00    +0.000 C 
ATOM      6  C   UNL     1       7.232   4.185  16.402  0.00  0.00    +0.000 C 
ENDROOT
BRANCH   4   7
ATOM      7  C   UNL     1       5.208   4.420  18.747  0.00  0.00    +0.000 C 
ATOM      8  O   UNL     1       4.186   4.889  18.257  0.00  0.00    +0.000 OA
ATOM      9  N   UNL     1       5.226   3.216  19.424  0.00  0.00    +0.000 N 
ATOM     10  H   UNL     1       6.020   3.009  20.016  0.00  0.00    +0.000 HD
BRANCH   9  11
ATOM     11  C   UNL     1       4.044   2.352  19.524  0.00  0.00    +0.000 C 
ATOM     12  C   UNL     1       3.273   2.649  20.818  0.00  0.00    +0.000 C 
ATOM     13  C   UNL     1       2.473   3.950  20.844  0.00  0.00    +0.000 C 
ATOM     14  C   UNL     1       1.079   3.840  20.234  0.00  0.00    +0.000 C 
ATOM     15  C   UNL     1       1.035   3.522  18.745  0.00  0.00    +0.000 C 
ATOM     16  C   UNL     1       1.719   2.216  18.348  0.00  0.00    +0.000 C 
ATOM     17  C   UNL     1       3.235   2.353  18.217  0.00  0.00    +0.000 C 
ENDBRANCH   9  11
ENDBRANCH   4   7
BRANCH   1  18
ATOM     18  S   UNL     1       6.823   5.499  14.082  0.00  0.00    +0.000 S 
ATOM     19  O   UNL     1       8.063   5.757  13.391  0.00  0.00    +0.000 OA
ATOM     20  O   UNL     1       5.650   6.314  13.852  0.00  0.00    +0.000 OA
BRANCH  18  21
ATOM     21  C   UNL     1       6.415   3.773  13.797  0.00  0.00    +0.000 C 
BRANCH  21  23
ATOM     22  C   UNL     1       6.815   2.226  11.838  0.00  0.00    +0.000 C 
ATOM     23  C   UNL     1       6.087   3.485  12.316  0.00  0.00    +0.000 C 
ATOM     24  C   UNL     1       4.587   3.320  12.055  0.00  0.00    +0.000 C 
ENDBRANCH  21  23
ENDBRANCH  18  21
ENDBRANCH   1  18
TORSDOF 5
ENDMDL
MODEL 4
REMARK VINA RESULT:      -6.6      1.079      1.266
REMARK  Name = 
REMARK  7 active torsions:
REMARK  status: ('A' for Active; 'I' for Inactive)
REMARK    1  A    between atoms: C_1  and  C_2
REMARK    2  A    between atoms: C_2  and  C_3
REMARK    3  A    between atoms: C_2  and  C_4
REMARK    4  A    between atoms: C_4  and  S_5
REMARK    5  A    between atoms: S_5  and  N_8
REMARK    6  A    between atoms: C_11  and  C_12
REMARK    7  A    between atoms: N_14  and  C_15
REMARK                            x       y       z     vdW  Elec       q    Type
REMARK                         _______ _______ _______ _____ _____    ______ ____
ROOT
ATOM      1  N   UNL     1       7.206   5.642  16.073  0.00  0.00    +0.000 NA
ATOM      2  C   UNL     1       6.330   6.651  16.756  0.00  0.00    +0.000 C 
ATOM      3  C   UNL     1       6.715   6.825  18.225  0.00  0.00    +0.000 C 
ATOM      4  C   UNL     1       6.740   5.498  18.995  0.00  0.00    +0.000 C 
ATOM      5  C   UNL     1       7.660   4.525  18.248  0.00  0.00    +0.000 C 
ATOM      6  C   UNL     1       7.214   4.336  16.801  0.00  0.00    +0.000 C 
ENDROOT
BRANCH   4   7
ATOM      7  C   UNL     1       5.333   4.920  19.204  0.00  0.00    +0.000 C 
ATOM      8  O   UNL     1       5.134   3.744  19.492  0.00  0.00    +0.000 OA
ATOM      9  N   UNL     1       4.310   5.834  19.047  0.00  0.00    +0.000 N 
ATOM     10  H   UNL     1       4.510   6.702  18.568  0.00  0.00    +0.000 HD
BRANCH   9  11
ATOM     11  C   UNL     1       2.906   5.496  19.309  0.00  0.00    +0.000 C 
ATOM     12  C   UNL     1       2.218   5.029  18.018  0.00  0.00    +0.000 C 
ATOM     13  C   UNL     1       2.587   3.633  17.523  0.00  0.00    +0.000 C 
ATOM     14  C   UNL     1       1.780   2.508  18.164  0.00  0.00    +0.000 C 
ATOM     15  C   UNL     1       1.977   2.326  19.663  0.00  0.00    +0.000 C 
ATOM     16  C   UNL     1       1.640   3.553  20.507  0.00  0.00    +0.000 C 
ATOM     17  C   UNL     1       2.768   4.583  20.539  0.00  0.00    +0.000 C 
ENDBRANCH   9  11
ENDBRANCH   4   7
BRANCH   1  18
ATOM     18  S   UNL     1       6.788   5.485  14.398  0.00  0.00    +0.000 S 
ATOM     19  O   UNL     1       7.994   5.674  13.629  0.00  0.00    +0.000 OA
ATOM     20  O   UNL     1       5.616   6.302  14.171  0.00  0.00    +0.000 OA
BRANCH  18  21
ATOM     21  C   UNL     1       6.342   3.750  14.256  0.00  0.00    +0.000 C 
BRANCH  21  23
ATOM     22  C   UNL     1       4.747   3.545  12.305  0.00  0.00    +0.000 C 
ATOM     23  C   UNL     1       6.181   3.306  12.785  0.00  0.00    +0.000 C 
ATOM     24  C   UNL     1       7.148   4.017  11.834  0.00  0.00    +0.000 C 
ENDBRANCH  21  23
ENDBRANCH  18  21
ENDBRANCH   1  18
TORSDOF 5
ENDMDL
MODEL 5
REMARK VINA RESULT:      -6.5      3.230      4.412
REMARK  Name = 
REMARK  7 active torsions:
REMARK  status: ('A' for Active; 'I' for Inactive)
REMARK    1  A    between atoms: C_1  and  C_2
REMARK    2  A    between atoms: C_2  and  C_3
REMARK    3  A    between atoms: C_2  and  C_4
REMARK    4  A    between atoms: C_4  and  S_5
REMARK    5  A    between atoms: S_5  and  N_8
REMARK    6  A    between atoms: C_11  and  C_12
REMARK    7  A    between atoms: N_14  and  C_15
REMARK                            x       y       z     vdW  Elec       q    Type
REMARK                         _______ _______ _______ _____ _____    ______ ____
ROOT
ATOM      1  N   UNL     1       5.075   4.298  17.731  0.00  0.00    +0.000 NA
ATOM      2  C   UNL     1       4.956   3.896  19.172  0.00  0.00    +0.000 C 
ATOM      3  C   UNL     1       3.586   3.288  19.473  0.00  0.00    +0.000 C 
ATOM      4  C   UNL     1       2.426   4.199  19.052  0.00  0.00    +0.000 C 
ATOM      5  C   UNL     1       2.607   4.557  17.571  0.00  0.00    +0.000 C 
ATOM      6  C   UNL     1       3.963   5.209  17.318  0.00  0.00    +0.000 C 
ENDROOT
BRANCH   4   7
ATOM      7  C   UNL     1       2.312   5.446  19.939  0.00  0.00    +0.000 C 
ATOM      8  O   UNL     1       2.448   5.411  21.158  0.00  0.00    +0.000 OA
ATOM      9  N   UNL     1       2.048   6.615  19.251  0.00  0.00    +0.000 N 
ATOM     10  H   UNL     1       1.697   6.547  18.305  0.00  0.00    +0.000 HD
BRANCH   9  11
ATOM     11  C   UNL     1       2.008   7.924  19.912  0.00  0.00    +0.000 C 
ATOM     12  C   UNL     1       2.220   9.048  18.888  0.00  0.00    +0.000 C 
ATOM     13  C   UNL     1       1.044   9.346  17.960  0.00  0.00    +0.000 C 
ATOM     14  C   UNL     1       0.010  10.302  18.548  0.00  0.00    +0.000 C 
ATOM     15  C   UNL     1      -0.733   9.795  19.776  0.00  0.00    +0.000 C 
ATOM     16  C   UNL     1       0.159   9.437  20.962  0.00  0.00    +0.000 C 
ATOM     17  C   UNL     1       0.787   8.050  20.839  0.00  0.00    +0.000 C 
ENDBRANCH   9  11
ENDBRANCH   4   7
BRANCH   1  18
ATOM     18  S   UNL     1       6.647   4.945  17.391  0.00  0.00    +0.000 S 
ATOM     19  O   UNL     1       7.551   4.446  18.399  0.00  0.00    +0.000 OA
ATOM     20  O   UNL     1       6.485   6.365  17.164  0.00  0.00    +0.000 OA
BRANCH  18  21
ATOM     21  C   UNL     1       7.089   4.141  15.846  0.00  0.00    +0.000 C 
BRANCH  21  23
ATOM     22  C   UNL     1       7.583   5.133  13.574  0.00  0.00    +0.000 C 
ATOM     23  C   UNL     1       6.495   4.865  14.618  0.00  0.00    +0.000 C 
ATOM     24  C   UNL     1       5.353   4.088  13.957  0.00  0.00    +0.000 C 
ENDBRANCH  21  23
ENDBRANCH  18  21
ENDBRANCH   1  18
TORSDOF 5
ENDMDL
MODEL 6
REMARK VINA RESULT:      -6.5      3.202      5.257
REMARK  Name = 
REMARK  7 active torsions:
REMARK  status: ('A' for Active; 'I' for Inactive)
REMARK    1  A    between atoms: C_1  and  C_2
REMARK    2  A    between atoms: C_2  and  C_3
REMARK    3  A    between atoms: C_2  and  C_4
REMARK    4  A    between atoms: C_4  and  S_5
REMARK    5  A    between atoms: S_5  and  N_8
REMARK    6  A    between atoms: C_11  and  C_12
REMARK    7  A    between atoms: N_14  and  C_15
REMARK                            x       y       z     vdW  Elec       q    Type
REMARK                         _______ _______ _______ _____ _____    ______ ____
ROOT
ATOM      1  N   UNL     1       4.263   4.200  17.304  0.00  0.00    +0.000 NA
ATOM      2  C   UNL     1       4.555   3.858  18.735  0.00  0.00    +0.000 C 
ATOM      3  C   UNL     1       3.342   3.227  19.420  0.00  0.00    +0.000 C 
ATOM      4  C   UNL     1       2.078   4.087  19.300  0.00  0.00    +0.000 C 
ATOM      5  C   UNL     1       1.836   4.385  17.816  0.00  0.00    +0.000 C 
ATOM      6  C   UNL     1       3.047   5.062  17.179  0.00  0.00    +0.000 C 
ENDROOT
BRANCH   4   7
ATOM      7  C   UNL     1       2.162   5.368  20.142  0.00  0.00    +0.000 C 
ATOM      8  O   UNL     1       2.532   5.373  21.311  0.00  0.00    +0.000 OA
ATOM      9  N   UNL     1       1.791   6.518  19.471  0.00  0.00    +0.000 N 
ATOM     10  H   UNL     1       1.261   6.425  18.615  0.00  0.00    +0.000 HD
BRANCH   9  11
ATOM     11  C   UNL     1       1.905   7.851  20.074  0.00  0.00    +0.000 C 
ATOM     12  C   UNL     1       2.224   8.899  18.998  0.00  0.00    +0.000 C 
ATOM     13  C   UNL     1       1.075   9.285  18.070  0.00  0.00    +0.000 C 
ATOM     14  C   UNL     1       0.161  10.374  18.624  0.00  0.00    +0.000 C 
ATOM     15  C   UNL     1      -0.616  10.005  19.881  0.00  0.00    +0.000 C 
ATOM     16  C   UNL     1       0.248   9.602  21.074  0.00  0.00    +0.000 C 
ATOM     17  C   UNL     1       0.718   8.150  21.005  0.00  0.00    +0.000 C 
ENDBRANCH   9  11
ENDBRANCH   4   7
BRANCH   1  18
ATOM     18  S   UNL     1       5.657   4.875  16.526  0.00  0.00    +0.000 S 
ATOM     19  O   UNL     1       5.268   5.257  15.190  0.00  0.00    +0.000 OA
ATOM     20  O   UNL     1       6.758   3.964  16.757  0.00  0.00    +0.000 OA
BRANCH  18  21
ATOM     21  C   UNL     1       5.936   6.393  17.445  0.00  0.00    +0.000 C 
BRANCH  21  23
ATOM     22  C   UNL     1       7.757   8.140  17.604  0.00  0.00    +0.000 C 
ATOM     23  C   UNL     1       7.435   6.647  17.716  0.00  0.00    +0.000 C 
ATOM     24  C   UNL     1       7.892   6.142  19.087  0.00  0.00    +0.000 C 
ENDBRANCH  21  23
ENDBRANCH  18  21
ENDBRANCH   1  18
TORSDOF 5
ENDMDL
MODEL 7
REMARK VINA RESULT:      -6.4      1.961      7.103
REMARK  Name = 
REMARK  7 active torsions:
REMARK  status: ('A' for Active; 'I' for Inactive)
REMARK    1  A    between atoms: C_1  and  C_2
REMARK    2  A    between atoms: C_2  and  C_3
REMARK    3  A    between atoms: C_2  and  C_4
REMARK    4  A    between atoms: C_4  and  S_5
REMARK    5  A    between atoms: S_5  and  N_8
REMARK    6  A    between atoms: C_11  and  C_12
REMARK    7  A    between atoms: N_14  and  C_15
REMARK                            x       y       z     vdW  Elec       q    Type
REMARK                         _______ _______ _______ _____ _____    ______ ____
ROOT
ATOM      1  N   UNL     1       4.680   5.399  18.423  0.00  0.00    +0.000 NA
ATOM      2  C   UNL     1       5.003   4.158  17.643  0.00  0.00    +0.000 C 
ATOM      3  C   UNL     1       6.458   4.154  17.175  0.00  0.00    +0.000 C 
ATOM      4  C   UNL     1       6.834   5.417  16.390  0.00  0.00    +0.000 C 
ATOM      5  C   UNL     1       6.488   6.639  17.250  0.00  0.00    +0.000 C 
ATOM      6  C   UNL     1       5.016   6.637  17.654  0.00  0.00    +0.000 C 
ENDROOT
BRANCH   4   7
ATOM      7  C   UNL     1       6.160   5.469  15.012  0.00  0.00    +0.000 C 
ATOM      8  O   UNL     1       5.389   6.364  14.681  0.00  0.00    +0.000 OA
ATOM      9  N   UNL     1       6.497   4.426  14.171  0.00  0.00    +0.000 N 
ATOM     10  H   UNL     1       6.920   3.601  14.574  0.00  0.00    +0.000 HD
BRANCH   9  11
ATOM     11  C   UNL     1       6.038   4.359  12.779  0.00  0.00    +0.000 C 
ATOM     12  C   UNL     1       7.228   4.138  11.833  0.00  0.00    +0.000 C 
ATOM     13  C   UNL     1       7.834   2.737  11.827  0.00  0.00    +0.000 C 
ATOM     14  C   UNL     1       7.127   1.753  10.900  0.00  0.00    +0.000 C 
ATOM     15  C   UNL     1       5.685   1.424  11.263  0.00  0.00    +0.000 C 
ATOM     16  C   UNL     1       4.746   2.628  11.314  0.00  0.00    +0.000 C 
ATOM     17  C   UNL     1       4.842   3.404  12.626  0.00  0.00    +0.000 C 
ENDBRANCH   9  11
ENDBRANCH   4   7
BRANCH   1  18
ATOM     18  S   UNL     1       3.040   5.373  18.986  0.00  0.00    +0.000 S 
ATOM     19  O   UNL     1       2.195   5.085  17.852  0.00  0.00    +0.000 OA
ATOM     20  O   UNL     1       2.844   6.561  19.788  0.00  0.00    +0.000 OA
BRANCH  18  21
ATOM     21  C   UNL     1       3.002   3.924  20.047  0.00  0.00    +0.000 C 
BRANCH  21  23
ATOM     22  C   UNL     1       1.319   2.270  19.140  0.00  0.00    +0.000 C 
ATOM     23  C   UNL     1       1.578   3.345  20.198  0.00  0.00    +0.000 C 
ATOM     24  C   UNL     1       1.316   2.750  21.585  0.00  0.00    +0.000 C 
ENDBRANCH  21  23
ENDBRANCH  18  21
ENDBRANCH   1  18
TORSDOF 5
ENDMDL
MODEL 8
REMARK VINA RESULT:      -6.4      1.139      1.626
REMARK  Name = 
REMARK  7 active torsions:
REMARK  status: ('A' for Active; 'I' for Inactive)
REMARK    1  A    between atoms: C_1  and  C_2
REMARK    2  A    between atoms: C_2  and  C_3
REMARK    3  A    between atoms: C_2  and  C_4
REMARK    4  A    between atoms: C_4  and  S_5
REMARK    5  A    between atoms: S_5  and  N_8
REMARK    6  A    between atoms: C_11  and  C_12
REMARK    7  A    between atoms: N_14  and  C_15
REMARK                            x       y       z     vdW  Elec       q    Type
REMARK                         _______ _______ _______ _____ _____    ______ ____
ROOT
ATOM      1  N   UNL     1       7.291   5.526  15.716  0.00  0.00    +0.000 NA
ATOM      2  C   UNL     1       6.535   6.579  16.471  0.00  0.00    +0.000 C 
ATOM      3  C   UNL     1       6.961   6.632  17.938  0.00  0.00    +0.000 C 
ATOM      4  C   UNL     1       6.863   5.269  18.635  0.00  0.00    +0.000 C 
ATOM      5  C   UNL     1       7.666   4.250  17.817  0.00  0.00    +0.000 C 
ATOM      6  C   UNL     1       7.178   4.187  16.372  0.00  0.00    +0.000 C 
ENDROOT
BRANCH   4   7
ATOM      7  C   UNL     1       5.409   4.825  18.846  0.00  0.00    +0.000 C 
ATOM      8  O   UNL     1       4.599   5.483  19.491  0.00  0.00    +0.000 OA
ATOM      9  N   UNL     1       5.085   3.624  18.244  0.00  0.00    +0.000 N 
ATOM     10  H   UNL     1       5.837   3.014  17.954  0.00  0.00    +0.000 HD
BRANCH   9  11
ATOM     11  C   UNL     1       3.719   3.088  18.245  0.00  0.00    +0.000 C 
ATOM     12  C   UNL     1       3.550   2.054  19.367  0.00  0.00    +0.000 C 
ATOM     13  C   UNL     1       3.463   2.608  20.788  0.00  0.00    +0.000 C 
ATOM     14  C   UNL     1       2.060   3.043  21.204  0.00  0.00    +0.000 C 
ATOM     15  C   UNL     1       1.472   4.208  20.420  0.00  0.00    +0.000 C 
ATOM     16  C   UNL     1       1.358   3.976  18.915  0.00  0.00    +0.000 C 
ATOM     17  C   UNL     1       2.673   4.213  18.174  0.00  0.00    +0.000 C 
ENDBRANCH   9  11
ENDBRANCH   4   7
BRANCH   1  18
ATOM     18  S   UNL     1       6.830   5.505  14.044  0.00  0.00    +0.000 S 
ATOM     19  O   UNL     1       8.010   5.789  13.264  0.00  0.00    +0.000 OA
ATOM     20  O   UNL     1       5.635   6.311  13.920  0.00  0.00    +0.000 OA
BRANCH  18  21
ATOM     21  C   UNL     1       6.418   3.779  13.762  0.00  0.00    +0.000 C 
BRANCH  21  23
ATOM     22  C   UNL     1       6.835   2.236  11.804  0.00  0.00    +0.000 C 
ATOM     23  C   UNL     1       6.096   3.489  12.280  0.00  0.00    +0.000 C 
ATOM     24  C   UNL     1       4.598   3.313  12.015  0.00  0.00    +0.000 C 
ENDBRANCH  21  23
ENDBRANCH  18  21
ENDBRANCH   1  18
TORSDOF 5
ENDMDL
MODEL 9
REMARK VINA RESULT:      -6.3      2.958      5.050
REMARK  Name = 
REMARK  7 active torsions:
REMARK  status: ('A' for Active; 'I' for Inactive)
REMARK    1  A    between atoms: C_1  and  C_2
REMARK    2  A    between atoms: C_2  and  C_3
REMARK    3  A    between atoms: C_2  and  C_4
REMARK    4  A    between atoms: C_4  and  S_5
REMARK    5  A    between atoms: S_5  and  N_8
REMARK    6  A    between atoms: C_11  and  C_12
REMARK    7  A    between atoms: N_14  and  C_15
REMARK                            x       y       z     vdW  Elec       q    Type
REMARK                         _______ _______ _______ _____ _____    ______ ____
ROOT
ATOM      1  N   UNL     1       4.214   3.765  17.147  0.00  0.00    +0.000 NA
ATOM      2  C   UNL     1       4.611   3.473  18.565  0.00  0.00    +0.000 C 
ATOM      3  C   UNL     1       3.464   2.834  19.348  0.00  0.00    +0.000 C 
ATOM      4  C   UNL     1       2.173   3.660  19.291  0.00  0.00    +0.000 C 
ATOM      5  C   UNL     1       1.824   3.907  17.818  0.00  0.00    +0.000 C 
ATOM      6  C   UNL     1       2.971   4.593  17.081  0.00  0.00    +0.000 C 
ENDROOT
BRANCH   4   7
ATOM      7  C   UNL     1       2.281   4.967  20.088  0.00  0.00    +0.000 C 
ATOM      8  O   UNL     1       2.569   4.999  21.279  0.00  0.00    +0.000 OA
ATOM      9  N   UNL     1       2.030   6.108  19.350  0.00  0.00    +0.000 N 
ATOM     10  H   UNL     1       1.556   6.012  18.462  0.00  0.00    +0.000 HD
BRANCH   9  11
ATOM     11  C   UNL     1       2.187   7.456  19.909  0.00  0.00    +0.000 C 
ATOM     12  C   UNL     1       2.525   8.461  18.798  0.00  0.00    +0.000 C 
ATOM     13  C   UNL     1       1.378   8.849  17.868  0.00  0.00    +0.000 C 
ATOM     14  C   UNL     1       0.501   9.980  18.396  0.00  0.00    +0.000 C 
ATOM     15  C   UNL     1      -0.274   9.674  19.670  0.00  0.00    +0.000 C 
ATOM     16  C   UNL     1       0.590   9.284  20.868  0.00  0.00    +0.000 C 
ATOM     17  C   UNL     1       1.018   7.818  20.841  0.00  0.00    +0.000 C 
ENDBRANCH   9  11
ENDBRANCH   4   7
BRANCH   1  18
ATOM     18  S   UNL     1       5.535   4.449  16.257  0.00  0.00    +0.000 S 
ATOM     19  O   UNL     1       5.173   5.802  15.911  0.00  0.00    +0.000 OA
ATOM     20  O   UNL     1       5.910   3.488  15.242  0.00  0.00    +0.000 OA
BRANCH  18  21
ATOM     21  C   UNL     1       6.839   4.555  17.489  0.00  0.00    +0.000 C 
BRANCH  21  23
ATOM     22  C   UNL     1       7.523   5.814  19.571  0.00  0.00    +0.000 C 
ATOM     23  C   UNL     1       6.871   5.930  18.191  0.00  0.00    +0.000 C 
ATOM     24  C   UNL     1       7.608   7.000  17.381  0.00  0.00    +0.000 C 
ENDBRANCH  21  23
ENDBRANCH  18  21
ENDBRANCH   1  18
TORSDOF 5
ENDMDL
