MODEL 1
REMARK VINA RESULT:      -8.3      0.000      0.000
REMARK  Name = 
REMARK  4 active torsions:
REMARK  status: ('A' for Active; 'I' for Inactive)
REMARK    1  A    between atoms: C_2  and  C_19
REMARK    2  A    between atoms: N_3  and  C_4
REMARK    3  A    between atoms: C_8  and  S_9
REMARK    4  A    between atoms: S_9  and  N_12
REMARK                            x       y       z     vdW  Elec       q    Type
REMARK                         _______ _______ _______ _____ _____    ______ ____
ROOT
ATOM      1  C   UNL     1       3.063   5.820  19.502  0.00  0.00    +0.000 A 
ATOM      2  C   UNL     1       2.944   4.463  19.820  0.00  0.00    +0.000 A 
ATOM      3  C   UNL     1       3.725   3.505  19.179  0.00  0.00    +0.000 A 
ATOM      4  C   UNL     1       4.654   3.890  18.216  0.00  0.00    +0.000 A 
ATOM      5  C   UNL     1       4.781   5.241  17.886  0.00  0.00    +0.000 A 
ATOM      6  C   UNL     1       3.951   6.203  18.489  0.00  0.00    +0.000 A 
ENDROOT
BRANCH   1   9
ATOM      7  O   UNL     1       1.988   8.351  18.435  0.00  0.00    +0.000 OA
ATOM      8  C   UNL     1       1.870   8.000  19.609  0.00  0.00    +0.000 C 
ATOM      9  N   UNL     1       2.318   6.813  20.170  0.00  0.00    +0.000 N 
ATOM     10  H   UNL     1       1.956   6.565  21.084  0.00  0.00    +0.000 HD
BRANCH   8  11
ATOM     11  C   UNL     1       1.122   8.897  20.520  0.00  0.00    +0.000 A 
ATOM     12  C   UNL     1       0.643  10.115  20.017  0.00  0.00    +0.000 A 
ATOM     13  C   UNL     1      -0.042  10.992  20.853  0.00  0.00    +0.000 A 
ATOM     14  C   UNL     1      -0.243  10.660  22.193  0.00  0.00    +0.000 A 
ATOM     15  C   UNL     1       0.244   9.455  22.701  0.00  0.00    +0.000 A 
ATOM     16  C   UNL     1       0.932   8.572  21.869  0.00  0.00    +0.000 A 
ENDBRANCH   8  11
ENDBRANCH   1   9
BRANCH   5  17
ATOM     17  S   UNL     1       5.935   5.711  16.618  0.00  0.00    +0.000 S 
ATOM     18  O   UNL     1       5.356   6.818  15.881  0.00  0.00    +0.000 OA
ATOM     19  O   UNL     1       7.255   5.839  17.201  0.00  0.00    +0.000 OA
BRANCH  17  20
ATOM     20  N   UNL     1       5.962   4.434  15.531  0.00  0.00    +0.000 N 
ATOM     21  C   UNL     1       6.537   4.534  14.270  0.00  0.00    +0.000 C 
ATOM     22  N   UNL     1       7.527   5.320  14.027  0.00  0.00    +0.000 NA
ATOM     23  C   UNL     1       7.794   5.210  12.589  0.00  0.00    +0.000 C 
ATOM     24  C   UNL     1       7.116   3.930  12.133  0.00  0.00    +0.000 C 
ATOM     25  C   UNL     1       5.994   3.737  13.128  0.00  0.00    +0.000 C 
ATOM     26  H   UNL     1       5.233   3.757  15.734  0.00  0.00    +0.000 HD
ENDBRANCH  17  20
ENDBRANCH   5  17
TORSDOF 4
ENDMDL
MODEL 2
REMARK VINA RESULT:      -8.3      0.178      1.005
REMARK  Name = 
REMARK  4 active torsions:
REMARK  status: ('A' for Active; 'I' for Inactive)
REMARK    1  A    between atoms: C_2  and  C_19
REMARK    2  A    between atoms: N_3  and  C_4
REMARK    3  A    between atoms: C_8  and  S_9
REMARK    4  A    between atoms: S_9  and  N_12
REMARK                            x       y       z     vdW  Elec       q    Type
REMARK                         _______ _______ _______ _____ _____    ______ ____
ROOT
ATOM      1  C   UNL     1       2.922   5.874  19.359  0.00  0.00    +0.000 A 
ATOM      2  C   UNL     1       2.652   4.519  19.577  0.00  0.00    +0.000 A 
ATOM      3  C   UNL     1       3.368   3.530  18.908  0.00  0.00    +0.000 A 
ATOM      4  C   UNL     1       4.380   3.878  18.017  0.00  0.00    +0.000 A 
ATOM      5  C   UNL     1       4.657   5.229  17.788  0.00  0.00    +0.000 A 
ATOM      6  C   UNL     1       3.896   6.229  18.418  0.00  0.00    +0.000 A 
ENDROOT
BRANCH   1   9
ATOM      7  O   UNL     1       1.778   8.385  18.315  0.00  0.00    +0.000 OA
ATOM      8  C   UNL     1       1.759   8.069  19.505  0.00  0.00    +0.000 C 
ATOM      9  N   UNL     1       2.244   6.894  20.059  0.00  0.00    +0.000 N 
ATOM     10  H   UNL     1       1.960   6.675  21.008  0.00  0.00    +0.000 HD
BRANCH   8  11
ATOM     11  C   UNL     1       1.098   8.998  20.450  0.00  0.00    +0.000 A 
ATOM     12  C   UNL     1       0.920   8.588  21.779  0.00  0.00    +0.000 A 
ATOM     13  C   UNL     1       0.281   9.428  22.686  0.00  0.00    +0.000 A 
ATOM     14  C   UNL     1      -0.190  10.673  22.268  0.00  0.00    +0.000 A 
ATOM     15  C   UNL     1      -0.027  11.079  20.943  0.00  0.00    +0.000 A 
ATOM     16  C   UNL     1       0.613  10.242  20.028  0.00  0.00    +0.000 A 
ENDBRANCH   8  11
ENDBRANCH   1   9
BRANCH   5  17
ATOM     17  S   UNL     1       5.918   5.658  16.611  0.00  0.00    +0.000 S 
ATOM     18  O   UNL     1       5.443   6.800  15.852  0.00  0.00    +0.000 OA
ATOM     19  O   UNL     1       7.198   5.717  17.286  0.00  0.00    +0.000 OA
BRANCH  17  20
ATOM     20  N   UNL     1       5.961   4.395  15.509  0.00  0.00    +0.000 N 
ATOM     21  C   UNL     1       6.547   4.513  14.254  0.00  0.00    +0.000 C 
ATOM     22  N   UNL     1       7.534   5.307  14.029  0.00  0.00    +0.000 NA
ATOM     23  C   UNL     1       7.814   5.216  12.592  0.00  0.00    +0.000 C 
ATOM     24  C   UNL     1       7.147   3.938  12.115  0.00  0.00    +0.000 C 
ATOM     25  C   UNL     1       6.018   3.727  13.098  0.00  0.00    +0.000 C 
ATOM     26  H   UNL     1       5.235   3.711  15.697  0.00  0.00    +0.000 HD
ENDBRANCH  17  20
ENDBRANCH   5  17
TORSDOF 4
ENDMDL
MODEL 3
REMARK VINA RESULT:      -8.3      1.144      1.597
REMARK  Name = 
REMARK  4 active torsions:
REMARK  status: ('A' for Active; 'I' for Inactive)
REMARK    1  A    between atoms: C_2  and  C_19
REMARK    2  A    between atoms: N_3  and  C_4
REMARK    3  A    between atoms: C_8  and  S_9
REMARK    4  A    between atoms: S_9  and  N_12
REMARK                            x       y       z     vdW  Elec       q    Type
REMARK                         _______ _______ _______ _____ _____    ______ ____
ROOT
ATOM      1  C   UNL     1       2.204   5.756  20.245  0.00  0.00    +0.000 A 
ATOM      2  C   UNL     1       1.684   4.466  20.397  0.00  0.00    +0.000 A 
ATOM      3  C   UNL     1       2.340   3.362  19.862  0.00  0.00    +0.000 A 
ATOM      4  C   UNL     1       3.540   3.524  19.175  0.00  0.00    +0.000 A 
ATOM      5  C   UNL     1       4.069   4.808  19.013  0.00  0.00    +0.000 A 
ATOM      6  C   UNL     1       3.378   5.930  19.501  0.00  0.00    +0.000 A 
ENDROOT
BRANCH   1   9
ATOM      7  O   UNL     1       1.829   8.443  19.087  0.00  0.00    +0.000 OA
ATOM      8  C   UNL     1       1.471   8.134  20.224  0.00  0.00    +0.000 C 
ATOM      9  N   UNL     1       1.584   6.885  20.818  0.00  0.00    +0.000 N 
ATOM     10  H   UNL     1       1.049   6.723  21.665  0.00  0.00    +0.000 HD
BRANCH   8  11
ATOM     11  C   UNL     1       0.793   9.171  21.035  0.00  0.00    +0.000 A 
ATOM     12  C   UNL     1       0.191   8.790  22.243  0.00  0.00    +0.000 A 
ATOM     13  C   UNL     1      -0.476   9.735  23.017  0.00  0.00    +0.000 A 
ATOM     14  C   UNL     1      -0.551  11.059  22.583  0.00  0.00    +0.000 A 
ATOM     15  C   UNL     1       0.035  11.439  21.375  0.00  0.00    +0.000 A 
ATOM     16  C   UNL     1       0.705  10.497  20.594  0.00  0.00    +0.000 A 
ENDBRANCH   8  11
ENDBRANCH   1   9
BRANCH   5  17
ATOM     17  S   UNL     1       5.576   5.004  18.091  0.00  0.00    +0.000 S 
ATOM     18  O   UNL     1       5.584   6.346  17.538  0.00  0.00    +0.000 OA
ATOM     19  O   UNL     1       6.689   4.545  18.896  0.00  0.00    +0.000 OA
BRANCH  17  20
ATOM     20  N   UNL     1       5.433   3.991  16.763  0.00  0.00    +0.000 N 
ATOM     21  C   UNL     1       6.046   4.258  15.545  0.00  0.00    +0.000 C 
ATOM     22  N   UNL     1       7.150   4.915  15.461  0.00  0.00    +0.000 NA
ATOM     23  C   UNL     1       7.430   5.064  14.029  0.00  0.00    +0.000 C 
ATOM     24  C   UNL     1       6.576   4.025  13.323  0.00  0.00    +0.000 C 
ATOM     25  C   UNL     1       5.415   3.807  14.267  0.00  0.00    +0.000 C 
ATOM     26  H   UNL     1       4.605   3.407  16.827  0.00  0.00    +0.000 HD
ENDBRANCH  17  20
ENDBRANCH   5  17
TORSDOF 4
ENDMDL
MODEL 4
REMARK VINA RESULT:      -8.2      1.277      1.501
REMARK  Name = 
REMARK  4 active torsions:
REMARK  status: ('A' for Active; 'I' for Inactive)
REMARK    1  A    between atoms: C_2  and  C_19
REMARK    2  A    between atoms: N_3  and  C_4
REMARK    3  A    between atoms: C_8  and  S_9
REMARK    4  A    between atoms: S_9  and  N_12
REMARK                            x       y       z     vdW  Elec       q    Type
REMARK                         _______ _______ _______ _____ _____    ______ ____
ROOT
ATOM      1  C   UNL     1       2.057   5.739  20.465  0.00  0.00    +0.000 A 
ATOM      2  C   UNL     1       1.580   4.440  20.669  0.00  0.00    +0.000 A 
ATOM      3  C   UNL     1       2.278   3.337  20.186  0.00  0.00    +0.000 A 
ATOM      4  C   UNL     1       3.479   3.512  19.501  0.00  0.00    +0.000 A 
ATOM      5  C   UNL     1       3.965   4.805  19.290  0.00  0.00    +0.000 A 
ATOM      6  C   UNL     1       3.231   5.922  19.724  0.00  0.00    +0.000 A 
ENDROOT
BRANCH   1   9
ATOM      7  O   UNL     1       1.773   8.423  19.275  0.00  0.00    +0.000 OA
ATOM      8  C   UNL     1       1.328   8.117  20.381  0.00  0.00    +0.000 C 
ATOM      9  N   UNL     1       1.394   6.870  20.986  0.00  0.00    +0.000 N 
ATOM     10  H   UNL     1       0.795   6.710  21.788  0.00  0.00    +0.000 HD
BRANCH   8  11
ATOM     11  C   UNL     1       0.588   9.156  21.133  0.00  0.00    +0.000 A 
ATOM     12  C   UNL     1       0.243  10.344  20.473  0.00  0.00    +0.000 A 
ATOM     13  C   UNL     1      -0.430  11.351  21.159  0.00  0.00    +0.000 A 
ATOM     14  C   UNL     1      -0.752  11.178  22.505  0.00  0.00    +0.000 A 
ATOM     15  C   UNL     1      -0.398  10.004  23.170  0.00  0.00    +0.000 A 
ATOM     16  C   UNL     1       0.276   8.990  22.489  0.00  0.00    +0.000 A 
ENDBRANCH   8  11
ENDBRANCH   1   9
BRANCH   5  17
ATOM     17  S   UNL     1       5.472   5.014  18.371  0.00  0.00    +0.000 S 
ATOM     18  O   UNL     1       5.474   6.359  17.825  0.00  0.00    +0.000 OA
ATOM     19  O   UNL     1       6.587   4.557  19.176  0.00  0.00    +0.000 OA
BRANCH  17  20
ATOM     20  N   UNL     1       5.338   4.006  17.038  0.00  0.00    +0.000 N 
ATOM     21  C   UNL     1       5.976   4.267  15.832  0.00  0.00    +0.000 C 
ATOM     22  N   UNL     1       7.090   4.908  15.768  0.00  0.00    +0.000 NA
ATOM     23  C   UNL     1       7.398   5.056  14.342  0.00  0.00    +0.000 C 
ATOM     24  C   UNL     1       6.540   4.032  13.619  0.00  0.00    +0.000 C 
ATOM     25  C   UNL     1       5.360   3.829  14.542  0.00  0.00    +0.000 C 
ATOM     26  H   UNL     1       4.500   3.434  17.086  0.00  0.00    +0.000 HD
ENDBRANCH  17  20
ENDBRANCH   5  17
TORSDOF 4
ENDMDL
MODEL 5
REMARK VINA RESULT:      -8.1      1.264      1.850
REMARK  Name = 
REMARK  4 active torsions:
REMARK  status: ('A' for Active; 'I' for Inactive)
REMARK    1  A    between atoms: C_2  and  C_19
REMARK    2  A    between atoms: N_3  and  C_4
REMARK    3  A    between atoms: C_8  and  S_9
REMARK    4  A    between atoms: S_9  and  N_12
REMARK                            x       y       z     vdW  Elec       q    Type
REMARK                         _______ _______ _______ _____ _____    ______ ____
ROOT
ATOM      1  C   UNL     1       3.334   5.848  18.229  0.00  0.00    +0.000 A 
ATOM      2  C   UNL     1       2.742   4.652  17.808  0.00  0.00    +0.000 A 
ATOM      3  C   UNL     1       3.487   3.678  17.150  0.00  0.00    +0.000 A 
ATOM      4  C   UNL     1       4.845   3.875  16.913  0.00  0.00    +0.000 A 
ATOM      5  C   UNL     1       5.448   5.066  17.326  0.00  0.00    +0.000 A 
ATOM      6  C   UNL     1       4.685   6.075  17.938  0.00  0.00    +0.000 A 
ENDROOT
BRANCH   1   9
ATOM      7  O   UNL     1       2.428   8.500  17.310  0.00  0.00    +0.000 OA
ATOM      8  C   UNL     1       2.246   8.075  18.451  0.00  0.00    +0.000 C 
ATOM      9  N   UNL     1       2.613   6.830  18.940  0.00  0.00    +0.000 N 
ATOM     10  H   UNL     1       2.203   6.537  19.821  0.00  0.00    +0.000 HD
BRANCH   8  11
ATOM     11  C   UNL     1       1.508   8.943  19.396  0.00  0.00    +0.000 A 
ATOM     12  C   UNL     1       1.287   8.478  20.701  0.00  0.00    +0.000 A 
ATOM     13  C   UNL     1       0.575   9.259  21.607  0.00  0.00    +0.000 A 
ATOM     14  C   UNL     1       0.074  10.499  21.211  0.00  0.00    +0.000 A 
ATOM     15  C   UNL     1       0.279  10.959  19.910  0.00  0.00    +0.000 A 
ATOM     16  C   UNL     1       0.992  10.182  18.997  0.00  0.00    +0.000 A 
ENDBRANCH   8  11
ENDBRANCH   1   9
BRANCH   5  17
ATOM     17  S   UNL     1       7.170   5.323  16.972  0.00  0.00    +0.000 S 
ATOM     18  O   UNL     1       7.622   6.451  17.766  0.00  0.00    +0.000 OA
ATOM     19  O   UNL     1       7.867   4.055  17.053  0.00  0.00    +0.000 OA
BRANCH  17  20
ATOM     20  N   UNL     1       7.234   5.859  15.384  0.00  0.00    +0.000 N 
ATOM     21  C   UNL     1       7.049   5.013  14.298  0.00  0.00    +0.000 C 
ATOM     22  N   UNL     1       6.305   3.964  14.363  0.00  0.00    +0.000 NA
ATOM     23  C   UNL     1       6.427   3.294  13.064  0.00  0.00    +0.000 C 
ATOM     24  C   UNL     1       6.987   4.332  12.107  0.00  0.00    +0.000 C 
ATOM     25  C   UNL     1       7.747   5.282  13.004  0.00  0.00    +0.000 C 
ATOM     26  H   UNL     1       7.760   6.724  15.304  0.00  0.00    +0.000 HD
ENDBRANCH  17  20
ENDBRANCH   5  17
TORSDOF 4
ENDMDL
MODEL 6
REMARK VINA RESULT:      -8.1      1.318      1.630
REMARK  Name = 
REMARK  4 active torsions:
REMARK  status: ('A' for Active; 'I' for Inactive)
REMARK    1  A    between atoms: C_2  and  C_19
REMARK    2  A    between atoms: N_3  and  C_4
REMARK    3  A    between atoms: C_8  and  S_9
REMARK    4  A    between atoms: S_9  and  N_12
REMARK                            x       y       z     vdW  Elec       q    Type
REMARK                         _______ _______ _______ _____ _____    ______ ____
ROOT
ATOM      1  C   UNL     1       3.292   5.822  18.152  0.00  0.00    +0.000 A 
ATOM      2  C   UNL     1       2.735   4.602  17.755  0.00  0.00    +0.000 A 
ATOM      3  C   UNL     1       3.516   3.623  17.148  0.00  0.00    +0.000 A 
ATOM      4  C   UNL     1       4.876   3.839  16.940  0.00  0.00    +0.000 A 
ATOM      5  C   UNL     1       5.444   5.055  17.330  0.00  0.00    +0.000 A 
ATOM      6  C   UNL     1       4.645   6.068  17.888  0.00  0.00    +0.000 A 
ENDROOT
BRANCH   1   9
ATOM      7  O   UNL     1       2.561   8.521  17.212  0.00  0.00    +0.000 OA
ATOM      8  C   UNL     1       2.254   8.077  18.319  0.00  0.00    +0.000 C 
ATOM      9  N   UNL     1       2.533   6.811  18.812  0.00  0.00    +0.000 N 
ATOM     10  H   UNL     1       2.030   6.513  19.641  0.00  0.00    +0.000 HD
BRANCH   8  11
ATOM     11  C   UNL     1       1.452   8.949  19.208  0.00  0.00    +0.000 A 
ATOM     12  C   UNL     1       0.937  10.145  18.688  0.00  0.00    +0.000 A 
ATOM     13  C   UNL     1       0.200  10.999  19.504  0.00  0.00    +0.000 A 
ATOM     14  C   UNL     1      -0.017  10.665  20.840  0.00  0.00    +0.000 A 
ATOM     15  C   UNL     1       0.504   9.482  21.366  0.00  0.00    +0.000 A 
ATOM     16  C   UNL     1       1.244   8.622  20.554  0.00  0.00    +0.000 A 
ENDBRANCH   8  11
ENDBRANCH   1   9
BRANCH   5  17
ATOM     17  S   UNL     1       7.170   5.336  17.012  0.00  0.00    +0.000 S 
ATOM     18  O   UNL     1       7.590   6.467  17.818  0.00  0.00    +0.000 OA
ATOM     19  O   UNL     1       7.881   4.077  17.103  0.00  0.00    +0.000 OA
BRANCH  17  20
ATOM     20  N   UNL     1       7.259   5.878  15.427  0.00  0.00    +0.000 N 
ATOM     21  C   UNL     1       7.066   5.040  14.336  0.00  0.00    +0.000 C 
ATOM     22  N   UNL     1       6.300   4.007  14.389  0.00  0.00    +0.000 NA
ATOM     23  C   UNL     1       6.420   3.340  13.088  0.00  0.00    +0.000 C 
ATOM     24  C   UNL     1       7.010   4.371  12.141  0.00  0.00    +0.000 C 
ATOM     25  C   UNL     1       7.781   5.301  13.049  0.00  0.00    +0.000 C 
ATOM     26  H   UNL     1       7.803   6.732  15.356  0.00  0.00    +0.000 HD
ENDBRANCH  17  20
ENDBRANCH   5  17
TORSDOF 4
ENDMDL
MODEL 7
REMARK VINA RESULT:      -8.1      1.147      1.548
REMARK  Name = 
REMARK  4 active torsions:
REMARK  status: ('A' for Active; 'I' for Inactive)
REMARK    1  A    between atoms: C_2  and  C_19
REMARK    2  A    between atoms: N_3  and  C_4
REMARK    3  A    between atoms: C_8  and  S_9
REMARK    4  A    between atoms: S_9  and  N_12
REMARK                            x       y       z     vdW  Elec       q    Type
REMARK                         _______ _______ _______ _____ _____    ______ ____
ROOT
ATOM      1  C   UNL     1       2.719   6.337  18.261  0.00  0.00    +0.000 A 
ATOM      2  C   UNL     1       1.952   5.171  18.163  0.00  0.00    +0.000 A 
ATOM      3  C   UNL     1       2.506   3.988  17.683  0.00  0.00    +0.000 A 
ATOM      4  C   UNL     1       3.846   3.944  17.306  0.00  0.00    +0.000 A 
ATOM      5  C   UNL     1       4.622   5.102  17.397  0.00  0.00    +0.000 A 
ATOM      6  C   UNL     1       4.049   6.312  17.824  0.00  0.00    +0.000 A 
ENDROOT
BRANCH   1   9
ATOM      7  O   UNL     1       1.518   6.816  20.913  0.00  0.00    +0.000 OA
ATOM      8  C   UNL     1       1.614   7.680  20.040  0.00  0.00    +0.000 C 
ATOM      9  N   UNL     1       2.194   7.535  18.789  0.00  0.00    +0.000 N 
ATOM     10  H   UNL     1       2.399   8.382  18.270  0.00  0.00    +0.000 HD
BRANCH   8  11
ATOM     11  C   UNL     1       1.117   9.037  20.363  0.00  0.00    +0.000 A 
ATOM     12  C   UNL     1       0.630   9.283  21.655  0.00  0.00    +0.000 A 
ATOM     13  C   UNL     1       0.133  10.541  21.984  0.00  0.00    +0.000 A 
ATOM     14  C   UNL     1       0.112  11.552  21.022  0.00  0.00    +0.000 A 
ATOM     15  C   UNL     1       0.582  11.307  19.732  0.00  0.00    +0.000 A 
ATOM     16  C   UNL     1       1.082  10.049  19.395  0.00  0.00    +0.000 A 
ENDBRANCH   8  11
ENDBRANCH   1   9
BRANCH   5  17
ATOM     17  S   UNL     1       6.317   5.042  16.864  0.00  0.00    +0.000 S 
ATOM     18  O   UNL     1       6.645   6.334  16.289  0.00  0.00    +0.000 OA
ATOM     19  O   UNL     1       7.131   4.495  17.930  0.00  0.00    +0.000 OA
BRANCH  17  20
ATOM     20  N   UNL     1       6.351   3.973  15.572  0.00  0.00    +0.000 N 
ATOM     21  C   UNL     1       6.783   4.342  14.304  0.00  0.00    +0.000 C 
ATOM     22  N   UNL     1       7.665   5.261  14.118  0.00  0.00    +0.000 NA
ATOM     23  C   UNL     1       7.792   5.419  12.665  0.00  0.00    +0.000 C 
ATOM     24  C   UNL     1       7.194   4.166  12.052  0.00  0.00    +0.000 C 
ATOM     25  C   UNL     1       6.203   3.690  13.091  0.00  0.00    +0.000 C 
ATOM     26  H   UNL     1       5.714   3.196  15.715  0.00  0.00    +0.000 HD
ENDBRANCH  17  20
ENDBRANCH   5  17
TORSDOF 4
ENDMDL
MODEL 8
REMARK VINA RESULT:      -8.0      1.379      1.663
REMARK  Name = 
REMARK  4 active torsions:
REMARK  status: ('A' for Active; 'I' for Inactive)
REMARK    1  A    between atoms: C_2  and  C_19
REMARK    2  A    between atoms: N_3  and  C_4
REMARK    3  A    between atoms: C_8  and  S_9
REMARK    4  A    between atoms: S_9  and  N_12
REMARK                            x       y       z     vdW  Elec       q    Type
REMARK                         _______ _______ _______ _____ _____    ______ ____
ROOT
ATOM      1  C   UNL     1       3.374   6.097  18.084  0.00  0.00    +0.000 A 
ATOM      2  C   UNL     1       2.749   4.881  17.788  0.00  0.00    +0.000 A 
ATOM      3  C   UNL     1       3.467   3.820  17.244  0.00  0.00    +0.000 A 
ATOM      4  C   UNL     1       4.832   3.951  16.998  0.00  0.00    +0.000 A 
ATOM      5  C   UNL     1       5.468   5.161  17.286  0.00  0.00    +0.000 A 
ATOM      6  C   UNL     1       4.732   6.252  17.780  0.00  0.00    +0.000 A 
ENDROOT
BRANCH   1   9
ATOM      7  O   UNL     1       2.031   6.194  20.708  0.00  0.00    +0.000 OA
ATOM      8  C   UNL     1       2.042   7.133  19.912  0.00  0.00    +0.000 C 
ATOM      9  N   UNL     1       2.680   7.170  18.680  0.00  0.00    +0.000 N 
ATOM     10  H   UNL     1       2.790   8.077  18.240  0.00  0.00    +0.000 HD
BRANCH   8  11
ATOM     11  C   UNL     1       1.361   8.384  20.318  0.00  0.00    +0.000 A 
ATOM     12  C   UNL     1       1.132   9.369  19.346  0.00  0.00    +0.000 A 
ATOM     13  C   UNL     1       0.517  10.566  19.700  0.00  0.00    +0.000 A 
ATOM     14  C   UNL     1       0.138  10.787  21.024  0.00  0.00    +0.000 A 
ATOM     15  C   UNL     1       0.377   9.816  21.997  0.00  0.00    +0.000 A 
ATOM     16  C   UNL     1       0.993   8.613  21.649  0.00  0.00    +0.000 A 
ENDBRANCH   8  11
ENDBRANCH   1   9
BRANCH   5  17
ATOM     17  S   UNL     1       7.199   5.329  16.920  0.00  0.00    +0.000 S 
ATOM     18  O   UNL     1       7.710   6.441  17.699  0.00  0.00    +0.000 OA
ATOM     19  O   UNL     1       7.832   4.028  17.011  0.00  0.00    +0.000 OA
BRANCH  17  20
ATOM     20  N   UNL     1       7.280   5.843  15.326  0.00  0.00    +0.000 N 
ATOM     21  C   UNL     1       7.056   4.993  14.250  0.00  0.00    +0.000 C 
ATOM     22  N   UNL     1       6.269   3.978  14.329  0.00  0.00    +0.000 NA
ATOM     23  C   UNL     1       6.358   3.288  13.037  0.00  0.00    +0.000 C 
ATOM     24  C   UNL     1       6.957   4.290  12.067  0.00  0.00    +0.000 C 
ATOM     25  C   UNL     1       7.760   5.218  12.951  0.00  0.00    +0.000 C 
ATOM     26  H   UNL     1       7.841   6.684  15.234  0.00  0.00    +0.000 HD
ENDBRANCH  17  20
ENDBRANCH   5  17
TORSDOF 4
ENDMDL
MODEL 9
REMARK VINA RESULT:      -8.0      5.395      7.145
REMARK  Name = 
REMARK  4 active torsions:
REMARK  status: ('A' for Active; 'I' for Inactive)
REMARK    1  A    between atoms: C_2  and  C_19
REMARK    2  A    between atoms: N_3  and  C_4
REMARK    3  A    between atoms: C_8  and  S_9
REMARK    4  A    between atoms: S_9  and  N_12
REMARK                            x       y       z     vdW  Elec       q    Type
REMARK                         _______ _______ _______ _____ _____    ______ ____
ROOT
ATOM      1  C   UNL     1       8.029   8.042  17.997  0.00  0.00    +0.000 A 
ATOM      2  C   UNL     1       8.461   7.228  19.049  0.00  0.00    +0.000 A 
ATOM      3  C   UNL     1       7.937   5.951  19.228  0.00  0.00    +0.000 A 
ATOM      4  C   UNL     1       6.978   5.457  18.347  0.00  0.00    +0.000 A 
ATOM      5  C   UNL     1       6.537   6.261  17.293  0.00  0.00    +0.000 A 
ATOM      6  C   UNL     1       7.021   7.572  17.146  0.00  0.00    +0.000 A 
ENDROOT
BRANCH   1   9
ATOM      7  O   UNL     1       9.076   9.984  19.955  0.00  0.00    +0.000 OA
ATOM      8  C   UNL     1       9.025  10.196  18.743  0.00  0.00    +0.000 C 
ATOM      9  N   UNL     1       8.579   9.320  17.765  0.00  0.00    +0.000 N 
ATOM     10  H   UNL     1       8.804   9.544  16.802  0.00  0.00    +0.000 HD
BRANCH   8  11
ATOM     11  C   UNL     1       9.546  11.493  18.253  0.00  0.00    +0.000 A 
ATOM     12  C   UNL     1      10.849  11.541  17.737  0.00  0.00    +0.000 A 
ATOM     13  C   UNL     1      11.378  12.748  17.291  0.00  0.00    +0.000 A 
ATOM     14  C   UNL     1      10.611  13.911  17.367  0.00  0.00    +0.000 A 
ATOM     15  C   UNL     1       9.319  13.871  17.892  0.00  0.00    +0.000 A 
ATOM     16  C   UNL     1       8.783  12.664  18.341  0.00  0.00    +0.000 A 
ENDBRANCH   8  11
ENDBRANCH   1   9
BRANCH   5  17
ATOM     17  S   UNL     1       5.277   5.635  16.207  0.00  0.00    +0.000 S 
ATOM     18  O   UNL     1       4.993   6.661  15.221  0.00  0.00    +0.000 OA
ATOM     19  O   UNL     1       5.640   4.299  15.778  0.00  0.00    +0.000 OA
BRANCH  17  20
ATOM     20  N   UNL     1       3.884   5.530  17.135  0.00  0.00    +0.000 N 
ATOM     21  C   UNL     1       3.313   4.316  17.498  0.00  0.00    +0.000 C 
ATOM     22  N   UNL     1       4.013   3.249  17.659  0.00  0.00    +0.000 NA
ATOM     23  C   UNL     1       3.059   2.173  17.950  0.00  0.00    +0.000 C 
ATOM     24  C   UNL     1       1.769   2.857  18.367  0.00  0.00    +0.000 C 
ATOM     25  C   UNL     1       1.834   4.205  17.684  0.00  0.00    +0.000 C 
ATOM     26  H   UNL     1       3.338   6.384  17.085  0.00  0.00    +0.000 HD
ENDBRANCH  17  20
ENDBRANCH   5  17
TORSDOF 4
ENDMDL
