MODEL 1
REMARK VINA RESULT:      -8.9      0.000      0.000
REMARK  Name = 
REMARK  6 active torsions:
REMARK  status: ('A' for Active; 'I' for Inactive)
REMARK    1  A    between atoms: C_2  and  O_3
REMARK    2  A    between atoms: C_2  and  C_4
REMARK    3  A    between atoms: C_6  and  C_7
REMARK    4  A    between atoms: C_10  and  C_11
REMARK    5  A    between atoms: C_22  and  C_23
REMARK    6  A    between atoms: C_26  and  C_27
REMARK                            x       y       z     vdW  Elec       q    Type
REMARK                         _______ _______ _______ _____ _____    ______ ____
ROOT
ATOM      1  C   UNL     1       2.265   4.059  20.879  0.00  0.00    +0.000 A 
ATOM      2  C   UNL     1       3.004   4.006  19.696  0.00  0.00    +0.000 A 
ATOM      3  C   UNL     1       3.132   5.126  18.849  0.00  0.00    +0.000 A 
ATOM      4  C   UNL     1       2.457   6.333  19.229  0.00  0.00    +0.000 A 
ATOM      5  C   UNL     1       2.415   7.490  18.428  0.00  0.00    +0.000 A 
ATOM      6  C   UNL     1       1.884   8.693  18.883  0.00  0.00    +0.000 A 
ATOM      7  C   UNL     1       1.259   8.794  20.128  0.00  0.00    +0.000 A 
ATOM      8  C   UNL     1       1.200   7.621  20.901  0.00  0.00    +0.000 A 
ATOM      9  C   UNL     1       1.782   6.405  20.476  0.00  0.00    +0.000 A 
ATOM     10  C   UNL     1       1.694   5.265  21.287  0.00  0.00    +0.000 A 
ENDROOT
BRANCH   3  11
ATOM     11  C   UNL     1       3.984   5.008  17.628  0.00  0.00    +0.000 A 
ATOM     12  C   UNL     1       4.274   3.755  17.058  0.00  0.00    +0.000 A 
ATOM     13  C   UNL     1       5.055   3.642  15.903  0.00  0.00    +0.000 A 
ATOM     14  C   UNL     1       5.531   4.786  15.262  0.00  0.00    +0.000 A 
ATOM     15  C   UNL     1       5.272   6.037  15.811  0.00  0.00    +0.000 A 
ATOM     16  C   UNL     1       4.555   6.136  17.005  0.00  0.00    +0.000 A 
BRANCH  14  17
ATOM     17  C   UNL     1       6.278   4.678  14.013  0.00  0.00    +0.000 C 
ATOM     18  C   UNL     1       6.022   3.679  13.150  0.00  0.00    +0.000 C 
ATOM     19  C   UNL     1       6.777   3.502  11.868  0.00  0.00    +0.000 C 
ATOM     20  N   UNL     1       7.628   4.641  11.507  0.00  0.00    +0.000 NA
ATOM     21  C   UNL     1       8.339   5.156  12.686  0.00  0.00    +0.000 C 
ATOM     22  C   UNL     1       7.367   5.681  13.753  0.00  0.00    +0.000 C 
ATOM     23  H   UNL     1       7.024   5.380  11.147  0.00  0.00    +0.000 HD
ENDBRANCH  14  17
ENDBRANCH   3  11
BRANCH   7  24
ATOM     24  C   UNL     1       0.683  10.082  20.564  0.00  0.00    +0.000 A 
ATOM     25  C   UNL     1       0.021  10.187  21.802  0.00  0.00    +0.000 A 
ATOM     26  C   UNL     1      -0.582  11.375  22.218  0.00  0.00    +0.000 A 
ATOM     27  C   UNL     1      -0.517  12.518  21.417  0.00  0.00    +0.000 A 
ATOM     28  C   UNL     1       0.158  12.435  20.188  0.00  0.00    +0.000 A 
ATOM     29  C   UNL     1       0.742  11.239  19.767  0.00  0.00    +0.000 A 
BRANCH  27  30
ATOM     30  C   UNL     1      -1.151  13.810  21.861  0.00  0.00    +0.000 C 
ATOM     31  F   UNL     1      -0.386  14.517  22.737  0.00  0.00    +0.000 F 
ATOM     32  F   UNL     1      -1.402  14.648  20.818  0.00  0.00    +0.000 F 
ATOM     33  F   UNL     1      -2.348  13.613  22.482  0.00  0.00    +0.000 F 
ENDBRANCH  27  30
ENDBRANCH   7  24
BRANCH   1  35
ATOM     34  O   UNL     1       1.156   2.498  22.297  0.00  0.00    +0.000 OA
ATOM     35  C   UNL     1       2.162   2.820  21.689  0.00  0.00    +0.000 C 
BRANCH  35  36
ATOM     36  O   UNL     1       3.320   2.119  21.740  0.00  0.00    +0.000 OA
ATOM     37  H   UNL     1       3.366   1.437  22.432  0.00  0.00    +0.000 HD
ENDBRANCH  35  36
ENDBRANCH   1  35
TORSDOF 6
ENDMDL
MODEL 2
REMARK VINA RESULT:      -8.9      0.224      1.002
REMARK  Name = 
REMARK  6 active torsions:
REMARK  status: ('A' for Active; 'I' for Inactive)
REMARK    1  A    between atoms: C_2  and  O_3
REMARK    2  A    between atoms: C_2  and  C_4
REMARK    3  A    between atoms: C_6  and  C_7
REMARK    4  A    between atoms: C_10  and  C_11
REMARK    5  A    between atoms: C_22  and  C_23
REMARK    6  A    between atoms: C_26  and  C_27
REMARK                            x       y       z     vdW  Elec       q    Type
REMARK                         _______ _______ _______ _____ _____    ______ ____
ROOT
ATOM      1  C   UNL     1       2.260   4.030  20.962  0.00  0.00    +0.000 A 
ATOM      2  C   UNL     1       2.998   3.986  19.778  0.00  0.00    +0.000 A 
ATOM      3  C   UNL     1       3.124   5.112  18.939  0.00  0.00    +0.000 A 
ATOM      4  C   UNL     1       2.449   6.315  19.328  0.00  0.00    +0.000 A 
ATOM      5  C   UNL     1       2.405   7.478  18.535  0.00  0.00    +0.000 A 
ATOM      6  C   UNL     1       1.872   8.678  18.998  0.00  0.00    +0.000 A 
ATOM      7  C   UNL     1       1.247   8.769  20.243  0.00  0.00    +0.000 A 
ATOM      8  C   UNL     1       1.190   7.591  21.008  0.00  0.00    +0.000 A 
ATOM      9  C   UNL     1       1.773   6.379  20.576  0.00  0.00    +0.000 A 
ATOM     10  C   UNL     1       1.687   5.233  21.379  0.00  0.00    +0.000 A 
ENDROOT
BRANCH   3  11
ATOM     11  C   UNL     1       3.977   5.003  17.718  0.00  0.00    +0.000 A 
ATOM     12  C   UNL     1       4.308   3.753  17.166  0.00  0.00    +0.000 A 
ATOM     13  C   UNL     1       5.089   3.647  16.011  0.00  0.00    +0.000 A 
ATOM     14  C   UNL     1       5.523   4.796  15.350  0.00  0.00    +0.000 A 
ATOM     15  C   UNL     1       5.223   6.047  15.880  0.00  0.00    +0.000 A 
ATOM     16  C   UNL     1       4.507   6.140  17.074  0.00  0.00    +0.000 A 
BRANCH  14  17
ATOM     17  C   UNL     1       6.270   4.693  14.101  0.00  0.00    +0.000 C 
ATOM     18  C   UNL     1       5.988   3.720  13.217  0.00  0.00    +0.000 C 
ATOM     19  C   UNL     1       6.741   3.549  11.932  0.00  0.00    +0.000 C 
ATOM     20  N   UNL     1       7.624   4.672  11.597  0.00  0.00    +0.000 NA
ATOM     21  C   UNL     1       8.346   5.142  12.787  0.00  0.00    +0.000 C 
ATOM     22  C   UNL     1       7.387   5.671  13.863  0.00  0.00    +0.000 C 
ATOM     23  H   UNL     1       7.041   5.434  11.251  0.00  0.00    +0.000 HD
ENDBRANCH  14  17
ENDBRANCH   3  11
BRANCH   7  24
ATOM     24  C   UNL     1       0.670  10.054  20.689  0.00  0.00    +0.000 A 
ATOM     25  C   UNL     1       1.024  11.257  20.049  0.00  0.00    +0.000 A 
ATOM     26  C   UNL     1       0.540  12.493  20.482  0.00  0.00    +0.000 A 
ATOM     27  C   UNL     1      -0.348  12.565  21.558  0.00  0.00    +0.000 A 
ATOM     28  C   UNL     1      -0.727  11.372  22.193  0.00  0.00    +0.000 A 
ATOM     29  C   UNL     1      -0.224  10.140  21.770  0.00  0.00    +0.000 A 
BRANCH  27  30
ATOM     30  C   UNL     1      -0.888  13.892  22.024  0.00  0.00    +0.000 C 
ATOM     31  F   UNL     1      -1.845  13.780  22.986  0.00  0.00    +0.000 F 
ATOM     32  F   UNL     1       0.083  14.689  22.549  0.00  0.00    +0.000 F 
ATOM     33  F   UNL     1      -1.455  14.606  21.012  0.00  0.00    +0.000 F 
ENDBRANCH  27  30
ENDBRANCH   7  24
BRANCH   1  35
ATOM     34  O   UNL     1       1.150   2.455  22.364  0.00  0.00    +0.000 OA
ATOM     35  C   UNL     1       2.158   2.786  21.764  0.00  0.00    +0.000 C 
BRANCH  35  36
ATOM     36  O   UNL     1       3.319   2.090  21.817  0.00  0.00    +0.000 OA
ATOM     37  H   UNL     1       3.231   1.124  21.745  0.00  0.00    +0.000 HD
ENDBRANCH  35  36
ENDBRANCH   1  35
TORSDOF 6
ENDMDL
MODEL 3
REMARK VINA RESULT:      -8.9      6.797     11.966
REMARK  Name = 
REMARK  6 active torsions:
REMARK  status: ('A' for Active; 'I' for Inactive)
REMARK    1  A    between atoms: C_2  and  O_3
REMARK    2  A    between atoms: C_2  and  C_4
REMARK    3  A    between atoms: C_6  and  C_7
REMARK    4  A    between atoms: C_10  and  C_11
REMARK    5  A    between atoms: C_22  and  C_23
REMARK    6  A    between atoms: C_26  and  C_27
REMARK                            x       y       z     vdW  Elec       q    Type
REMARK                         _______ _______ _______ _____ _____    ______ ____
ROOT
ATOM      1  C   UNL     1       1.584  13.931  18.564  0.00  0.00    +0.000 A 
ATOM      2  C   UNL     1       0.328  13.895  19.171  0.00  0.00    +0.000 A 
ATOM      3  C   UNL     1      -0.339  12.680  19.427  0.00  0.00    +0.000 A 
ATOM      4  C   UNL     1       0.307  11.465  19.024  0.00  0.00    +0.000 A 
ATOM      5  C   UNL     1      -0.288  10.192  19.124  0.00  0.00    +0.000 A 
ATOM      6  C   UNL     1       0.412   9.018  18.868  0.00  0.00    +0.000 A 
ATOM      7  C   UNL     1       1.723   9.038  18.386  0.00  0.00    +0.000 A 
ATOM      8  C   UNL     1       2.301  10.303  18.182  0.00  0.00    +0.000 A 
ATOM      9  C   UNL     1       1.621  11.504  18.488  0.00  0.00    +0.000 A 
ATOM     10  C   UNL     1       2.245  12.739  18.264  0.00  0.00    +0.000 A 
ENDROOT
BRANCH   3  11
ATOM     11  C   UNL     1      -1.656  12.719  20.129  0.00  0.00    +0.000 A 
ATOM     12  C   UNL     1      -2.866  12.598  19.422  0.00  0.00    +0.000 A 
ATOM     13  C   UNL     1      -4.100  12.614  20.079  0.00  0.00    +0.000 A 
ATOM     14  C   UNL     1      -4.155  12.707  21.470  0.00  0.00    +0.000 A 
ATOM     15  C   UNL     1      -2.976  12.842  22.194  0.00  0.00    +0.000 A 
ATOM     16  C   UNL     1      -1.753  12.901  21.524  0.00  0.00    +0.000 A 
BRANCH  14  17
ATOM     17  C   UNL     1      -5.436  12.643  22.165  0.00  0.00    +0.000 C 
ATOM     18  C   UNL     1      -6.559  12.326  21.498  0.00  0.00    +0.000 C 
ATOM     19  C   UNL     1      -7.906  12.275  22.155  0.00  0.00    +0.000 C 
ATOM     20  N   UNL     1      -7.864  12.338  23.620  0.00  0.00    +0.000 NA
ATOM     21  C   UNL     1      -6.890  13.342  24.072  0.00  0.00    +0.000 C 
ATOM     22  C   UNL     1      -5.463  12.991  23.628  0.00  0.00    +0.000 C 
ATOM     23  H   UNL     1      -7.568  11.425  23.964  0.00  0.00    +0.000 HD
ENDBRANCH  14  17
ENDBRANCH   3  11
BRANCH   7  24
ATOM     24  C   UNL     1       2.425   7.770  18.100  0.00  0.00    +0.000 A 
ATOM     25  C   UNL     1       3.688   7.776  17.479  0.00  0.00    +0.000 A 
ATOM     26  C   UNL     1       4.352   6.595  17.144  0.00  0.00    +0.000 A 
ATOM     27  C   UNL     1       3.784   5.355  17.450  0.00  0.00    +0.000 A 
ATOM     28  C   UNL     1       2.534   5.332  18.089  0.00  0.00    +0.000 A 
ATOM     29  C   UNL     1       1.864   6.516  18.403  0.00  0.00    +0.000 A 
BRANCH  27  30
ATOM     30  C   UNL     1       4.498   4.074  17.107  0.00  0.00    +0.000 C 
ATOM     31  F   UNL     1       3.783   2.957  17.413  0.00  0.00    +0.000 F 
ATOM     32  F   UNL     1       4.788   3.984  15.780  0.00  0.00    +0.000 F 
ATOM     33  F   UNL     1       5.686   3.950  17.762  0.00  0.00    +0.000 F 
ENDBRANCH  27  30
ENDBRANCH   7  24
BRANCH   1  35
ATOM     34  O   UNL     1       1.749  16.300  18.758  0.00  0.00    +0.000 OA
ATOM     35  C   UNL     1       2.193  15.260  18.306  0.00  0.00    +0.000 C 
BRANCH  35  36
ATOM     36  O   UNL     1       3.253  15.205  17.463  0.00  0.00    +0.000 OA
ATOM     37  H   UNL     1       3.557  16.062  17.118  0.00  0.00    +0.000 HD
ENDBRANCH  35  36
ENDBRANCH   1  35
TORSDOF 6
ENDMDL
MODEL 4
REMARK VINA RESULT:      -8.8      4.158      6.592
REMARK  Name = 
REMARK  6 active torsions:
REMARK  status: ('A' for Active; 'I' for Inactive)
REMARK    1  A    between atoms: C_2  and  O_3
REMARK    2  A    between atoms: C_2  and  C_4
REMARK    3  A    between atoms: C_6  and  C_7
REMARK    4  A    between atoms: C_10  and  C_11
REMARK    5  A    between atoms: C_22  and  C_23
REMARK    6  A    between atoms: C_26  and  C_27
REMARK                            x       y       z     vdW  Elec       q    Type
REMARK                         _______ _______ _______ _____ _____    ______ ____
ROOT
ATOM      1  C   UNL     1      -2.044  10.955  17.418  0.00  0.00    +0.000 A 
ATOM      2  C   UNL     1      -0.988  10.048  17.519  0.00  0.00    +0.000 A 
ATOM      3  C   UNL     1      -0.049  10.116  18.568  0.00  0.00    +0.000 A 
ATOM      4  C   UNL     1      -0.197  11.168  19.532  0.00  0.00    +0.000 A 
ATOM      5  C   UNL     1       0.725  11.414  20.568  0.00  0.00    +0.000 A 
ATOM      6  C   UNL     1       0.483  12.342  21.577  0.00  0.00    +0.000 A 
ATOM      7  C   UNL     1      -0.645  13.166  21.559  0.00  0.00    +0.000 A 
ATOM      8  C   UNL     1      -1.526  13.005  20.476  0.00  0.00    +0.000 A 
ATOM      9  C   UNL     1      -1.323  12.031  19.473  0.00  0.00    +0.000 A 
ATOM     10  C   UNL     1      -2.234  11.914  18.414  0.00  0.00    +0.000 A 
ENDROOT
BRANCH   3  11
ATOM     11  C   UNL     1       1.022   9.077  18.641  0.00  0.00    +0.000 A 
ATOM     12  C   UNL     1       1.156   8.244  19.766  0.00  0.00    +0.000 A 
ATOM     13  C   UNL     1       2.144   7.256  19.828  0.00  0.00    +0.000 A 
ATOM     14  C   UNL     1       2.999   7.047  18.745  0.00  0.00    +0.000 A 
ATOM     15  C   UNL     1       2.898   7.865  17.625  0.00  0.00    +0.000 A 
ATOM     16  C   UNL     1       1.958   8.897  17.602  0.00  0.00    +0.000 A 
BRANCH  14  17
ATOM     17  C   UNL     1       3.978   5.966  18.773  0.00  0.00    +0.000 C 
ATOM     18  C   UNL     1       5.058   6.003  17.974  0.00  0.00    +0.000 C 
ATOM     19  C   UNL     1       6.080   4.908  17.939  0.00  0.00    +0.000 C 
ATOM     20  N   UNL     1       5.950   3.928  19.023  0.00  0.00    +0.000 NA
ATOM     21  C   UNL     1       4.540   3.578  19.245  0.00  0.00    +0.000 C 
ATOM     22  C   UNL     1       3.713   4.796  19.680  0.00  0.00    +0.000 C 
ATOM     23  H   UNL     1       6.314   4.355  19.875  0.00  0.00    +0.000 HD
ENDBRANCH  14  17
ENDBRANCH   3  11
BRANCH   7  24
ATOM     24  C   UNL     1      -0.852  14.158  22.634  0.00  0.00    +0.000 A 
ATOM     25  C   UNL     1      -1.874  13.977  23.585  0.00  0.00    +0.000 A 
ATOM     26  C   UNL     1      -2.132  14.923  24.579  0.00  0.00    +0.000 A 
ATOM     27  C   UNL     1      -1.350  16.077  24.675  0.00  0.00    +0.000 A 
ATOM     28  C   UNL     1      -0.314  16.262  23.745  0.00  0.00    +0.000 A 
ATOM     29  C   UNL     1      -0.073  15.323  22.741  0.00  0.00    +0.000 A 
BRANCH  27  30
ATOM     30  C   UNL     1      -1.610  17.098  25.752  0.00  0.00    +0.000 C 
ATOM     31  F   UNL     1      -2.919  17.456  25.856  0.00  0.00    +0.000 F 
ATOM     32  F   UNL     1      -1.242  16.652  26.985  0.00  0.00    +0.000 F 
ATOM     33  F   UNL     1      -0.920  18.255  25.548  0.00  0.00    +0.000 F 
ENDBRANCH  27  30
ENDBRANCH   7  24
BRANCH   1  35
ATOM     34  O   UNL     1      -2.782  10.042  15.344  0.00  0.00    +0.000 OA
ATOM     35  C   UNL     1      -2.964  10.823  16.261  0.00  0.00    +0.000 C 
BRANCH  35  36
ATOM     36  O   UNL     1      -3.991  11.708  16.294  0.00  0.00    +0.000 OA
ATOM     37  H   UNL     1      -4.715  11.483  16.902  0.00  0.00    +0.000 HD
ENDBRANCH  35  36
ENDBRANCH   1  35
TORSDOF 6
ENDMDL
MODEL 5
REMARK VINA RESULT:      -8.8      6.815     12.039
REMARK  Name = 
REMARK  6 active torsions:
REMARK  status: ('A' for Active; 'I' for Inactive)
REMARK    1  A    between atoms: C_2  and  O_3
REMARK    2  A    between atoms: C_2  and  C_4
REMARK    3  A    between atoms: C_6  and  C_7
REMARK    4  A    between atoms: C_10  and  C_11
REMARK    5  A    between atoms: C_22  and  C_23
REMARK    6  A    between atoms: C_26  and  C_27
REMARK                            x       y       z     vdW  Elec       q    Type
REMARK                         _______ _______ _______ _____ _____    ______ ____
ROOT
ATOM      1  C   UNL     1       1.490  13.996  18.713  0.00  0.00    +0.000 A 
ATOM      2  C   UNL     1       0.246  13.903  19.340  0.00  0.00    +0.000 A 
ATOM      3  C   UNL     1      -0.376  12.660  19.575  0.00  0.00    +0.000 A 
ATOM      4  C   UNL     1       0.302  11.478  19.131  0.00  0.00    +0.000 A 
ATOM      5  C   UNL     1      -0.250  10.184  19.208  0.00  0.00    +0.000 A 
ATOM      6  C   UNL     1       0.484   9.041  18.910  0.00  0.00    +0.000 A 
ATOM      7  C   UNL     1       1.786   9.116  18.407  0.00  0.00    +0.000 A 
ATOM      8  C   UNL     1       2.318  10.404  18.226  0.00  0.00    +0.000 A 
ATOM      9  C   UNL     1       1.605  11.574  18.575  0.00  0.00    +0.000 A 
ATOM     10  C   UNL     1       2.184  12.835  18.372  0.00  0.00    +0.000 A 
ENDROOT
BRANCH   3  11
ATOM     11  C   UNL     1      -1.681  12.638  20.301  0.00  0.00    +0.000 A 
ATOM     12  C   UNL     1      -1.737  12.662  21.706  0.00  0.00    +0.000 A 
ATOM     13  C   UNL     1      -2.957  12.662  22.388  0.00  0.00    +0.000 A 
ATOM     14  C   UNL     1      -4.159  12.682  21.679  0.00  0.00    +0.000 A 
ATOM     15  C   UNL     1      -4.135  12.644  20.290  0.00  0.00    +0.000 A 
ATOM     16  C   UNL     1      -2.913  12.569  19.619  0.00  0.00    +0.000 A 
BRANCH  14  17
ATOM     17  C   UNL     1      -5.433  12.763  22.385  0.00  0.00    +0.000 C 
ATOM     18  C   UNL     1      -6.571  12.374  21.785  0.00  0.00    +0.000 C 
ATOM     19  C   UNL     1      -7.911  12.463  22.450  0.00  0.00    +0.000 C 
ATOM     20  N   UNL     1      -7.852  12.758  23.886  0.00  0.00    +0.000 NA
ATOM     21  C   UNL     1      -6.849  13.794  24.167  0.00  0.00    +0.000 C 
ATOM     22  C   UNL     1      -5.435  13.340  23.774  0.00  0.00    +0.000 C 
ATOM     23  H   UNL     1      -7.575  11.903  24.369  0.00  0.00    +0.000 HD
ENDBRANCH  14  17
ENDBRANCH   3  11
BRANCH   7  24
ATOM     24  C   UNL     1       2.523   7.880  18.077  0.00  0.00    +0.000 A 
ATOM     25  C   UNL     1       3.707   7.935  17.316  0.00  0.00    +0.000 A 
ATOM     26  C   UNL     1       4.396   6.781  16.940  0.00  0.00    +0.000 A 
ATOM     27  C   UNL     1       3.939   5.523  17.341  0.00  0.00    +0.000 A 
ATOM     28  C   UNL     1       2.771   5.453  18.117  0.00  0.00    +0.000 A 
ATOM     29  C   UNL     1       2.073   6.608  18.473  0.00  0.00    +0.000 A 
BRANCH  27  30
ATOM     30  C   UNL     1       4.683   4.272  16.953  0.00  0.00    +0.000 C 
ATOM     31  F   UNL     1       5.763   4.017  17.740  0.00  0.00    +0.000 F 
ATOM     32  F   UNL     1       3.896   3.162  17.021  0.00  0.00    +0.000 F 
ATOM     33  F   UNL     1       5.152   4.323  15.675  0.00  0.00    +0.000 F 
ENDBRANCH  27  30
ENDBRANCH   7  24
BRANCH   1  35
ATOM     34  O   UNL     1       1.521  16.373  18.876  0.00  0.00    +0.000 OA
ATOM     35  C   UNL     1       2.051  15.350  18.480  0.00  0.00    +0.000 C 
BRANCH  35  36
ATOM     36  O   UNL     1       3.176  15.337  17.724  0.00  0.00    +0.000 OA
ATOM     37  H   UNL     1       3.038  15.453  16.768  0.00  0.00    +0.000 HD
ENDBRANCH  35  36
ENDBRANCH   1  35
TORSDOF 6
ENDMDL
MODEL 6
REMARK VINA RESULT:      -8.7      6.812     11.993
REMARK  Name = 
REMARK  6 active torsions:
REMARK  status: ('A' for Active; 'I' for Inactive)
REMARK    1  A    between atoms: C_2  and  O_3
REMARK    2  A    between atoms: C_2  and  C_4
REMARK    3  A    between atoms: C_6  and  C_7
REMARK    4  A    between atoms: C_10  and  C_11
REMARK    5  A    between atoms: C_22  and  C_23
REMARK    6  A    between atoms: C_26  and  C_27
REMARK                            x       y       z     vdW  Elec       q    Type
REMARK                         _______ _______ _______ _____ _____    ______ ____
ROOT
ATOM      1  C   UNL     1       1.493  13.926  18.634  0.00  0.00    +0.000 A 
ATOM      2  C   UNL     1       0.251  13.830  19.264  0.00  0.00    +0.000 A 
ATOM      3  C   UNL     1      -0.367  12.586  19.504  0.00  0.00    +0.000 A 
ATOM      4  C   UNL     1       0.315  11.404  19.061  0.00  0.00    +0.000 A 
ATOM      5  C   UNL     1      -0.232  10.109  19.143  0.00  0.00    +0.000 A 
ATOM      6  C   UNL     1       0.505   8.967  18.847  0.00  0.00    +0.000 A 
ATOM      7  C   UNL     1       1.805   9.046  18.341  0.00  0.00    +0.000 A 
ATOM      8  C   UNL     1       2.332  10.336  18.155  0.00  0.00    +0.000 A 
ATOM      9  C   UNL     1       1.616  11.503  18.502  0.00  0.00    +0.000 A 
ATOM     10  C   UNL     1       2.190  12.766  18.294  0.00  0.00    +0.000 A 
ENDROOT
BRANCH   3  11
ATOM     11  C   UNL     1      -1.670  12.561  20.232  0.00  0.00    +0.000 A 
ATOM     12  C   UNL     1      -1.724  12.607  21.637  0.00  0.00    +0.000 A 
ATOM     13  C   UNL     1      -2.942  12.604  22.322  0.00  0.00    +0.000 A 
ATOM     14  C   UNL     1      -4.145  12.600  21.615  0.00  0.00    +0.000 A 
ATOM     15  C   UNL     1      -4.123  12.540  20.226  0.00  0.00    +0.000 A 
ATOM     16  C   UNL     1      -2.903  12.467  19.554  0.00  0.00    +0.000 A 
BRANCH  14  17
ATOM     17  C   UNL     1      -5.419  12.678  22.322  0.00  0.00    +0.000 C 
ATOM     18  C   UNL     1      -6.577  12.507  21.662  0.00  0.00    +0.000 C 
ATOM     19  C   UNL     1      -7.915  12.606  22.330  0.00  0.00    +0.000 C 
ATOM     20  N   UNL     1      -7.855  12.643  23.796  0.00  0.00    +0.000 NA
ATOM     21  C   UNL     1      -6.765  13.517  24.252  0.00  0.00    +0.000 C 
ATOM     22  C   UNL     1      -5.393  13.006  23.790  0.00  0.00    +0.000 C 
ATOM     23  H   UNL     1      -7.667  11.696  24.124  0.00  0.00    +0.000 HD
ENDBRANCH  14  17
ENDBRANCH   3  11
BRANCH   7  24
ATOM     24  C   UNL     1       2.546   7.811  18.012  0.00  0.00    +0.000 A 
ATOM     25  C   UNL     1       2.073   6.557  18.442  0.00  0.00    +0.000 A 
ATOM     26  C   UNL     1       2.779   5.378  18.196  0.00  0.00    +0.000 A 
ATOM     27  C   UNL     1       3.977   5.410  17.478  0.00  0.00    +0.000 A 
ATOM     28  C   UNL     1       4.452   6.651  17.024  0.00  0.00    +0.000 A 
ATOM     29  C   UNL     1       3.753   7.830  17.291  0.00  0.00    +0.000 A 
BRANCH  27  30
ATOM     30  C   UNL     1       4.740   4.143  17.194  0.00  0.00    +0.000 C 
ATOM     31  F   UNL     1       5.205   4.064  15.917  0.00  0.00    +0.000 F 
ATOM     32  F   UNL     1       5.829   4.004  18.001  0.00  0.00    +0.000 F 
ATOM     33  F   UNL     1       3.983   3.027  17.387  0.00  0.00    +0.000 F 
ENDBRANCH  27  30
ENDBRANCH   7  24
BRANCH   1  35
ATOM     34  O   UNL     1       3.156  15.479  17.928  0.00  0.00    +0.000 OA
ATOM     35  C   UNL     1       2.048  15.281  18.396  0.00  0.00    +0.000 C 
BRANCH  35  36
ATOM     36  O   UNL     1       1.227  16.274  18.815  0.00  0.00    +0.000 OA
ATOM     37  H   UNL     1       0.734  16.091  19.632  0.00  0.00    +0.000 HD
ENDBRANCH  35  36
ENDBRANCH   1  35
TORSDOF 6
ENDMDL
MODEL 7
REMARK VINA RESULT:      -8.7      6.497     11.912
REMARK  Name = 
REMARK  6 active torsions:
REMARK  status: ('A' for Active; 'I' for Inactive)
REMARK    1  A    between atoms: C_2  and  O_3
REMARK    2  A    between atoms: C_2  and  C_4
REMARK    3  A    between atoms: C_6  and  C_7
REMARK    4  A    between atoms: C_10  and  C_11
REMARK    5  A    between atoms: C_22  and  C_23
REMARK    6  A    between atoms: C_26  and  C_27
REMARK                            x       y       z     vdW  Elec       q    Type
REMARK                         _______ _______ _______ _____ _____    ______ ____
ROOT
ATOM      1  C   UNL     1      -2.757  11.041  17.350  0.00  0.00    +0.000 A 
ATOM      2  C   UNL     1      -2.740  11.854  18.486  0.00  0.00    +0.000 A 
ATOM      3  C   UNL     1      -1.759  11.708  19.488  0.00  0.00    +0.000 A 
ATOM      4  C   UNL     1      -0.777  10.676  19.319  0.00  0.00    +0.000 A 
ATOM      5  C   UNL     1       0.192  10.354  20.288  0.00  0.00    +0.000 A 
ATOM      6  C   UNL     1       1.225   9.455  20.041  0.00  0.00    +0.000 A 
ATOM      7  C   UNL     1       1.296   8.732  18.848  0.00  0.00    +0.000 A 
ATOM      8  C   UNL     1       0.277   8.965  17.908  0.00  0.00    +0.000 A 
ATOM      9  C   UNL     1      -0.748   9.914  18.122  0.00  0.00    +0.000 A 
ATOM     10  C   UNL     1      -1.740  10.106  17.150  0.00  0.00    +0.000 A 
ENDROOT
BRANCH   3  11
ATOM     11  C   UNL     1      -1.774  12.650  20.647  0.00  0.00    +0.000 A 
ATOM     12  C   UNL     1      -1.052  13.856  20.617  0.00  0.00    +0.000 A 
ATOM     13  C   UNL     1      -1.079  14.750  21.692  0.00  0.00    +0.000 A 
ATOM     14  C   UNL     1      -1.867  14.480  22.811  0.00  0.00    +0.000 A 
ATOM     15  C   UNL     1      -2.581  13.289  22.874  0.00  0.00    +0.000 A 
ATOM     16  C   UNL     1      -2.488  12.368  21.829  0.00  0.00    +0.000 A 
BRANCH  14  17
ATOM     17  C   UNL     1      -1.962  15.447  23.899  0.00  0.00    +0.000 C 
ATOM     18  C   UNL     1      -1.234  15.288  25.018  0.00  0.00    +0.000 C 
ATOM     19  C   UNL     1      -1.314  16.232  26.180  0.00  0.00    +0.000 C 
ATOM     20  N   UNL     1      -2.043  17.474  25.897  0.00  0.00    +0.000 NA
ATOM     21  C   UNL     1      -3.259  17.200  25.118  0.00  0.00    +0.000 C 
ATOM     22  C   UNL     1      -2.932  16.586  23.749  0.00  0.00    +0.000 C 
ATOM     23  H   UNL     1      -1.433  18.074  25.342  0.00  0.00    +0.000 HD
ENDBRANCH  14  17
ENDBRANCH   3  11
BRANCH   7  24
ATOM     24  C   UNL     1       2.392   7.766  18.633  0.00  0.00    +0.000 A 
ATOM     25  C   UNL     1       3.264   7.905  17.536  0.00  0.00    +0.000 A 
ATOM     26  C   UNL     1       4.274   6.978  17.273  0.00  0.00    +0.000 A 
ATOM     27  C   UNL     1       4.469   5.887  18.124  0.00  0.00    +0.000 A 
ATOM     28  C   UNL     1       3.621   5.745  19.234  0.00  0.00    +0.000 A 
ATOM     29  C   UNL     1       2.599   6.664  19.481  0.00  0.00    +0.000 A 
BRANCH  27  30
ATOM     30  C   UNL     1       5.565   4.889  17.859  0.00  0.00    +0.000 C 
ATOM     31  F   UNL     1       6.004   4.255  18.980  0.00  0.00    +0.000 F 
ATOM     32  F   UNL     1       5.172   3.907  17.000  0.00  0.00    +0.000 F 
ATOM     33  F   UNL     1       6.665   5.463  17.297  0.00  0.00    +0.000 F 
ENDBRANCH  27  30
ENDBRANCH   7  24
BRANCH   1  35
ATOM     34  O   UNL     1      -3.918  10.646  15.308  0.00  0.00    +0.000 OA
ATOM     35  C   UNL     1      -3.847  11.248  16.365  0.00  0.00    +0.000 C 
BRANCH  35  36
ATOM     36  O   UNL     1      -4.715  12.223  16.728  0.00  0.00    +0.000 OA
ATOM     37  H   UNL     1      -5.486  11.925  17.241  0.00  0.00    +0.000 HD
ENDBRANCH  35  36
ENDBRANCH   1  35
TORSDOF 6
ENDMDL
MODEL 8
REMARK VINA RESULT:      -8.7      6.512     11.707
REMARK  Name = 
REMARK  6 active torsions:
REMARK  status: ('A' for Active; 'I' for Inactive)
REMARK    1  A    between atoms: C_2  and  O_3
REMARK    2  A    between atoms: C_2  and  C_4
REMARK    3  A    between atoms: C_6  and  C_7
REMARK    4  A    between atoms: C_10  and  C_11
REMARK    5  A    between atoms: C_22  and  C_23
REMARK    6  A    between atoms: C_26  and  C_27
REMARK                            x       y       z     vdW  Elec       q    Type
REMARK                         _______ _______ _______ _____ _____    ______ ____
ROOT
ATOM      1  C   UNL     1      -2.613  11.166  17.439  0.00  0.00    +0.000 A 
ATOM      2  C   UNL     1      -2.515  12.009  18.547  0.00  0.00    +0.000 A 
ATOM      3  C   UNL     1      -1.506  11.846  19.518  0.00  0.00    +0.000 A 
ATOM      4  C   UNL     1      -0.581  10.763  19.347  0.00  0.00    +0.000 A 
ATOM      5  C   UNL     1       0.407  10.423  20.291  0.00  0.00    +0.000 A 
ATOM      6  C   UNL     1       1.385   9.467  20.035  0.00  0.00    +0.000 A 
ATOM      7  C   UNL     1       1.378   8.707  18.864  0.00  0.00    +0.000 A 
ATOM      8  C   UNL     1       0.337   8.961  17.954  0.00  0.00    +0.000 A 
ATOM      9  C   UNL     1      -0.633   9.965  18.174  0.00  0.00    +0.000 A 
ATOM     10  C   UNL     1      -1.650  10.176  17.233  0.00  0.00    +0.000 A 
ENDROOT
BRANCH   3  11
ATOM     11  C   UNL     1      -1.433  12.822  20.646  0.00  0.00    +0.000 A 
ATOM     12  C   UNL     1      -2.106  12.589  21.859  0.00  0.00    +0.000 A 
ATOM     13  C   UNL     1      -2.024  13.490  22.924  0.00  0.00    +0.000 A 
ATOM     14  C   UNL     1      -1.227  14.631  22.820  0.00  0.00    +0.000 A 
ATOM     15  C   UNL     1      -0.561  14.894  21.628  0.00  0.00    +0.000 A 
ATOM     16  C   UNL     1      -0.709  14.027  20.544  0.00  0.00    +0.000 A 
BRANCH  14  17
ATOM     17  C   UNL     1      -1.073  15.533  23.957  0.00  0.00    +0.000 C 
ATOM     18  C   UNL     1      -0.281  16.615  23.866  0.00  0.00    +0.000 C 
ATOM     19  C   UNL     1      -0.063  17.559  25.009  0.00  0.00    +0.000 C 
ATOM     20  N   UNL     1      -0.976  17.357  26.140  0.00  0.00    +0.000 NA
ATOM     21  C   UNL     1      -1.150  15.926  26.422  0.00  0.00    +0.000 C 
ATOM     22  C   UNL     1      -1.782  15.184  25.236  0.00  0.00    +0.000 C 
ATOM     23  H   UNL     1      -1.882  17.747  25.881  0.00  0.00    +0.000 HD
ENDBRANCH  14  17
ENDBRANCH   3  11
BRANCH   7  24
ATOM     24  C   UNL     1       2.418   7.682  18.641  0.00  0.00    +0.000 A 
ATOM     25  C   UNL     1       2.578   6.616  19.546  0.00  0.00    +0.000 A 
ATOM     26  C   UNL     1       3.587   5.664  19.394  0.00  0.00    +0.000 A 
ATOM     27  C   UNL     1       4.459   5.727  18.304  0.00  0.00    +0.000 A 
ATOM     28  C   UNL     1       4.300   6.773  17.381  0.00  0.00    +0.000 A 
ATOM     29  C   UNL     1       3.302   7.735  17.549  0.00  0.00    +0.000 A 
BRANCH  27  30
ATOM     30  C   UNL     1       5.542   4.697  18.122  0.00  0.00    +0.000 C 
ATOM     31  F   UNL     1       5.428   3.635  18.965  0.00  0.00    +0.000 F 
ATOM     32  F   UNL     1       5.555   4.179  16.862  0.00  0.00    +0.000 F 
ATOM     33  F   UNL     1       6.787   5.210  18.331  0.00  0.00    +0.000 F 
ENDBRANCH  27  30
ENDBRANCH   7  24
BRANCH   1  35
ATOM     34  O   UNL     1      -4.899  11.424  16.819  0.00  0.00    +0.000 OA
ATOM     35  C   UNL     1      -3.727  11.396  16.486  0.00  0.00    +0.000 C 
BRANCH  35  36
ATOM     36  O   UNL     1      -3.314  11.504  15.200  0.00  0.00    +0.000 OA
ATOM     37  H   UNL     1      -3.317  10.676  14.690  0.00  0.00    +0.000 HD
ENDBRANCH  35  36
ENDBRANCH   1  35
TORSDOF 6
ENDMDL
MODEL 9
REMARK VINA RESULT:      -8.7      6.540     11.894
REMARK  Name = 
REMARK  6 active torsions:
REMARK  status: ('A' for Active; 'I' for Inactive)
REMARK    1  A    between atoms: C_2  and  O_3
REMARK    2  A    between atoms: C_2  and  C_4
REMARK    3  A    between atoms: C_6  and  C_7
REMARK    4  A    between atoms: C_10  and  C_11
REMARK    5  A    between atoms: C_22  and  C_23
REMARK    6  A    between atoms: C_26  and  C_27
REMARK                            x       y       z     vdW  Elec       q    Type
REMARK                         _______ _______ _______ _____ _____    ______ ____
ROOT
ATOM      1  C   UNL     1      -2.786  11.193  17.427  0.00  0.00    +0.000 A 
ATOM      2  C   UNL     1      -2.754  11.989  18.574  0.00  0.00    +0.000 A 
ATOM      3  C   UNL     1      -1.774  11.812  19.572  0.00  0.00    +0.000 A 
ATOM      4  C   UNL     1      -0.810  10.767  19.387  0.00  0.00    +0.000 A 
ATOM      5  C   UNL     1       0.156  10.415  20.349  0.00  0.00    +0.000 A 
ATOM      6  C   UNL     1       1.173   9.502  20.087  0.00  0.00    +0.000 A 
ATOM      7  C   UNL     1       1.229   8.795  18.884  0.00  0.00    +0.000 A 
ATOM      8  C   UNL     1       0.213   9.058  17.949  0.00  0.00    +0.000 A 
ATOM      9  C   UNL     1      -0.795  10.022  18.179  0.00  0.00    +0.000 A 
ATOM     10  C   UNL     1      -1.786  10.244  17.212  0.00  0.00    +0.000 A 
ENDROOT
BRANCH   3  11
ATOM     11  C   UNL     1      -1.771  12.737  20.745  0.00  0.00    +0.000 A 
ATOM     12  C   UNL     1      -0.833  13.780  20.850  0.00  0.00    +0.000 A 
ATOM     13  C   UNL     1      -0.840  14.661  21.935  0.00  0.00    +0.000 A 
ATOM     14  C   UNL     1      -1.816  14.549  22.926  0.00  0.00    +0.000 A 
ATOM     15  C   UNL     1      -2.747  13.518  22.856  0.00  0.00    +0.000 A 
ATOM     16  C   UNL     1      -2.686  12.599  21.808  0.00  0.00    +0.000 A 
BRANCH  14  17
ATOM     17  C   UNL     1      -1.876  15.514  24.018  0.00  0.00    +0.000 C 
ATOM     18  C   UNL     1      -1.164  15.318  25.142  0.00  0.00    +0.000 C 
ATOM     19  C   UNL     1      -1.211  16.260  26.306  0.00  0.00    +0.000 C 
ATOM     20  N   UNL     1      -1.882  17.534  26.024  0.00  0.00    +0.000 NA
ATOM     21  C   UNL     1      -3.103  17.318  25.235  0.00  0.00    +0.000 C 
ATOM     22  C   UNL     1      -2.793  16.696  23.866  0.00  0.00    +0.000 C 
ATOM     23  H   UNL     1      -1.243  18.109  25.477  0.00  0.00    +0.000 HD
ENDBRANCH  14  17
ENDBRANCH   3  11
BRANCH   7  24
ATOM     24  C   UNL     1       2.309   7.814  18.653  0.00  0.00    +0.000 A 
ATOM     25  C   UNL     1       2.497   6.735  19.538  0.00  0.00    +0.000 A 
ATOM     26  C   UNL     1       3.542   5.824  19.379  0.00  0.00    +0.000 A 
ATOM     27  C   UNL     1       4.424   5.942  18.302  0.00  0.00    +0.000 A 
ATOM     28  C   UNL     1       4.238   7.001  17.399  0.00  0.00    +0.000 A 
ATOM     29  C   UNL     1       3.204   7.922  17.574  0.00  0.00    +0.000 A 
BRANCH  27  30
ATOM     30  C   UNL     1       5.547   4.956  18.113  0.00  0.00    +0.000 C 
ATOM     31  F   UNL     1       5.128   3.734  17.682  0.00  0.00    +0.000 F 
ATOM     32  F   UNL     1       6.461   5.384  17.199  0.00  0.00    +0.000 F 
ATOM     33  F   UNL     1       6.240   4.731  19.263  0.00  0.00    +0.000 F 
ENDBRANCH  27  30
ENDBRANCH   7  24
BRANCH   1  35
ATOM     34  O   UNL     1      -5.046  11.547  16.760  0.00  0.00    +0.000 OA
ATOM     35  C   UNL     1      -3.874  11.432  16.446  0.00  0.00    +0.000 C 
BRANCH  35  36
ATOM     36  O   UNL     1      -3.440  11.442  15.163  0.00  0.00    +0.000 OA
ATOM     37  H   UNL     1      -3.230  10.571  14.786  0.00  0.00    +0.000 HD
ENDBRANCH  35  36
ENDBRANCH   1  35
TORSDOF 6
ENDMDL
