MODEL 1
REMARK VINA RESULT:      -8.5      0.000      0.000
REMARK  Name = 
REMARK  4 active torsions:
REMARK  status: ('A' for Active; 'I' for Inactive)
REMARK    1  A    between atoms: C_2  and  C_3
REMARK    2  A    between atoms: C_3  and  O_4
REMARK    3  A    between atoms: O_4  and  C_5
REMARK    4  A    between atoms: N_19  and  C_20
REMARK                            x       y       z     vdW  Elec       q    Type
REMARK                         _______ _______ _______ _____ _____    ______ ____
ROOT
ATOM      1  O   UNL     1       1.888   5.284  20.245  0.00  0.00    +0.000 OA
ATOM      2  C   UNL     1       2.185   5.902  19.219  0.00  0.00    +0.000 C 
ATOM      3  N   UNL     1       2.214   7.283  19.182  0.00  0.00    +0.000 N 
ATOM      4  C   UNL     1       2.535   8.119  18.015  0.00  0.00    +0.000 C 
ATOM      5  C   UNL     1       1.464   9.200  17.767  0.00  0.00    +0.000 C 
ATOM      6  N   UNL     1       1.235   9.956  19.007  0.00  0.00    +0.000 N 
ATOM      7  C   UNL     1       0.856   9.125  20.167  0.00  0.00    +0.000 C 
ATOM      8  C   UNL     1       1.928   8.048  20.410  0.00  0.00    +0.000 C 
ENDROOT
BRANCH   6   9
ATOM      9  C   UNL     1       1.193  11.333  19.038  0.00  0.00    +0.000 A 
ATOM     10  C   UNL     1       0.166  12.033  19.691  0.00  0.00    +0.000 A 
ATOM     11  C   UNL     1       0.105  13.433  19.686  0.00  0.00    +0.000 A 
ATOM     12  C   UNL     1       1.081  14.162  19.021  0.00  0.00    +0.000 A 
ATOM     13 CL   UNL     1       1.008  15.880  19.004  0.00  0.00    +0.000 Cl
ATOM     14  C   UNL     1       2.112  13.504  18.364  0.00  0.00    +0.000 A 
ATOM     15  C   UNL     1       2.162  12.105  18.378  0.00  0.00    +0.000 A 
ENDBRANCH   6   9
BRANCH   2  16
ATOM     16  C   UNL     1       2.535   5.126  17.948  0.00  0.00    +0.000 C 
BRANCH  16  17
ATOM     17  O   UNL     1       3.505   4.124  18.243  0.00  0.00    +0.000 OA
BRANCH  17  18
ATOM     18  C   UNL     1       4.833   4.499  18.237  0.00  0.00    +0.000 A 
ATOM     19  C   UNL     1       5.566   4.831  19.309  0.00  0.00    +0.000 A 
ATOM     20  C   UNL     1       6.962   5.280  19.215  0.00  0.00    +0.000 A 
ATOM     21  O   UNL     1       7.586   5.566  20.229  0.00  0.00    +0.000 OA
ATOM     22  O   UNL     1       7.511   5.392  17.951  0.00  0.00    +0.000 OA
ATOM     23  C   UNL     1       6.783   5.006  16.814  0.00  0.00    +0.000 A 
ATOM     24  C   UNL     1       7.452   5.097  15.593  0.00  0.00    +0.000 A 
ATOM     25  C   UNL     1       6.802   4.693  14.432  0.00  0.00    +0.000 A 
ATOM     26  C   UNL     1       5.499   4.201  14.503  0.00  0.00    +0.000 A 
ATOM     27  C   UNL     1       4.836   4.126  15.736  0.00  0.00    +0.000 A 
ATOM     28  C   UNL     1       5.471   4.542  16.913  0.00  0.00    +0.000 A 
ENDBRANCH  17  18
ENDBRANCH  16  17
ENDBRANCH   2  16
TORSDOF 4
ENDMDL
MODEL 2
REMARK VINA RESULT:      -8.3      2.976      4.353
REMARK  Name = 
REMARK  4 active torsions:
REMARK  status: ('A' for Active; 'I' for Inactive)
REMARK    1  A    between atoms: C_2  and  C_3
REMARK    2  A    between atoms: C_3  and  O_4
REMARK    3  A    between atoms: O_4  and  C_5
REMARK    4  A    between atoms: N_19  and  C_20
REMARK                            x       y       z     vdW  Elec       q    Type
REMARK                         _______ _______ _______ _____ _____    ______ ____
ROOT
ATOM      1  O   UNL     1       1.927   9.347  17.458  0.00  0.00    +0.000 OA
ATOM      2  C   UNL     1       1.606   8.972  18.589  0.00  0.00    +0.000 C 
ATOM      3  N   UNL     1       0.618   9.608  19.316  0.00  0.00    +0.000 N 
ATOM      4  C   UNL     1       0.170   9.259  20.673  0.00  0.00    +0.000 C 
ATOM      5  C   UNL     1       0.157  10.485  21.609  0.00  0.00    +0.000 C 
ATOM      6  N   UNL     1      -0.606  11.573  20.981  0.00  0.00    +0.000 N 
ATOM      7  C   UNL     1      -0.123  11.965  19.643  0.00  0.00    +0.000 C 
ATOM      8  C   UNL     1      -0.112  10.739  18.713  0.00  0.00    +0.000 C 
ENDROOT
BRANCH   6   9
ATOM      9  C   UNL     1      -1.567  12.291  21.660  0.00  0.00    +0.000 A 
ATOM     10  C   UNL     1      -2.092  11.858  22.889  0.00  0.00    +0.000 A 
ATOM     11  C   UNL     1      -3.097  12.570  23.556  0.00  0.00    +0.000 A 
ATOM     12  C   UNL     1      -3.600  13.738  22.999  0.00  0.00    +0.000 A 
ATOM     13 CL   UNL     1      -4.839  14.613  23.809  0.00  0.00    +0.000 Cl
ATOM     14  C   UNL     1      -3.106  14.196  21.785  0.00  0.00    +0.000 A 
ATOM     15  C   UNL     1      -2.100  13.477  21.129  0.00  0.00    +0.000 A 
ENDBRANCH   6   9
BRANCH   2  16
ATOM     16  C   UNL     1       2.317   7.769  19.212  0.00  0.00    +0.000 C 
BRANCH  16  17
ATOM     17  O   UNL     1       2.746   6.875  18.189  0.00  0.00    +0.000 OA
BRANCH  17  18
ATOM     18  C   UNL     1       3.614   5.864  18.547  0.00  0.00    +0.000 A 
ATOM     19  C   UNL     1       4.925   5.998  18.793  0.00  0.00    +0.000 A 
ATOM     20  C   UNL     1       5.799   4.859  19.110  0.00  0.00    +0.000 A 
ATOM     21  O   UNL     1       6.990   5.041  19.332  0.00  0.00    +0.000 OA
ATOM     22  O   UNL     1       5.229   3.600  19.112  0.00  0.00    +0.000 OA
ATOM     23  C   UNL     1       3.850   3.435  18.905  0.00  0.00    +0.000 A 
ATOM     24  C   UNL     1       3.365   2.129  18.993  0.00  0.00    +0.000 A 
ATOM     25  C   UNL     1       2.002   1.900  18.837  0.00  0.00    +0.000 A 
ATOM     26  C   UNL     1       1.142   2.973  18.601  0.00  0.00    +0.000 A 
ATOM     27  C   UNL     1       1.646   4.278  18.504  0.00  0.00    +0.000 A 
ATOM     28  C   UNL     1       3.018   4.524  18.645  0.00  0.00    +0.000 A 
ENDBRANCH  17  18
ENDBRANCH  16  17
ENDBRANCH   2  16
TORSDOF 4
ENDMDL
MODEL 3
REMARK VINA RESULT:      -8.3      2.910      4.284
REMARK  Name = 
REMARK  4 active torsions:
REMARK  status: ('A' for Active; 'I' for Inactive)
REMARK    1  A    between atoms: C_2  and  C_3
REMARK    2  A    between atoms: C_3  and  O_4
REMARK    3  A    between atoms: O_4  and  C_5
REMARK    4  A    between atoms: N_19  and  C_20
REMARK                            x       y       z     vdW  Elec       q    Type
REMARK                         _______ _______ _______ _____ _____    ______ ____
ROOT
ATOM      1  O   UNL     1       2.183   9.313  17.578  0.00  0.00    +0.000 OA
ATOM      2  C   UNL     1       1.789   8.872  18.661  0.00  0.00    +0.000 C 
ATOM      3  N   UNL     1       0.920   9.584  19.466  0.00  0.00    +0.000 N 
ATOM      4  C   UNL     1       0.402   9.164  20.778  0.00  0.00    +0.000 C 
ATOM      5  C   UNL     1       0.595  10.255  21.851  0.00  0.00    +0.000 C 
ATOM      6  N   UNL     1       0.043  11.527  21.361  0.00  0.00    +0.000 N 
ATOM      7  C   UNL     1       0.603  11.980  20.073  0.00  0.00    +0.000 C 
ATOM      8  C   UNL     1       0.408  10.888  19.006  0.00  0.00    +0.000 C 
ENDROOT
BRANCH   6   9
ATOM      9  C   UNL     1      -0.784  12.319  22.127  0.00  0.00    +0.000 A 
ATOM     10  C   UNL     1      -0.481  13.661  22.408  0.00  0.00    +0.000 A 
ATOM     11  C   UNL     1      -1.304  14.451  23.221  0.00  0.00    +0.000 A 
ATOM     12  C   UNL     1      -2.455  13.906  23.772  0.00  0.00    +0.000 A 
ATOM     13 CL   UNL     1      -3.466  14.868  24.777  0.00  0.00    +0.000 Cl
ATOM     14  C   UNL     1      -2.787  12.583  23.517  0.00  0.00    +0.000 A 
ATOM     15  C   UNL     1      -1.958  11.804  22.702  0.00  0.00    +0.000 A 
ENDBRANCH   6   9
BRANCH   2  16
ATOM     16  C   UNL     1       2.269   7.498  19.134  0.00  0.00    +0.000 C 
BRANCH  16  17
ATOM     17  O   UNL     1       2.795   6.763  18.032  0.00  0.00    +0.000 OA
BRANCH  17  18
ATOM     18  C   UNL     1       3.673   5.735  18.311  0.00  0.00    +0.000 A 
ATOM     19  C   UNL     1       5.001   5.847  18.456  0.00  0.00    +0.000 A 
ATOM     20  C   UNL     1       5.879   4.692  18.692  0.00  0.00    +0.000 A 
ATOM     21  O   UNL     1       7.086   4.853  18.823  0.00  0.00    +0.000 OA
ATOM     22  O   UNL     1       5.290   3.441  18.727  0.00  0.00    +0.000 OA
ATOM     23  C   UNL     1       3.898   3.299  18.626  0.00  0.00    +0.000 A 
ATOM     24  C   UNL     1       3.400   2.000  18.738  0.00  0.00    +0.000 A 
ATOM     25  C   UNL     1       2.026   1.793  18.687  0.00  0.00    +0.000 A 
ATOM     26  C   UNL     1       1.167   2.881  18.529  0.00  0.00    +0.000 A 
ATOM     27  C   UNL     1       1.683   4.179  18.406  0.00  0.00    +0.000 A 
ATOM     28  C   UNL     1       3.065   4.404  18.442  0.00  0.00    +0.000 A 
ENDBRANCH  17  18
ENDBRANCH  16  17
ENDBRANCH   2  16
TORSDOF 4
ENDMDL
MODEL 4
REMARK VINA RESULT:      -8.3      3.073      4.716
REMARK  Name = 
REMARK  4 active torsions:
REMARK  status: ('A' for Active; 'I' for Inactive)
REMARK    1  A    between atoms: C_2  and  C_3
REMARK    2  A    between atoms: C_3  and  O_4
REMARK    3  A    between atoms: O_4  and  C_5
REMARK    4  A    between atoms: N_19  and  C_20
REMARK                            x       y       z     vdW  Elec       q    Type
REMARK                         _______ _______ _______ _____ _____    ______ ____
ROOT
ATOM      1  O   UNL     1       2.013   9.370  17.438  0.00  0.00    +0.000 OA
ATOM      2  C   UNL     1       1.667   8.983  18.558  0.00  0.00    +0.000 C 
ATOM      3  N   UNL     1       0.611   9.563  19.236  0.00  0.00    +0.000 N 
ATOM      4  C   UNL     1       0.127   9.194  20.576  0.00  0.00    +0.000 C 
ATOM      5  C   UNL     1       0.000  10.423  21.501  0.00  0.00    +0.000 C 
ATOM      6  N   UNL     1      -0.800  11.459  20.831  0.00  0.00    +0.000 N 
ATOM      7  C   UNL     1      -0.283  11.872  19.512  0.00  0.00    +0.000 C 
ATOM      8  C   UNL     1      -0.158  10.643  18.593  0.00  0.00    +0.000 C 
ENDROOT
BRANCH   6   9
ATOM      9  C   UNL     1      -1.831  12.121  21.462  0.00  0.00    +0.000 A 
ATOM     10  C   UNL     1      -2.703  12.976  20.769  0.00  0.00    +0.000 A 
ATOM     11  C   UNL     1      -3.725  13.677  21.422  0.00  0.00    +0.000 A 
ATOM     12  C   UNL     1      -3.893  13.535  22.792  0.00  0.00    +0.000 A 
ATOM     13 CL   UNL     1      -5.140  14.399  23.601  0.00  0.00    +0.000 Cl
ATOM     14  C   UNL     1      -3.049  12.698  23.511  0.00  0.00    +0.000 A 
ATOM     15  C   UNL     1      -2.033  12.001  22.847  0.00  0.00    +0.000 A 
ENDBRANCH   6   9
BRANCH   2  16
ATOM     16  C   UNL     1       2.421   7.829  19.221  0.00  0.00    +0.000 C 
BRANCH  16  17
ATOM     17  O   UNL     1       2.655   6.793  18.271  0.00  0.00    +0.000 OA
BRANCH  17  18
ATOM     18  C   UNL     1       3.522   5.781  18.630  0.00  0.00    +0.000 A 
ATOM     19  C   UNL     1       4.818   5.695  18.301  0.00  0.00    +0.000 A 
ATOM     20  C   UNL     1       5.663   4.551  18.671  0.00  0.00    +0.000 A 
ATOM     21  O   UNL     1       6.845   4.528  18.347  0.00  0.00    +0.000 OA
ATOM     22  O   UNL     1       5.063   3.512  19.359  0.00  0.00    +0.000 OA
ATOM     23  C   UNL     1       3.721   3.596  19.759  0.00  0.00    +0.000 A 
ATOM     24  C   UNL     1       3.231   2.524  20.506  0.00  0.00    +0.000 A 
ATOM     25  C   UNL     1       1.920   2.561  20.968  0.00  0.00    +0.000 A 
ATOM     26  C   UNL     1       1.117   3.667  20.685  0.00  0.00    +0.000 A 
ATOM     27  C   UNL     1       1.620   4.731  19.924  0.00  0.00    +0.000 A 
ATOM     28  C   UNL     1       2.934   4.704  19.440  0.00  0.00    +0.000 A 
ENDBRANCH  17  18
ENDBRANCH  16  17
ENDBRANCH   2  16
TORSDOF 4
ENDMDL
MODEL 5
REMARK VINA RESULT:      -8.3      3.170      4.385
REMARK  Name = 
REMARK  4 active torsions:
REMARK  status: ('A' for Active; 'I' for Inactive)
REMARK    1  A    between atoms: C_2  and  C_3
REMARK    2  A    between atoms: C_3  and  O_4
REMARK    3  A    between atoms: O_4  and  C_5
REMARK    4  A    between atoms: N_19  and  C_20
REMARK                            x       y       z     vdW  Elec       q    Type
REMARK                         _______ _______ _______ _____ _____    ______ ____
ROOT
ATOM      1  O   UNL     1       1.622   7.229  20.893  0.00  0.00    +0.000 OA
ATOM      2  C   UNL     1       1.518   8.335  20.356  0.00  0.00    +0.000 C 
ATOM      3  N   UNL     1       0.998   9.426  21.027  0.00  0.00    +0.000 N 
ATOM      4  C   UNL     1       0.813  10.779  20.482  0.00  0.00    +0.000 C 
ATOM      5  C   UNL     1      -0.619  11.304  20.714  0.00  0.00    +0.000 C 
ATOM      6  N   UNL     1      -0.964  11.172  22.137  0.00  0.00    +0.000 N 
ATOM      7  C   UNL     1      -0.835   9.803  22.672  0.00  0.00    +0.000 C 
ATOM      8  C   UNL     1       0.595   9.284  22.438  0.00  0.00    +0.000 C 
ENDROOT
BRANCH   6   9
ATOM      9  C   UNL     1      -1.538  12.197  22.857  0.00  0.00    +0.000 A 
ATOM     10  C   UNL     1      -2.831  12.097  23.397  0.00  0.00    +0.000 A 
ATOM     11  C   UNL     1      -3.426  13.156  24.094  0.00  0.00    +0.000 A 
ATOM     12  C   UNL     1      -2.731  14.346  24.265  0.00  0.00    +0.000 A 
ATOM     13 CL   UNL     1      -3.458  15.652  25.113  0.00  0.00    +0.000 Cl
ATOM     14  C   UNL     1      -1.451  14.482  23.745  0.00  0.00    +0.000 A 
ATOM     15  C   UNL     1      -0.866  13.415  23.052  0.00  0.00    +0.000 A 
ENDBRANCH   6   9
BRANCH   2  16
ATOM     16  C   UNL     1       1.977   8.515  18.907  0.00  0.00    +0.000 C 
BRANCH  16  17
ATOM     17  O   UNL     1       1.799   7.298  18.188  0.00  0.00    +0.000 OA
BRANCH  17  18
ATOM     18  C   UNL     1       2.933   6.611  17.803  0.00  0.00    +0.000 A 
ATOM     19  C   UNL     1       4.084   7.155  17.386  0.00  0.00    +0.000 A 
ATOM     20  C   UNL     1       5.230   6.354  16.933  0.00  0.00    +0.000 A 
ATOM     21  O   UNL     1       6.260   6.905  16.567  0.00  0.00    +0.000 OA
ATOM     22  O   UNL     1       5.077   4.980  16.913  0.00  0.00    +0.000 OA
ATOM     23  C   UNL     1       3.901   4.380  17.390  0.00  0.00    +0.000 A 
ATOM     24  C   UNL     1       3.875   2.985  17.387  0.00  0.00    +0.000 A 
ATOM     25  C   UNL     1       2.755   2.326  17.883  0.00  0.00    +0.000 A 
ATOM     26  C   UNL     1       1.681   3.065  18.379  0.00  0.00    +0.000 A 
ATOM     27  C   UNL     1       1.717   4.466  18.364  0.00  0.00    +0.000 A 
ATOM     28  C   UNL     1       2.831   5.145  17.856  0.00  0.00    +0.000 A 
ENDBRANCH  17  18
ENDBRANCH  16  17
ENDBRANCH   2  16
TORSDOF 4
ENDMDL
MODEL 6
REMARK VINA RESULT:      -8.2      2.957      4.352
REMARK  Name = 
REMARK  4 active torsions:
REMARK  status: ('A' for Active; 'I' for Inactive)
REMARK    1  A    between atoms: C_2  and  C_3
REMARK    2  A    between atoms: C_3  and  O_4
REMARK    3  A    between atoms: O_4  and  C_5
REMARK    4  A    between atoms: N_19  and  C_20
REMARK                            x       y       z     vdW  Elec       q    Type
REMARK                         _______ _______ _______ _____ _____    ______ ____
ROOT
ATOM      1  O   UNL     1       1.864   9.483  17.466  0.00  0.00    +0.000 OA
ATOM      2  C   UNL     1       1.525   9.089  18.586  0.00  0.00    +0.000 C 
ATOM      3  N   UNL     1       0.496   9.685  19.289  0.00  0.00    +0.000 N 
ATOM      4  C   UNL     1       0.022   9.310  20.630  0.00  0.00    +0.000 C 
ATOM      5  C   UNL     1      -0.058  10.527  21.575  0.00  0.00    +0.000 C 
ATOM      6  N   UNL     1      -0.840  11.594  20.934  0.00  0.00    +0.000 N 
ATOM      7  C   UNL     1      -0.333  12.013  19.613  0.00  0.00    +0.000 C 
ATOM      8  C   UNL     1      -0.254  10.796  18.674  0.00  0.00    +0.000 C 
ENDROOT
BRANCH   6   9
ATOM      9  C   UNL     1      -1.843  12.273  21.590  0.00  0.00    +0.000 A 
ATOM     10  C   UNL     1      -2.512  13.363  21.008  0.00  0.00    +0.000 A 
ATOM     11  C   UNL     1      -3.503  14.075  21.694  0.00  0.00    +0.000 A 
ATOM     12  C   UNL     1      -3.846  13.706  22.988  0.00  0.00    +0.000 A 
ATOM     13 CL   UNL     1      -5.057  14.581  23.839  0.00  0.00    +0.000 Cl
ATOM     14  C   UNL     1      -3.207  12.634  23.596  0.00  0.00    +0.000 A 
ATOM     15  C   UNL     1      -2.219  11.929  22.899  0.00  0.00    +0.000 A 
ENDBRANCH   6   9
BRANCH   2  16
ATOM     16  C   UNL     1       2.258   7.905  19.220  0.00  0.00    +0.000 C 
BRANCH  16  17
ATOM     17  O   UNL     1       3.268   7.429  18.335  0.00  0.00    +0.000 OA
BRANCH  17  18
ATOM     18  C   UNL     1       3.178   6.120  17.907  0.00  0.00    +0.000 A 
ATOM     19  C   UNL     1       2.132   5.300  18.084  0.00  0.00    +0.000 A 
ATOM     20  C   UNL     1       2.135   3.895  17.652  0.00  0.00    +0.000 A 
ATOM     21  O   UNL     1       1.149   3.193  17.836  0.00  0.00    +0.000 OA
ATOM     22  O   UNL     1       3.293   3.410  17.072  0.00  0.00    +0.000 OA
ATOM     23  C   UNL     1       4.385   4.258  16.830  0.00  0.00    +0.000 A 
ATOM     24  C   UNL     1       5.479   3.684  16.180  0.00  0.00    +0.000 A 
ATOM     25  C   UNL     1       6.579   4.478  15.875  0.00  0.00    +0.000 A 
ATOM     26  C   UNL     1       6.573   5.831  16.216  0.00  0.00    +0.000 A 
ATOM     27  C   UNL     1       5.472   6.390  16.879  0.00  0.00    +0.000 A 
ATOM     28  C   UNL     1       4.361   5.602  17.206  0.00  0.00    +0.000 A 
ENDBRANCH  17  18
ENDBRANCH  16  17
ENDBRANCH   2  16
TORSDOF 4
ENDMDL
MODEL 7
REMARK VINA RESULT:      -8.2      3.086      4.581
REMARK  Name = 
REMARK  4 active torsions:
REMARK  status: ('A' for Active; 'I' for Inactive)
REMARK    1  A    between atoms: C_2  and  C_3
REMARK    2  A    between atoms: C_3  and  O_4
REMARK    3  A    between atoms: O_4  and  C_5
REMARK    4  A    between atoms: N_19  and  C_20
REMARK                            x       y       z     vdW  Elec       q    Type
REMARK                         _______ _______ _______ _____ _____    ______ ____
ROOT
ATOM      1  O   UNL     1       2.023   8.677  18.982  0.00  0.00    +0.000 OA
ATOM      2  C   UNL     1       1.379   8.357  19.985  0.00  0.00    +0.000 C 
ATOM      3  N   UNL     1       0.487   9.224  20.587  0.00  0.00    +0.000 N 
ATOM      4  C   UNL     1      -0.316   8.956  21.790  0.00  0.00    +0.000 C 
ATOM      5  C   UNL     1      -0.170  10.074  22.843  0.00  0.00    +0.000 C 
ATOM      6  N   UNL     1      -0.438  11.376  22.214  0.00  0.00    +0.000 N 
ATOM      7  C   UNL     1       0.406  11.673  21.041  0.00  0.00    +0.000 C 
ATOM      8  C   UNL     1       0.257  10.555  19.994  0.00  0.00    +0.000 C 
ENDROOT
BRANCH   6   9
ATOM      9  C   UNL     1      -1.271  12.315  22.783  0.00  0.00    +0.000 A 
ATOM     10  C   UNL     1      -0.872  13.647  22.975  0.00  0.00    +0.000 A 
ATOM     11  C   UNL     1      -1.707  14.589  23.590  0.00  0.00    +0.000 A 
ATOM     12  C   UNL     1      -2.968  14.209  24.029  0.00  0.00    +0.000 A 
ATOM     13 CL   UNL     1      -3.995  15.358  24.792  0.00  0.00    +0.000 Cl
ATOM     14  C   UNL     1      -3.397  12.900  23.857  0.00  0.00    +0.000 A 
ATOM     15  C   UNL     1      -2.554  11.969  23.239  0.00  0.00    +0.000 A 
ENDBRANCH   6   9
BRANCH   2  16
ATOM     16  C   UNL     1       1.565   6.962  20.586  0.00  0.00    +0.000 C 
BRANCH  16  17
ATOM     17  O   UNL     1       2.760   6.373  20.081  0.00  0.00    +0.000 OA
BRANCH  17  18
ATOM     18  C   UNL     1       2.631   5.289  19.237  0.00  0.00    +0.000 A 
ATOM     19  C   UNL     1       1.743   4.292  19.359  0.00  0.00    +0.000 A 
ATOM     20  C   UNL     1       1.707   3.137  18.451  0.00  0.00    +0.000 A 
ATOM     21  O   UNL     1       0.869   2.257  18.607  0.00  0.00    +0.000 OA
ATOM     22  O   UNL     1       2.665   3.080  17.456  0.00  0.00    +0.000 OA
ATOM     23  C   UNL     1       3.576   4.131  17.274  0.00  0.00    +0.000 A 
ATOM     24  C   UNL     1       4.458   4.005  16.200  0.00  0.00    +0.000 A 
ATOM     25  C   UNL     1       5.362   5.029  15.940  0.00  0.00    +0.000 A 
ATOM     26  C   UNL     1       5.371   6.166  16.748  0.00  0.00    +0.000 A 
ATOM     27  C   UNL     1       4.486   6.274  17.830  0.00  0.00    +0.000 A 
ATOM     28  C   UNL     1       3.579   5.245  18.115  0.00  0.00    +0.000 A 
ENDBRANCH  17  18
ENDBRANCH  16  17
ENDBRANCH   2  16
TORSDOF 4
ENDMDL
MODEL 8
REMARK VINA RESULT:      -8.1      2.962      4.249
REMARK  Name = 
REMARK  4 active torsions:
REMARK  status: ('A' for Active; 'I' for Inactive)
REMARK    1  A    between atoms: C_2  and  C_3
REMARK    2  A    between atoms: C_3  and  O_4
REMARK    3  A    between atoms: O_4  and  C_5
REMARK    4  A    between atoms: N_19  and  C_20
REMARK                            x       y       z     vdW  Elec       q    Type
REMARK                         _______ _______ _______ _____ _____    ______ ____
ROOT
ATOM      1  O   UNL     1       1.887   7.129  20.908  0.00  0.00    +0.000 OA
ATOM      2  C   UNL     1       1.627   8.150  20.264  0.00  0.00    +0.000 C 
ATOM      3  N   UNL     1       1.098   9.276  20.865  0.00  0.00    +0.000 N 
ATOM      4  C   UNL     1       0.736  10.535  20.194  0.00  0.00    +0.000 C 
ATOM      5  C   UNL     1      -0.698  10.982  20.544  0.00  0.00    +0.000 C 
ATOM      6  N   UNL     1      -0.860  11.006  22.006  0.00  0.00    +0.000 N 
ATOM      7  C   UNL     1      -0.553   9.728  22.675  0.00  0.00    +0.000 C 
ATOM      8  C   UNL     1       0.879   9.285  22.322  0.00  0.00    +0.000 C 
ENDROOT
BRANCH   6   9
ATOM      9  C   UNL     1      -1.431  12.071  22.669  0.00  0.00    +0.000 A 
ATOM     10  C   UNL     1      -0.736  13.271  22.891  0.00  0.00    +0.000 A 
ATOM     11  C   UNL     1      -1.306  14.336  23.601  0.00  0.00    +0.000 A 
ATOM     12  C   UNL     1      -2.593  14.216  24.107  0.00  0.00    +0.000 A 
ATOM     13 CL   UNL     1      -3.296  15.516  24.986  0.00  0.00    +0.000 Cl
ATOM     14  C   UNL     1      -3.311  13.044  23.908  0.00  0.00    +0.000 A 
ATOM     15  C   UNL     1      -2.731  11.988  23.195  0.00  0.00    +0.000 A 
ENDBRANCH   6   9
BRANCH   2  16
ATOM     16  C   UNL     1       1.895   8.178  18.758  0.00  0.00    +0.000 C 
BRANCH  16  17
ATOM     17  O   UNL     1       3.168   7.600  18.481  0.00  0.00    +0.000 OA
BRANCH  17  18
ATOM     18  C   UNL     1       3.192   6.311  17.989  0.00  0.00    +0.000 A 
ATOM     19  C   UNL     1       2.175   5.438  18.010  0.00  0.00    +0.000 A 
ATOM     20  C   UNL     1       2.296   4.057  17.520  0.00  0.00    +0.000 A 
ATOM     21  O   UNL     1       1.331   3.303  17.559  0.00  0.00    +0.000 OA
ATOM     22  O   UNL     1       3.534   3.653  17.056  0.00  0.00    +0.000 OA
ATOM     23  C   UNL     1       4.603   4.559  16.977  0.00  0.00    +0.000 A 
ATOM     24  C   UNL     1       5.790   4.067  16.432  0.00  0.00    +0.000 A 
ATOM     25  C   UNL     1       6.877   4.924  16.290  0.00  0.00    +0.000 A 
ATOM     26  C   UNL     1       6.765   6.256  16.686  0.00  0.00    +0.000 A 
ATOM     27  C   UNL     1       5.570   6.733  17.243  0.00  0.00    +0.000 A 
ATOM     28  C   UNL     1       4.470   5.881  17.406  0.00  0.00    +0.000 A 
ENDBRANCH  17  18
ENDBRANCH  16  17
ENDBRANCH   2  16
TORSDOF 4
ENDMDL
MODEL 9
REMARK VINA RESULT:      -8.1      1.757      2.146
REMARK  Name = 
REMARK  4 active torsions:
REMARK  status: ('A' for Active; 'I' for Inactive)
REMARK    1  A    between atoms: C_2  and  C_3
REMARK    2  A    between atoms: C_3  and  O_4
REMARK    3  A    between atoms: O_4  and  C_5
REMARK    4  A    between atoms: N_19  and  C_20
REMARK                            x       y       z     vdW  Elec       q    Type
REMARK                         _______ _______ _______ _____ _____    ______ ____
ROOT
ATOM      1  O   UNL     1       2.158   5.667  20.516  0.00  0.00    +0.000 OA
ATOM      2  C   UNL     1       2.163   6.627  19.740  0.00  0.00    +0.000 C 
ATOM      3  N   UNL     1       1.714   7.877  20.123  0.00  0.00    +0.000 N 
ATOM      4  C   UNL     1       1.660   9.081  19.280  0.00  0.00    +0.000 C 
ATOM      5  C   UNL     1       0.269   9.749  19.317  0.00  0.00    +0.000 C 
ATOM      6  N   UNL     1      -0.130   9.970  20.715  0.00  0.00    +0.000 N 
ATOM      7  C   UNL     1      -0.132   8.753  21.549  0.00  0.00    +0.000 C 
ATOM      8  C   UNL     1       1.257   8.090  21.509  0.00  0.00    +0.000 C 
ENDROOT
BRANCH   6   9
ATOM      9  C   UNL     1      -0.640  11.171  21.158  0.00  0.00    +0.000 A 
ATOM     10  C   UNL     1      -0.977  11.388  22.504  0.00  0.00    +0.000 A 
ATOM     11  C   UNL     1      -1.532  12.597  22.942  0.00  0.00    +0.000 A 
ATOM     12  C   UNL     1      -1.762  13.620  22.033  0.00  0.00    +0.000 A 
ATOM     13 CL   UNL     1      -2.450  15.103  22.563  0.00  0.00    +0.000 Cl
ATOM     14  C   UNL     1      -1.441  13.442  20.694  0.00  0.00    +0.000 A 
ATOM     15  C   UNL     1      -0.885  12.230  20.268  0.00  0.00    +0.000 A 
ENDBRANCH   6   9
BRANCH   2  16
ATOM     16  C   UNL     1       2.681   6.439  18.313  0.00  0.00    +0.000 C 
BRANCH  16  17
ATOM     17  O   UNL     1       3.331   5.176  18.196  0.00  0.00    +0.000 OA
BRANCH  17  18
ATOM     18  C   UNL     1       4.710   5.161  18.229  0.00  0.00    +0.000 A 
ATOM     19  C   UNL     1       5.478   5.358  19.310  0.00  0.00    +0.000 A 
ATOM     20  C   UNL     1       6.946   5.388  19.253  0.00  0.00    +0.000 A 
ATOM     21  O   UNL     1       7.598   5.566  20.275  0.00  0.00    +0.000 OA
ATOM     22  O   UNL     1       7.539   5.241  18.013  0.00  0.00    +0.000 OA
ATOM     23  C   UNL     1       6.763   4.987  16.871  0.00  0.00    +0.000 A 
ATOM     24  C   UNL     1       7.463   4.789  15.681  0.00  0.00    +0.000 A 
ATOM     25  C   UNL     1       6.757   4.493  14.520  0.00  0.00    +0.000 A 
ATOM     26  C   UNL     1       5.366   4.393  14.561  0.00  0.00    +0.000 A 
ATOM     27  C   UNL     1       4.676   4.606  15.763  0.00  0.00    +0.000 A 
ATOM     28  C   UNL     1       5.370   4.918  16.938  0.00  0.00    +0.000 A 
ENDBRANCH  17  18
ENDBRANCH  16  17
ENDBRANCH   2  16
TORSDOF 4
ENDMDL
