MODEL 1
REMARK VINA RESULT:      -7.5      0.000      0.000
REMARK  Name = 
REMARK  4 active torsions:
REMARK  status: ('A' for Active; 'I' for Inactive)
REMARK    1  A    between atoms: C_1  and  N_2
REMARK    2  A    between atoms: N_2  and  C_3
REMARK    3  A    between atoms: C_9  and  C_10
REMARK    4  A    between atoms: C_16  and  C_17
REMARK                            x       y       z     vdW  Elec       q    Type
REMARK                         _______ _______ _______ _____ _____    ______ ____
ROOT
ATOM      1  C   UNL     1       0.999  12.343  19.682  0.00  0.00    +0.000 C 
ATOM      2  N   UNL     1       1.472  11.065  19.173  0.00  0.00    +0.000 N 
ATOM      3  C   UNL     1       2.206  11.071  17.922  0.00  0.00    +0.000 C 
ATOM      4  C   UNL     1       1.147   9.877  19.839  0.00  0.00    +0.000 A 
ATOM      5  N   UNL     1       0.351   9.961  20.892  0.00  0.00    +0.000 NA
ATOM      6  C   UNL     1      -0.013   8.819  21.571  0.00  0.00    +0.000 A 
ATOM      7  C   UNL     1       0.401   7.587  21.247  0.00  0.00    +0.000 A 
ATOM      8  N   UNL     1       1.276   7.441  20.183  0.00  0.00    +0.000 N 
ATOM      9  C   UNL     1       1.941   6.340  19.650  0.00  0.00    +0.000 A 
ATOM     10  C   UNL     1       2.669   6.887  18.586  0.00  0.00    +0.000 A 
ATOM     11  N   UNL     1       2.438   8.238  18.454  0.00  0.00    +0.000 NA
ATOM     12  C   UNL     1       1.639   8.547  19.450  0.00  0.00    +0.000 A 
ENDROOT
BRANCH  10  13
ATOM     13  C   UNL     1       3.595   6.202  17.689  0.00  0.00    +0.000 A 
ATOM     14  C   UNL     1       4.519   6.956  16.945  0.00  0.00    +0.000 A 
ATOM     15  C   UNL     1       5.396   6.329  16.055  0.00  0.00    +0.000 A 
ATOM     16  C   UNL     1       5.344   4.951  15.897  0.00  0.00    +0.000 A 
ATOM     17  F   UNL     1       6.164   4.351  15.024  0.00  0.00    +0.000 F 
ATOM     18  C   UNL     1       4.458   4.183  16.639  0.00  0.00    +0.000 A 
ATOM     19  C   UNL     1       3.607   4.807  17.554  0.00  0.00    +0.000 A 
ENDBRANCH  10  13
BRANCH   9  20
ATOM     20  C   UNL     1       1.874   4.967  20.183  0.00  0.00    +0.000 A 
ATOM     21  C   UNL     1       2.570   4.613  21.344  0.00  0.00    +0.000 A 
ATOM     22  C   UNL     1       2.355   3.362  21.902  0.00  0.00    +0.000 A 
ATOM     23  N   UNL     1       1.555   2.425  21.353  0.00  0.00    +0.000 NA
ATOM     24  C   UNL     1       0.929   2.762  20.209  0.00  0.00    +0.000 A 
ATOM     25  C   UNL     1       1.039   4.006  19.607  0.00  0.00    +0.000 A 
ENDBRANCH   9  20
TORSDOF 2
ENDMDL
MODEL 2
REMARK VINA RESULT:      -7.4      0.284      1.363
REMARK  Name = 
REMARK  4 active torsions:
REMARK  status: ('A' for Active; 'I' for Inactive)
REMARK    1  A    between atoms: C_1  and  N_2
REMARK    2  A    between atoms: N_2  and  C_3
REMARK    3  A    between atoms: C_9  and  C_10
REMARK    4  A    between atoms: C_16  and  C_17
REMARK                            x       y       z     vdW  Elec       q    Type
REMARK                         _______ _______ _______ _____ _____    ______ ____
ROOT
ATOM      1  C   UNL     1       1.021  12.395  19.586  0.00  0.00    +0.000 C 
ATOM      2  N   UNL     1       1.463  11.087  19.129  0.00  0.00    +0.000 N 
ATOM      3  C   UNL     1       2.191  11.024  17.877  0.00  0.00    +0.000 C 
ATOM      4  C   UNL     1       1.113   9.936  19.846  0.00  0.00    +0.000 A 
ATOM      5  N   UNL     1       0.324  10.082  20.896  0.00  0.00    +0.000 NA
ATOM      6  C   UNL     1      -0.064   8.977  21.623  0.00  0.00    +0.000 A 
ATOM      7  C   UNL     1       0.320   7.723  21.350  0.00  0.00    +0.000 A 
ATOM      8  N   UNL     1       1.187   7.513  20.291  0.00  0.00    +0.000 N 
ATOM      9  C   UNL     1       1.825   6.376  19.802  0.00  0.00    +0.000 A 
ATOM     10  C   UNL     1       2.561   6.861  18.714  0.00  0.00    +0.000 A 
ATOM     11  N   UNL     1       2.361   8.210  18.527  0.00  0.00    +0.000 NA
ATOM     12  C   UNL     1       1.573   8.579  19.511  0.00  0.00    +0.000 A 
ENDROOT
BRANCH  10  13
ATOM     13  C   UNL     1       3.467   6.118  17.844  0.00  0.00    +0.000 A 
ATOM     14  C   UNL     1       3.265   4.740  17.652  0.00  0.00    +0.000 A 
ATOM     15  C   UNL     1       4.136   3.999  16.848  0.00  0.00    +0.000 A 
ATOM     16  C   UNL     1       5.216   4.628  16.244  0.00  0.00    +0.000 A 
ATOM     17  F   UNL     1       6.068   3.914  15.497  0.00  0.00    +0.000 F 
ATOM     18  C   UNL     1       5.422   5.992  16.398  0.00  0.00    +0.000 A 
ATOM     19  C   UNL     1       4.531   6.738  17.172  0.00  0.00    +0.000 A 
ENDBRANCH  10  13
BRANCH   9  20
ATOM     20  C   UNL     1       1.729   5.028  20.392  0.00  0.00    +0.000 A 
ATOM     21  C   UNL     1       0.763   4.118  19.948  0.00  0.00    +0.000 A 
ATOM     22  C   UNL     1       0.806   2.812  20.412  0.00  0.00    +0.000 A 
ATOM     23  N   UNL     1       1.693   2.372  21.326  0.00  0.00    +0.000 NA
ATOM     24  C   UNL     1       2.588   3.272  21.781  0.00  0.00    +0.000 A 
ATOM     25  C   UNL     1       2.656   4.583  21.337  0.00  0.00    +0.000 A 
ENDBRANCH   9  20
TORSDOF 2
ENDMDL
MODEL 3
REMARK VINA RESULT:      -6.7      2.197      4.615
REMARK  Name = 
REMARK  4 active torsions:
REMARK  status: ('A' for Active; 'I' for Inactive)
REMARK    1  A    between atoms: C_1  and  N_2
REMARK    2  A    between atoms: N_2  and  C_3
REMARK    3  A    between atoms: C_9  and  C_10
REMARK    4  A    between atoms: C_16  and  C_17
REMARK                            x       y       z     vdW  Elec       q    Type
REMARK                         _______ _______ _______ _____ _____    ______ ____
ROOT
ATOM      1  C   UNL     1      -0.738  11.525  21.008  0.00  0.00    +0.000 C 
ATOM      2  N   UNL     1      -0.123  10.207  20.991  0.00  0.00    +0.000 N 
ATOM      3  C   UNL     1      -0.386   9.328  22.114  0.00  0.00    +0.000 C 
ATOM      4  C   UNL     1       0.755   9.854  19.959  0.00  0.00    +0.000 A 
ATOM      5  N   UNL     1       1.045  10.775  19.056  0.00  0.00    +0.000 NA
ATOM      6  C   UNL     1       1.918  10.482  18.031  0.00  0.00    +0.000 A 
ATOM      7  C   UNL     1       2.507   9.291  17.861  0.00  0.00    +0.000 A 
ATOM      8  N   UNL     1       2.203   8.270  18.747  0.00  0.00    +0.000 N 
ATOM      9  C   UNL     1       2.569   6.928  18.804  0.00  0.00    +0.000 A 
ATOM     10  C   UNL     1       1.911   6.463  19.950  0.00  0.00    +0.000 A 
ATOM     11  N   UNL     1       1.211   7.470  20.577  0.00  0.00    +0.000 NA
ATOM     12  C   UNL     1       1.366   8.524  19.809  0.00  0.00    +0.000 A 
ENDROOT
BRANCH  10  13
ATOM     13  C   UNL     1       1.892   5.105  20.483  0.00  0.00    +0.000 A 
ATOM     14  C   UNL     1       0.785   4.278  20.224  0.00  0.00    +0.000 A 
ATOM     15  C   UNL     1       0.727   2.982  20.747  0.00  0.00    +0.000 A 
ATOM     16  C   UNL     1       1.766   2.515  21.539  0.00  0.00    +0.000 A 
ATOM     17  F   UNL     1       1.700   1.285  22.066  0.00  0.00    +0.000 F 
ATOM     18  C   UNL     1       2.881   3.303  21.788  0.00  0.00    +0.000 A 
ATOM     19  C   UNL     1       2.955   4.584  21.235  0.00  0.00    +0.000 A 
ENDBRANCH  10  13
BRANCH   9  20
ATOM     20  C   UNL     1       3.412   6.234  17.814  0.00  0.00    +0.000 A 
ATOM     21  C   UNL     1       4.480   6.893  17.195  0.00  0.00    +0.000 A 
ATOM     22  C   UNL     1       5.345   6.163  16.393  0.00  0.00    +0.000 A 
ATOM     23  N   UNL     1       5.185   4.854  16.116  0.00  0.00    +0.000 NA
ATOM     24  C   UNL     1       4.125   4.243  16.681  0.00  0.00    +0.000 A 
ATOM     25  C   UNL     1       3.238   4.875  17.539  0.00  0.00    +0.000 A 
ENDBRANCH   9  20
TORSDOF 2
ENDMDL
MODEL 4
REMARK VINA RESULT:      -6.7      6.880      9.076
REMARK  Name = 
REMARK  4 active torsions:
REMARK  status: ('A' for Active; 'I' for Inactive)
REMARK    1  A    between atoms: C_1  and  N_2
REMARK    2  A    between atoms: N_2  and  C_3
REMARK    3  A    between atoms: C_9  and  C_10
REMARK    4  A    between atoms: C_16  and  C_17
REMARK                            x       y       z     vdW  Elec       q    Type
REMARK                         _______ _______ _______ _____ _____    ______ ____
ROOT
ATOM      1  C   UNL     1      -7.333  13.391  23.950  0.00  0.00    +0.000 C 
ATOM      2  N   UNL     1      -6.136  13.353  23.124  0.00  0.00    +0.000 N 
ATOM      3  C   UNL     1      -4.960  14.045  23.614  0.00  0.00    +0.000 C 
ATOM      4  C   UNL     1      -6.168  12.737  21.867  0.00  0.00    +0.000 A 
ATOM      5  N   UNL     1      -7.326  12.260  21.445  0.00  0.00    +0.000 NA
ATOM      6  C   UNL     1      -7.414  11.660  20.207  0.00  0.00    +0.000 A 
ATOM      7  C   UNL     1      -6.378  11.503  19.373  0.00  0.00    +0.000 A 
ATOM      8  N   UNL     1      -5.128  11.939  19.781  0.00  0.00    +0.000 N 
ATOM      9  C   UNL     1      -3.863  11.857  19.203  0.00  0.00    +0.000 A 
ATOM     10  C   UNL     1      -3.039  12.492  20.141  0.00  0.00    +0.000 A 
ATOM     11  N   UNL     1      -3.761  12.964  21.214  0.00  0.00    +0.000 NA
ATOM     12  C   UNL     1      -4.997  12.578  20.992  0.00  0.00    +0.000 A 
ENDROOT
BRANCH  10  13
ATOM     13  C   UNL     1      -1.590  12.663  20.089  0.00  0.00    +0.000 A 
ATOM     14  C   UNL     1      -0.758  11.674  20.642  0.00  0.00    +0.000 A 
ATOM     15  C   UNL     1       0.631  11.827  20.634  0.00  0.00    +0.000 A 
ATOM     16  C   UNL     1       1.192  12.972  20.085  0.00  0.00    +0.000 A 
ATOM     17  F   UNL     1       2.522  13.134  20.102  0.00  0.00    +0.000 F 
ATOM     18  C   UNL     1       0.393  13.950  19.510  0.00  0.00    +0.000 A 
ATOM     19  C   UNL     1      -0.993  13.779  19.487  0.00  0.00    +0.000 A 
ENDBRANCH  10  13
BRANCH   9  20
ATOM     20  C   UNL     1      -3.554  11.191  17.925  0.00  0.00    +0.000 A 
ATOM     21  C   UNL     1      -4.153  11.613  16.733  0.00  0.00    +0.000 A 
ATOM     22  C   UNL     1      -3.718  11.070  15.533  0.00  0.00    +0.000 A 
ATOM     23  N   UNL     1      -2.786  10.100  15.445  0.00  0.00    +0.000 NA
ATOM     24  C   UNL     1      -2.252   9.669  16.605  0.00  0.00    +0.000 A 
ATOM     25  C   UNL     1      -2.583  10.189  17.846  0.00  0.00    +0.000 A 
ENDBRANCH   9  20
TORSDOF 2
ENDMDL
MODEL 5
REMARK VINA RESULT:      -6.7      1.114      1.511
REMARK  Name = 
REMARK  4 active torsions:
REMARK  status: ('A' for Active; 'I' for Inactive)
REMARK    1  A    between atoms: C_1  and  N_2
REMARK    2  A    between atoms: N_2  and  C_3
REMARK    3  A    between atoms: C_9  and  C_10
REMARK    4  A    between atoms: C_16  and  C_17
REMARK                            x       y       z     vdW  Elec       q    Type
REMARK                         _______ _______ _______ _____ _____    ______ ____
ROOT
ATOM      1  C   UNL     1       0.771  11.736  19.354  0.00  0.00    +0.000 C 
ATOM      2  N   UNL     1       1.463  10.542  18.892  0.00  0.00    +0.000 N 
ATOM      3  C   UNL     1       2.163  10.620  17.625  0.00  0.00    +0.000 C 
ATOM      4  C   UNL     1       1.372   9.350  19.621  0.00  0.00    +0.000 A 
ATOM      5  N   UNL     1       0.592   9.340  20.688  0.00  0.00    +0.000 NA
ATOM      6  C   UNL     1       0.455   8.186  21.428  0.00  0.00    +0.000 A 
ATOM      7  C   UNL     1       1.083   7.035  21.151  0.00  0.00    +0.000 A 
ATOM      8  N   UNL     1       1.953   6.999  20.074  0.00  0.00    +0.000 N 
ATOM      9  C   UNL     1       2.800   6.012  19.575  0.00  0.00    +0.000 A 
ATOM     10  C   UNL     1       3.398   6.629  18.469  0.00  0.00    +0.000 A 
ATOM     11  N   UNL     1       2.920   7.907  18.281  0.00  0.00    +0.000 NA
ATOM     12  C   UNL     1       2.094   8.114  19.282  0.00  0.00    +0.000 A 
ENDROOT
BRANCH  10  13
ATOM     13  C   UNL     1       4.418   6.081  17.582  0.00  0.00    +0.000 A 
ATOM     14  C   UNL     1       4.104   4.982  16.763  0.00  0.00    +0.000 A 
ATOM     15  C   UNL     1       5.071   4.418  15.926  0.00  0.00    +0.000 A 
ATOM     16  C   UNL     1       6.357   4.942  15.914  0.00  0.00    +0.000 A 
ATOM     17  F   UNL     1       7.293   4.385  15.134  0.00  0.00    +0.000 F 
ATOM     18  C   UNL     1       6.685   6.042  16.693  0.00  0.00    +0.000 A 
ATOM     19  C   UNL     1       5.708   6.627  17.502  0.00  0.00    +0.000 A 
ENDBRANCH  10  13
BRANCH   9  20
ATOM     20  C   UNL     1       2.995   4.679  20.172  0.00  0.00    +0.000 A 
ATOM     21  C   UNL     1       2.122   4.198  21.154  0.00  0.00    +0.000 A 
ATOM     22  C   UNL     1       2.243   2.882  21.575  0.00  0.00    +0.000 A 
ATOM     23  N   UNL     1       3.202   2.041  21.138  0.00  0.00    +0.000 NA
ATOM     24  C   UNL     1       4.065   2.532  20.227  0.00  0.00    +0.000 A 
ATOM     25  C   UNL     1       3.991   3.815  19.708  0.00  0.00    +0.000 A 
ENDBRANCH   9  20
TORSDOF 2
ENDMDL
MODEL 6
REMARK VINA RESULT:      -6.7      1.032      1.144
REMARK  Name = 
REMARK  4 active torsions:
REMARK  status: ('A' for Active; 'I' for Inactive)
REMARK    1  A    between atoms: C_1  and  N_2
REMARK    2  A    between atoms: N_2  and  C_3
REMARK    3  A    between atoms: C_9  and  C_10
REMARK    4  A    between atoms: C_16  and  C_17
REMARK                            x       y       z     vdW  Elec       q    Type
REMARK                         _______ _______ _______ _____ _____    ______ ____
ROOT
ATOM      1  C   UNL     1       0.823  11.762  19.427  0.00  0.00    +0.000 C 
ATOM      2  N   UNL     1       1.468  10.551  18.944  0.00  0.00    +0.000 N 
ATOM      3  C   UNL     1       2.149  10.617  17.665  0.00  0.00    +0.000 C 
ATOM      4  C   UNL     1       1.352   9.355  19.664  0.00  0.00    +0.000 A 
ATOM      5  N   UNL     1       0.589   9.360  20.744  0.00  0.00    +0.000 NA
ATOM      6  C   UNL     1       0.428   8.205  21.477  0.00  0.00    +0.000 A 
ATOM      7  C   UNL     1       1.014   7.037  21.180  0.00  0.00    +0.000 A 
ATOM      8  N   UNL     1       1.863   6.983  20.087  0.00  0.00    +0.000 N 
ATOM      9  C   UNL     1       2.671   5.974  19.566  0.00  0.00    +0.000 A 
ATOM     10  C   UNL     1       3.269   6.581  18.455  0.00  0.00    +0.000 A 
ATOM     11  N   UNL     1       2.830   7.875  18.286  0.00  0.00    +0.000 NA
ATOM     12  C   UNL     1       2.028   8.100  19.302  0.00  0.00    +0.000 A 
ENDROOT
BRANCH  10  13
ATOM     13  C   UNL     1       4.257   6.009  17.546  0.00  0.00    +0.000 A 
ATOM     14  C   UNL     1       5.513   6.627  17.414  0.00  0.00    +0.000 A 
ATOM     15  C   UNL     1       6.467   6.118  16.527  0.00  0.00    +0.000 A 
ATOM     16  C   UNL     1       6.164   5.000  15.763  0.00  0.00    +0.000 A 
ATOM     17  F   UNL     1       7.066   4.527  14.892  0.00  0.00    +0.000 F 
ATOM     18  C   UNL     1       4.941   4.357  15.894  0.00  0.00    +0.000 A 
ATOM     19  C   UNL     1       4.003   4.846  16.806  0.00  0.00    +0.000 A 
ENDBRANCH  10  13
BRANCH   9  20
ATOM     20  C   UNL     1       2.832   4.630  20.149  0.00  0.00    +0.000 A 
ATOM     21  C   UNL     1       3.965   3.857  19.868  0.00  0.00    +0.000 A 
ATOM     22  C   UNL     1       4.157   2.670  20.558  0.00  0.00    +0.000 A 
ATOM     23  N   UNL     1       3.277   2.172  21.450  0.00  0.00    +0.000 NA
ATOM     24  C   UNL     1       2.168   2.903  21.675  0.00  0.00    +0.000 A 
ATOM     25  C   UNL     1       1.915   4.126  21.075  0.00  0.00    +0.000 A 
ENDBRANCH   9  20
TORSDOF 2
ENDMDL
MODEL 7
REMARK VINA RESULT:      -6.6      1.821      2.442
REMARK  Name = 
REMARK  4 active torsions:
REMARK  status: ('A' for Active; 'I' for Inactive)
REMARK    1  A    between atoms: C_1  and  N_2
REMARK    2  A    between atoms: N_2  and  C_3
REMARK    3  A    between atoms: C_9  and  C_10
REMARK    4  A    between atoms: C_16  and  C_17
REMARK                            x       y       z     vdW  Elec       q    Type
REMARK                         _______ _______ _______ _____ _____    ______ ____
ROOT
ATOM      1  C   UNL     1       1.034  10.573  19.777  0.00  0.00    +0.000 C 
ATOM      2  N   UNL     1       1.754   9.537  19.052  0.00  0.00    +0.000 N 
ATOM      3  C   UNL     1       2.378   9.907  17.797  0.00  0.00    +0.000 C 
ATOM      4  C   UNL     1       1.760   8.220  19.528  0.00  0.00    +0.000 A 
ATOM      5  N   UNL     1       1.041   7.952  20.604  0.00  0.00    +0.000 NA
ATOM      6  C   UNL     1       1.000   6.667  21.101  0.00  0.00    +0.000 A 
ATOM      7  C   UNL     1       1.665   5.633  20.569  0.00  0.00    +0.000 A 
ATOM      8  N   UNL     1       2.474   5.863  19.468  0.00  0.00    +0.000 N 
ATOM      9  C   UNL     1       3.338   5.046  18.743  0.00  0.00    +0.000 A 
ATOM     10  C   UNL     1       3.844   5.904  17.759  0.00  0.00    +0.000 A 
ATOM     11  N   UNL     1       3.297   7.165  17.855  0.00  0.00    +0.000 NA
ATOM     12  C   UNL     1       2.519   7.120  18.913  0.00  0.00    +0.000 A 
ENDROOT
BRANCH  10  13
ATOM     13  C   UNL     1       4.838   5.604  16.735  0.00  0.00    +0.000 A 
ATOM     14  C   UNL     1       6.090   6.243  16.780  0.00  0.00    +0.000 A 
ATOM     15  C   UNL     1       7.050   5.997  15.793  0.00  0.00    +0.000 A 
ATOM     16  C   UNL     1       6.758   5.124  14.755  0.00  0.00    +0.000 A 
ATOM     17  F   UNL     1       7.666   4.909  13.793  0.00  0.00    +0.000 F 
ATOM     18  C   UNL     1       5.540   4.462  14.702  0.00  0.00    +0.000 A 
ATOM     19  C   UNL     1       4.595   4.681  15.708  0.00  0.00    +0.000 A 
ENDBRANCH  10  13
BRANCH   9  20
ATOM     20  C   UNL     1       3.627   3.633  19.048  0.00  0.00    +0.000 A 
ATOM     21  C   UNL     1       3.155   2.609  18.221  0.00  0.00    +0.000 A 
ATOM     22  C   UNL     1       3.580   1.309  18.450  0.00  0.00    +0.000 A 
ATOM     23  N   UNL     1       4.382   0.953  19.473  0.00  0.00    +0.000 NA
ATOM     24  C   UNL     1       4.792   1.943  20.291  0.00  0.00    +0.000 A 
ATOM     25  C   UNL     1       4.463   3.278  20.110  0.00  0.00    +0.000 A 
ENDBRANCH   9  20
TORSDOF 2
ENDMDL
MODEL 8
REMARK VINA RESULT:      -6.5      6.793      8.954
REMARK  Name = 
REMARK  4 active torsions:
REMARK  status: ('A' for Active; 'I' for Inactive)
REMARK    1  A    between atoms: C_1  and  N_2
REMARK    2  A    between atoms: N_2  and  C_3
REMARK    3  A    between atoms: C_9  and  C_10
REMARK    4  A    between atoms: C_16  and  C_17
REMARK                            x       y       z     vdW  Elec       q    Type
REMARK                         _______ _______ _______ _____ _____    ______ ____
ROOT
ATOM      1  C   UNL     1      -6.673  14.380  23.776  0.00  0.00    +0.000 C 
ATOM      2  N   UNL     1      -5.878  13.702  22.763  0.00  0.00    +0.000 N 
ATOM      3  C   UNL     1      -6.527  12.669  21.981  0.00  0.00    +0.000 C 
ATOM      4  C   UNL     1      -4.515  13.995  22.626  0.00  0.00    +0.000 A 
ATOM      5  N   UNL     1      -3.980  14.848  23.482  0.00  0.00    +0.000 NA
ATOM      6  C   UNL     1      -2.640  15.156  23.399  0.00  0.00    +0.000 A 
ATOM      7  C   UNL     1      -1.807  14.652  22.478  0.00  0.00    +0.000 A 
ATOM      8  N   UNL     1      -2.321  13.790  21.523  0.00  0.00    +0.000 N 
ATOM      9  C   UNL     1      -1.760  13.170  20.409  0.00  0.00    +0.000 A 
ATOM     10  C   UNL     1      -2.828  12.437  19.876  0.00  0.00    +0.000 A 
ATOM     11  N   UNL     1      -3.967  12.573  20.638  0.00  0.00    +0.000 NA
ATOM     12  C   UNL     1      -3.646  13.424  21.586  0.00  0.00    +0.000 A 
ENDROOT
BRANCH  10  13
ATOM     13  C   UNL     1      -2.838  11.621  18.666  0.00  0.00    +0.000 A 
ATOM     14  C   UNL     1      -1.771  10.740  18.419  0.00  0.00    +0.000 A 
ATOM     15  C   UNL     1      -1.740   9.969  17.253  0.00  0.00    +0.000 A 
ATOM     16  C   UNL     1      -2.767  10.086  16.327  0.00  0.00    +0.000 A 
ATOM     17  F   UNL     1      -2.725   9.370  15.195  0.00  0.00    +0.000 F 
ATOM     18  C   UNL     1      -3.844  10.929  16.560  0.00  0.00    +0.000 A 
ATOM     19  C   UNL     1      -3.891  11.672  17.742  0.00  0.00    +0.000 A 
ENDBRANCH  10  13
BRANCH   9  20
ATOM     20  C   UNL     1      -0.372  13.348  19.947  0.00  0.00    +0.000 A 
ATOM     21  C   UNL     1      -0.062  14.272  18.943  0.00  0.00    +0.000 A 
ATOM     22  C   UNL     1       1.270  14.524  18.650  0.00  0.00    +0.000 A 
ATOM     23  N   UNL     1       2.300  13.880  19.234  0.00  0.00    +0.000 NA
ATOM     24  C   UNL     1       1.985  12.958  20.165  0.00  0.00    +0.000 A 
ATOM     25  C   UNL     1       0.688  12.676  20.563  0.00  0.00    +0.000 A 
ENDBRANCH   9  20
TORSDOF 2
ENDMDL
MODEL 9
REMARK VINA RESULT:      -6.3      5.009      7.877
REMARK  Name = 
REMARK  4 active torsions:
REMARK  status: ('A' for Active; 'I' for Inactive)
REMARK    1  A    between atoms: C_1  and  N_2
REMARK    2  A    between atoms: N_2  and  C_3
REMARK    3  A    between atoms: C_9  and  C_10
REMARK    4  A    between atoms: C_16  and  C_17
REMARK                            x       y       z     vdW  Elec       q    Type
REMARK                         _______ _______ _______ _____ _____    ______ ____
ROOT
ATOM      1  C   UNL     1       1.829  17.761  18.359  0.00  0.00    +0.000 C 
ATOM      2  N   UNL     1       0.893  16.671  18.588  0.00  0.00    +0.000 N 
ATOM      3  C   UNL     1      -0.487  16.878  18.195  0.00  0.00    +0.000 C 
ATOM      4  C   UNL     1       1.314  15.507  19.241  0.00  0.00    +0.000 A 
ATOM      5  N   UNL     1       2.556  15.470  19.691  0.00  0.00    +0.000 NA
ATOM      6  C   UNL     1       3.013  14.353  20.357  0.00  0.00    +0.000 A 
ATOM      7  C   UNL     1       2.277  13.256  20.581  0.00  0.00    +0.000 A 
ATOM      8  N   UNL     1       0.983  13.217  20.089  0.00  0.00    +0.000 N 
ATOM      9  C   UNL     1       0.005  12.225  20.078  0.00  0.00    +0.000 A 
ATOM     10  C   UNL     1      -1.069  12.839  19.423  0.00  0.00    +0.000 A 
ATOM     11  N   UNL     1      -0.779  14.141  19.081  0.00  0.00    +0.000 NA
ATOM     12  C   UNL     1       0.469  14.322  19.451  0.00  0.00    +0.000 A 
ENDROOT
BRANCH  10  13
ATOM     13  C   UNL     1      -2.361  12.253  19.081  0.00  0.00    +0.000 A 
ATOM     14  C   UNL     1      -2.448  11.354  18.004  0.00  0.00    +0.000 A 
ATOM     15  C   UNL     1      -3.678  10.802  17.634  0.00  0.00    +0.000 A 
ATOM     16  C   UNL     1      -4.825  11.156  18.331  0.00  0.00    +0.000 A 
ATOM     17  F   UNL     1      -6.010  10.651  17.961  0.00  0.00    +0.000 F 
ATOM     18  C   UNL     1      -4.762  12.022  19.414  0.00  0.00    +0.000 A 
ATOM     19  C   UNL     1      -3.527  12.544  19.804  0.00  0.00    +0.000 A 
ENDBRANCH  10  13
BRANCH   9  20
ATOM     20  C   UNL     1       0.174  10.861  20.610  0.00  0.00    +0.000 A 
ATOM     21  C   UNL     1       0.845   9.880  19.871  0.00  0.00    +0.000 A 
ATOM     22  C   UNL     1       1.122   8.660  20.468  0.00  0.00    +0.000 A 
ATOM     23  N   UNL     1       0.725   8.329  21.713  0.00  0.00    +0.000 NA
ATOM     24  C   UNL     1       0.038   9.266  22.397  0.00  0.00    +0.000 A 
ATOM     25  C   UNL     1      -0.240  10.531  21.904  0.00  0.00    +0.000 A 
ENDBRANCH   9  20
TORSDOF 2
ENDMDL
