MODEL 1
REMARK VINA RESULT:      -6.9      0.000      0.000
REMARK  Name = 
REMARK  8 active torsions:
REMARK  status: ('A' for Active; 'I' for Inactive)
REMARK    1  A    between atoms: C_1  and  O_2
REMARK    2  A    between atoms: O_2  and  C_3
REMARK    3  A    between atoms: C_6  and  S_7
REMARK    4  A    between atoms: S_7  and  N_10
REMARK    5  A    between atoms: C_13  and  C_14
REMARK    6  A    between atoms: N_16  and  C_17
REMARK    7  A    between atoms: C_17  and  C_18
REMARK    8  A    between atoms: C_17  and  C_19
REMARK                            x       y       z     vdW  Elec       q    Type
REMARK                         _______ _______ _______ _____ _____    ______ ____
ROOT
ATOM      1  N   UNL     1       0.406  10.308  20.081  0.00  0.00    +0.000 NA
ATOM      2  C   UNL     1      -0.958  10.284  19.503  0.00  0.00    +0.000 C 
ATOM      3  C   UNL     1      -1.144  11.371  18.447  0.00  0.00    +0.000 C 
ATOM      4  C   UNL     1      -0.760  12.755  18.977  0.00  0.00    +0.000 C 
ATOM      5  C   UNL     1       0.704  12.699  19.421  0.00  0.00    +0.000 C 
ATOM      6  C   UNL     1       0.937  11.633  20.486  0.00  0.00    +0.000 C 
ENDROOT
BRANCH   4   7
ATOM      7  C   UNL     1      -1.714  13.206  20.093  0.00  0.00    +0.000 C 
ATOM      8  O   UNL     1      -1.312  13.625  21.173  0.00  0.00    +0.000 OA
ATOM      9  N   UNL     1      -3.051  13.096  19.792  0.00  0.00    +0.000 N 
ATOM     10  H   UNL     1      -3.330  12.555  18.988  0.00  0.00    +0.000 HD
BRANCH   9  11
ATOM     11  C   UNL     1      -4.081  13.452  20.763  0.00  0.00    +0.000 C 
ATOM     12  C   UNL     1      -4.413  14.939  20.662  0.00  0.00    +0.000 C 
BRANCH  11  13
ATOM     13  C   UNL     1      -5.306  12.573  20.591  0.00  0.00    +0.000 A 
ATOM     14  C   UNL     1      -5.468  11.829  19.411  0.00  0.00    +0.000 A 
ATOM     15  C   UNL     1      -6.605  11.044  19.210  0.00  0.00    +0.000 A 
ATOM     16  C   UNL     1      -7.596  10.991  20.187  0.00  0.00    +0.000 A 
ATOM     17  C   UNL     1      -7.441  11.706  21.372  0.00  0.00    +0.000 A 
ATOM     18  C   UNL     1      -6.303  12.488  21.577  0.00  0.00    +0.000 A 
ENDBRANCH  11  13
ENDBRANCH   9  11
ENDBRANCH   4   7
BRANCH   1  19
ATOM     19  S   UNL     1       0.775   9.023  21.163  0.00  0.00    +0.000 S 
ATOM     20  O   UNL     1      -0.492   8.425  21.536  0.00  0.00    +0.000 OA
ATOM     21  O   UNL     1       1.701   9.498  22.167  0.00  0.00    +0.000 OA
BRANCH  19  25
ATOM     22  C   UNL     1       2.867   5.847  18.597  0.00  0.00    +0.000 A 
ATOM     23  C   UNL     1       2.716   7.149  18.111  0.00  0.00    +0.000 A 
ATOM     24  C   UNL     1       2.130   8.142  18.901  0.00  0.00    +0.000 A 
ATOM     25  C   UNL     1       1.639   7.816  20.166  0.00  0.00    +0.000 A 
ATOM     26  C   UNL     1       1.794   6.516  20.662  0.00  0.00    +0.000 A 
ATOM     27  C   UNL     1       2.408   5.535  19.877  0.00  0.00    +0.000 A 
BRANCH  22  29
ATOM     28  C   UNL     1       4.185   3.905  18.330  0.00  0.00    +0.000 C 
ATOM     29  O   UNL     1       3.440   4.959  17.729  0.00  0.00    +0.000 OA
ENDBRANCH  22  29
ENDBRANCH  19  25
ENDBRANCH   1  19
TORSDOF 6
ENDMDL
MODEL 2
REMARK VINA RESULT:      -6.9      4.574      7.691
REMARK  Name = 
REMARK  8 active torsions:
REMARK  status: ('A' for Active; 'I' for Inactive)
REMARK    1  A    between atoms: C_1  and  O_2
REMARK    2  A    between atoms: O_2  and  C_3
REMARK    3  A    between atoms: C_6  and  S_7
REMARK    4  A    between atoms: S_7  and  N_10
REMARK    5  A    between atoms: C_13  and  C_14
REMARK    6  A    between atoms: N_16  and  C_17
REMARK    7  A    between atoms: C_17  and  C_18
REMARK    8  A    between atoms: C_17  and  C_19
REMARK                            x       y       z     vdW  Elec       q    Type
REMARK                         _______ _______ _______ _____ _____    ______ ____
ROOT
ATOM      1  N   UNL     1       5.565   4.806  17.968  0.00  0.00    +0.000 NA
ATOM      2  C   UNL     1       5.259   5.354  19.311  0.00  0.00    +0.000 C 
ATOM      3  C   UNL     1       3.838   5.008  19.751  0.00  0.00    +0.000 C 
ATOM      4  C   UNL     1       2.799   5.416  18.703  0.00  0.00    +0.000 C 
ATOM      5  C   UNL     1       3.136   4.688  17.399  0.00  0.00    +0.000 C 
ATOM      6  C   UNL     1       4.544   5.013  16.912  0.00  0.00    +0.000 C 
ENDROOT
BRANCH   4   7
ATOM      7  C   UNL     1       2.738   6.942  18.547  0.00  0.00    +0.000 C 
ATOM      8  O   UNL     1       3.479   7.556  17.787  0.00  0.00    +0.000 OA
ATOM      9  N   UNL     1       1.797   7.567  19.330  0.00  0.00    +0.000 N 
ATOM     10  H   UNL     1       1.365   7.054  20.083  0.00  0.00    +0.000 HD
BRANCH   9  11
ATOM     11  C   UNL     1       1.642   9.019  19.319  0.00  0.00    +0.000 C 
ATOM     12  C   UNL     1       1.007   9.475  18.008  0.00  0.00    +0.000 C 
BRANCH  11  13
ATOM     13  C   UNL     1       0.858   9.483  20.533  0.00  0.00    +0.000 A 
ATOM     14  C   UNL     1       0.042  10.623  20.439  0.00  0.00    +0.000 A 
ATOM     15  C   UNL     1      -0.659  11.094  21.551  0.00  0.00    +0.000 A 
ATOM     16  C   UNL     1      -0.555  10.432  22.771  0.00  0.00    +0.000 A 
ATOM     17  C   UNL     1       0.232   9.289  22.876  0.00  0.00    +0.000 A 
ATOM     18  C   UNL     1       0.931   8.813  21.765  0.00  0.00    +0.000 A 
ENDBRANCH  11  13
ENDBRANCH   9  11
ENDBRANCH   4   7
BRANCH   1  19
ATOM     19  S   UNL     1       7.192   4.998  17.445  0.00  0.00    +0.000 S 
ATOM     20  O   UNL     1       7.176   4.875  16.001  0.00  0.00    +0.000 OA
ATOM     21  O   UNL     1       8.053   4.165  18.256  0.00  0.00    +0.000 OA
BRANCH  19  25
ATOM     22  C   UNL     1       8.374   9.337  18.352  0.00  0.00    +0.000 A 
ATOM     23  C   UNL     1       7.527   9.054  17.276  0.00  0.00    +0.000 A 
ATOM     24  C   UNL     1       7.113   7.744  17.019  0.00  0.00    +0.000 A 
ATOM     25  C   UNL     1       7.597   6.701  17.810  0.00  0.00    +0.000 A 
ATOM     26  C   UNL     1       8.439   6.978  18.893  0.00  0.00    +0.000 A 
ATOM     27  C   UNL     1       8.824   8.295  19.163  0.00  0.00    +0.000 A 
BRANCH  22  29
ATOM     28  C   UNL     1       9.543  10.952  19.618  0.00  0.00    +0.000 C 
ATOM     29  O   UNL     1       8.721  10.652  18.495  0.00  0.00    +0.000 OA
ENDBRANCH  22  29
ENDBRANCH  19  25
ENDBRANCH   1  19
TORSDOF 6
ENDMDL
MODEL 3
REMARK VINA RESULT:      -6.8      0.493      1.035
REMARK  Name = 
REMARK  8 active torsions:
REMARK  status: ('A' for Active; 'I' for Inactive)
REMARK    1  A    between atoms: C_1  and  O_2
REMARK    2  A    between atoms: O_2  and  C_3
REMARK    3  A    between atoms: C_6  and  S_7
REMARK    4  A    between atoms: S_7  and  N_10
REMARK    5  A    between atoms: C_13  and  C_14
REMARK    6  A    between atoms: N_16  and  C_17
REMARK    7  A    between atoms: C_17  and  C_18
REMARK    8  A    between atoms: C_17  and  C_19
REMARK                            x       y       z     vdW  Elec       q    Type
REMARK                         _______ _______ _______ _____ _____    ______ ____
ROOT
ATOM      1  N   UNL     1       0.357  10.592  20.227  0.00  0.00    +0.000 NA
ATOM      2  C   UNL     1      -0.962  10.590  19.552  0.00  0.00    +0.000 C 
ATOM      3  C   UNL     1      -1.102  11.761  18.583  0.00  0.00    +0.000 C 
ATOM      4  C   UNL     1      -0.794  13.101  19.256  0.00  0.00    +0.000 C 
ATOM      5  C   UNL     1       0.636  13.037  19.798  0.00  0.00    +0.000 C 
ATOM      6  C   UNL     1       0.822  11.887  20.782  0.00  0.00    +0.000 C 
ENDROOT
BRANCH   4   7
ATOM      7  C   UNL     1      -1.836  13.432  20.334  0.00  0.00    +0.000 C 
ATOM      8  O   UNL     1      -1.524  13.751  21.476  0.00  0.00    +0.000 OA
ATOM      9  N   UNL     1      -3.145  13.335  19.924  0.00  0.00    +0.000 N 
ATOM     10  H   UNL     1      -3.354  12.869  19.054  0.00  0.00    +0.000 HD
BRANCH   9  11
ATOM     11  C   UNL     1      -4.251  13.584  20.844  0.00  0.00    +0.000 C 
ATOM     12  C   UNL     1      -4.677  15.048  20.775  0.00  0.00    +0.000 C 
BRANCH  11  13
ATOM     13  C   UNL     1      -5.402  12.634  20.569  0.00  0.00    +0.000 A 
ATOM     14  C   UNL     1      -6.435  12.501  21.511  0.00  0.00    +0.000 A 
ATOM     15  C   UNL     1      -7.485  11.605  21.301  0.00  0.00    +0.000 A 
ATOM     16  C   UNL     1      -7.517  10.830  20.145  0.00  0.00    +0.000 A 
ATOM     17  C   UNL     1      -6.513  10.964  19.190  0.00  0.00    +0.000 A 
ATOM     18  C   UNL     1      -5.464  11.863  19.396  0.00  0.00    +0.000 A 
ENDBRANCH  11  13
ENDBRANCH   9  11
ENDBRANCH   4   7
BRANCH   1  19
ATOM     19  S   UNL     1       0.684   9.225  21.218  0.00  0.00    +0.000 S 
ATOM     20  O   UNL     1      -0.598   8.613  21.508  0.00  0.00    +0.000 OA
ATOM     21  O   UNL     1       1.584   9.613  22.282  0.00  0.00    +0.000 OA
BRANCH  19  25
ATOM     22  C   UNL     1       2.831   6.221  18.494  0.00  0.00    +0.000 A 
ATOM     23  C   UNL     1       2.579   7.520  18.041  0.00  0.00    +0.000 A 
ATOM     24  C   UNL     1       1.976   8.464  18.877  0.00  0.00    +0.000 A 
ATOM     25  C   UNL     1       1.568   8.088  20.158  0.00  0.00    +0.000 A 
ATOM     26  C   UNL     1       1.823   6.792  20.620  0.00  0.00    +0.000 A 
ATOM     27  C   UNL     1       2.455   5.862  19.789  0.00  0.00    +0.000 A 
BRANCH  22  29
ATOM     28  C   UNL     1       4.806   5.583  17.367  0.00  0.00    +0.000 C 
ATOM     29  O   UNL     1       3.412   5.385  17.583  0.00  0.00    +0.000 OA
ENDBRANCH  22  29
ENDBRANCH  19  25
ENDBRANCH   1  19
TORSDOF 6
ENDMDL
MODEL 4
REMARK VINA RESULT:      -6.8      4.484      7.214
REMARK  Name = 
REMARK  8 active torsions:
REMARK  status: ('A' for Active; 'I' for Inactive)
REMARK    1  A    between atoms: C_1  and  O_2
REMARK    2  A    between atoms: O_2  and  C_3
REMARK    3  A    between atoms: C_6  and  S_7
REMARK    4  A    between atoms: S_7  and  N_10
REMARK    5  A    between atoms: C_13  and  C_14
REMARK    6  A    between atoms: N_16  and  C_17
REMARK    7  A    between atoms: C_17  and  C_18
REMARK    8  A    between atoms: C_17  and  C_19
REMARK                            x       y       z     vdW  Elec       q    Type
REMARK                         _______ _______ _______ _____ _____    ______ ____
ROOT
ATOM      1  N   UNL     1       2.909   2.796  19.618  0.00  0.00    +0.000 NA
ATOM      2  C   UNL     1       3.172   3.407  20.943  0.00  0.00    +0.000 C 
ATOM      3  C   UNL     1       1.878   3.825  21.638  0.00  0.00    +0.000 C 
ATOM      4  C   UNL     1       1.012   4.718  20.745  0.00  0.00    +0.000 C 
ATOM      5  C   UNL     1       0.692   3.937  19.468  0.00  0.00    +0.000 C 
ATOM      6  C   UNL     1       1.956   3.507  18.731  0.00  0.00    +0.000 C 
ENDROOT
BRANCH   4   7
ATOM      7  C   UNL     1       1.698   6.065  20.476  0.00  0.00    +0.000 C 
ATOM      8  O   UNL     1       2.848   6.146  20.061  0.00  0.00    +0.000 OA
ATOM      9  N   UNL     1       0.927   7.171  20.743  0.00  0.00    +0.000 N 
ATOM     10  H   UNL     1       0.078   7.061  21.277  0.00  0.00    +0.000 HD
BRANCH   9  11
ATOM     11  C   UNL     1       1.451   8.523  20.571  0.00  0.00    +0.000 C 
ATOM     12  C   UNL     1       1.539   8.871  19.087  0.00  0.00    +0.000 C 
BRANCH  11  13
ATOM     13  C   UNL     1       0.619   9.524  21.351  0.00  0.00    +0.000 A 
ATOM     14  C   UNL     1       0.019   9.137  22.560  0.00  0.00    +0.000 A 
ATOM     15  C   UNL     1      -0.784  10.026  23.277  0.00  0.00    +0.000 A 
ATOM     16  C   UNL     1      -0.997  11.316  22.796  0.00  0.00    +0.000 A 
ATOM     17  C   UNL     1      -0.391  11.723  21.610  0.00  0.00    +0.000 A 
ATOM     18  C   UNL     1       0.415  10.837  20.893  0.00  0.00    +0.000 A 
ENDBRANCH  11  13
ENDBRANCH   9  11
ENDBRANCH   4   7
BRANCH   1  19
ATOM     19  S   UNL     1       4.285   2.141  18.820  0.00  0.00    +0.000 S 
ATOM     20  O   UNL     1       3.780   1.344  17.720  0.00  0.00    +0.000 OA
ATOM     21  O   UNL     1       5.180   1.573  19.805  0.00  0.00    +0.000 OA
BRANCH  19  25
ATOM     22  C   UNL     1       6.276   5.807  16.911  0.00  0.00    +0.000 A 
ATOM     23  C   UNL     1       6.297   5.645  18.300  0.00  0.00    +0.000 A 
ATOM     24  C   UNL     1       5.743   4.507  18.894  0.00  0.00    +0.000 A 
ATOM     25  C   UNL     1       5.113   3.551  18.095  0.00  0.00    +0.000 A 
ATOM     26  C   UNL     1       5.095   3.704  16.704  0.00  0.00    +0.000 A 
ATOM     27  C   UNL     1       5.678   4.830  16.115  0.00  0.00    +0.000 A 
BRANCH  22  29
ATOM     28  C   UNL     1       7.568   7.721  17.407  0.00  0.00    +0.000 C 
ATOM     29  O   UNL     1       6.836   6.965  16.448  0.00  0.00    +0.000 OA
ENDBRANCH  22  29
ENDBRANCH  19  25
ENDBRANCH   1  19
TORSDOF 6
ENDMDL
MODEL 5
REMARK VINA RESULT:      -6.8      4.482      7.251
REMARK  Name = 
REMARK  8 active torsions:
REMARK  status: ('A' for Active; 'I' for Inactive)
REMARK    1  A    between atoms: C_1  and  O_2
REMARK    2  A    between atoms: O_2  and  C_3
REMARK    3  A    between atoms: C_6  and  S_7
REMARK    4  A    between atoms: S_7  and  N_10
REMARK    5  A    between atoms: C_13  and  C_14
REMARK    6  A    between atoms: N_16  and  C_17
REMARK    7  A    between atoms: C_17  and  C_18
REMARK    8  A    between atoms: C_17  and  C_19
REMARK                            x       y       z     vdW  Elec       q    Type
REMARK                         _______ _______ _______ _____ _____    ______ ____
ROOT
ATOM      1  N   UNL     1       2.645   2.958  18.953  0.00  0.00    +0.000 NA
ATOM      2  C   UNL     1       3.507   3.444  20.057  0.00  0.00    +0.000 C 
ATOM      3  C   UNL     1       2.694   3.765  21.309  0.00  0.00    +0.000 C 
ATOM      4  C   UNL     1       1.536   4.721  21.009  0.00  0.00    +0.000 C 
ATOM      5  C   UNL     1       0.641   4.060  19.957  0.00  0.00    +0.000 C 
ATOM      6  C   UNL     1       1.408   3.730  18.681  0.00  0.00    +0.000 C 
ENDROOT
BRANCH   4   7
ATOM      7  C   UNL     1       2.053   6.102  20.582  0.00  0.00    +0.000 C 
ATOM      8  O   UNL     1       3.135   6.257  20.026  0.00  0.00    +0.000 OA
ATOM      9  N   UNL     1       1.216   7.151  20.878  0.00  0.00    +0.000 N 
ATOM     10  H   UNL     1       0.450   7.003  21.517  0.00  0.00    +0.000 HD
BRANCH   9  11
ATOM     11  C   UNL     1       1.584   8.530  20.567  0.00  0.00    +0.000 C 
ATOM     12  C   UNL     1       1.580   8.750  19.056  0.00  0.00    +0.000 C 
BRANCH  11  13
ATOM     13  C   UNL     1       0.678   9.505  21.296  0.00  0.00    +0.000 A 
ATOM     14  C   UNL     1       0.399  10.755  20.723  0.00  0.00    +0.000 A 
ATOM     15  C   UNL     1      -0.399  11.687  21.390  0.00  0.00    +0.000 A 
ATOM     16  C   UNL     1      -0.930  11.379  22.640  0.00  0.00    +0.000 A 
ATOM     17  C   UNL     1      -0.681  10.135  23.214  0.00  0.00    +0.000 A 
ATOM     18  C   UNL     1       0.114   9.201  22.546  0.00  0.00    +0.000 A 
ENDBRANCH  11  13
ENDBRANCH   9  11
ENDBRANCH   4   7
BRANCH   1  19
ATOM     19  S   UNL     1       3.477   2.413  17.550  0.00  0.00    +0.000 S 
ATOM     20  O   UNL     1       2.533   2.498  16.454  0.00  0.00    +0.000 OA
ATOM     21  O   UNL     1       4.159   1.174  17.854  0.00  0.00    +0.000 OA
BRANCH  19  25
ATOM     22  C   UNL     1       6.585   5.686  16.726  0.00  0.00    +0.000 A 
ATOM     23  C   UNL     1       6.389   5.220  18.030  0.00  0.00    +0.000 A 
ATOM     24  C   UNL     1       5.486   4.186  18.291  0.00  0.00    +0.000 A 
ATOM     25  C   UNL     1       4.730   3.652  17.246  0.00  0.00    +0.000 A 
ATOM     26  C   UNL     1       4.926   4.108  15.938  0.00  0.00    +0.000 A 
ATOM     27  C   UNL     1       5.854   5.123  15.680  0.00  0.00    +0.000 A 
BRANCH  22  29
ATOM     28  C   UNL     1       7.728   7.464  17.780  0.00  0.00    +0.000 C 
ATOM     29  O   UNL     1       7.483   6.709  16.598  0.00  0.00    +0.000 OA
ENDBRANCH  22  29
ENDBRANCH  19  25
ENDBRANCH   1  19
TORSDOF 6
ENDMDL
MODEL 6
REMARK VINA RESULT:      -6.8      3.951     10.223
REMARK  Name = 
REMARK  8 active torsions:
REMARK  status: ('A' for Active; 'I' for Inactive)
REMARK    1  A    between atoms: C_1  and  O_2
REMARK    2  A    between atoms: O_2  and  C_3
REMARK    3  A    between atoms: C_6  and  S_7
REMARK    4  A    between atoms: S_7  and  N_10
REMARK    5  A    between atoms: C_13  and  C_14
REMARK    6  A    between atoms: N_16  and  C_17
REMARK    7  A    between atoms: C_17  and  C_18
REMARK    8  A    between atoms: C_17  and  C_19
REMARK                            x       y       z     vdW  Elec       q    Type
REMARK                         _______ _______ _______ _____ _____    ______ ____
ROOT
ATOM      1  N   UNL     1       2.005   6.203  18.921  0.00  0.00    +0.000 NA
ATOM      2  C   UNL     1       1.973   5.225  17.808  0.00  0.00    +0.000 C 
ATOM      3  C   UNL     1       1.724   3.805  18.310  0.00  0.00    +0.000 C 
ATOM      4  C   UNL     1       2.713   3.405  19.408  0.00  0.00    +0.000 C 
ATOM      5  C   UNL     1       2.565   4.402  20.560  0.00  0.00    +0.000 C 
ATOM      6  C   UNL     1       2.816   5.837  20.108  0.00  0.00    +0.000 C 
ENDROOT
BRANCH   4   7
ATOM      7  C   UNL     1       4.145   3.321  18.860  0.00  0.00    +0.000 C 
ATOM      8  O   UNL     1       5.042   2.730  19.451  0.00  0.00    +0.000 OA
ATOM      9  N   UNL     1       4.346   3.964  17.662  0.00  0.00    +0.000 N 
ATOM     10  H   UNL     1       3.644   4.605  17.326  0.00  0.00    +0.000 HD
BRANCH   9  11
ATOM     11  C   UNL     1       5.662   4.003  17.031  0.00  0.00    +0.000 C 
ATOM     12  C   UNL     1       5.522   3.944  15.511  0.00  0.00    +0.000 C 
BRANCH  11  13
ATOM     13  C   UNL     1       6.442   5.219  17.493  0.00  0.00    +0.000 A 
ATOM     14  C   UNL     1       6.270   6.447  16.834  0.00  0.00    +0.000 A 
ATOM     15  C   UNL     1       7.005   7.572  17.213  0.00  0.00    +0.000 A 
ATOM     16  C   UNL     1       7.921   7.485  18.258  0.00  0.00    +0.000 A 
ATOM     17  C   UNL     1       8.089   6.281  18.936  0.00  0.00    +0.000 A 
ATOM     18  C   UNL     1       7.352   5.155  18.561  0.00  0.00    +0.000 A 
ENDBRANCH  11  13
ENDBRANCH   9  11
ENDBRANCH   4   7
BRANCH   1  19
ATOM     19  S   UNL     1       2.116   7.854  18.453  0.00  0.00    +0.000 S 
ATOM     20  O   UNL     1       1.177   8.036  17.365  0.00  0.00    +0.000 OA
ATOM     21  O   UNL     1       3.510   8.213  18.307  0.00  0.00    +0.000 OA
BRANCH  19  25
ATOM     22  C   UNL     1       0.328  10.208  21.962  0.00  0.00    +0.000 A 
ATOM     23  C   UNL     1       0.830   8.920  22.169  0.00  0.00    +0.000 A 
ATOM     24  C   UNL     1       1.428   8.210  21.124  0.00  0.00    +0.000 A 
ATOM     25  C   UNL     1       1.472   8.772  19.846  0.00  0.00    +0.000 A 
ATOM     26  C   UNL     1       0.977  10.064  19.634  0.00  0.00    +0.000 A 
ATOM     27  C   UNL     1       0.408  10.780  20.692  0.00  0.00    +0.000 A 
BRANCH  22  29
ATOM     28  C   UNL     1      -1.251  11.764  22.775  0.00  0.00    +0.000 C 
ATOM     29  O   UNL     1      -0.246  10.796  23.055  0.00  0.00    +0.000 OA
ENDBRANCH  22  29
ENDBRANCH  19  25
ENDBRANCH   1  19
TORSDOF 6
ENDMDL
MODEL 7
REMARK VINA RESULT:      -6.8      4.435      7.188
REMARK  Name = 
REMARK  8 active torsions:
REMARK  status: ('A' for Active; 'I' for Inactive)
REMARK    1  A    between atoms: C_1  and  O_2
REMARK    2  A    between atoms: O_2  and  C_3
REMARK    3  A    between atoms: C_6  and  S_7
REMARK    4  A    between atoms: S_7  and  N_10
REMARK    5  A    between atoms: C_13  and  C_14
REMARK    6  A    between atoms: N_16  and  C_17
REMARK    7  A    between atoms: C_17  and  C_18
REMARK    8  A    between atoms: C_17  and  C_19
REMARK                            x       y       z     vdW  Elec       q    Type
REMARK                         _______ _______ _______ _____ _____    ______ ____
ROOT
ATOM      1  N   UNL     1       2.873   2.733  19.651  0.00  0.00    +0.000 NA
ATOM      2  C   UNL     1       3.096   3.333  20.988  0.00  0.00    +0.000 C 
ATOM      3  C   UNL     1       1.783   3.757  21.643  0.00  0.00    +0.000 C 
ATOM      4  C   UNL     1       0.954   4.662  20.728  0.00  0.00    +0.000 C 
ATOM      5  C   UNL     1       0.670   3.893  19.436  0.00  0.00    +0.000 C 
ATOM      6  C   UNL     1       1.955   3.458  18.738  0.00  0.00    +0.000 C 
ENDROOT
BRANCH   4   7
ATOM      7  C   UNL     1       1.658   6.005  20.491  0.00  0.00    +0.000 C 
ATOM      8  O   UNL     1       2.821   6.081  20.109  0.00  0.00    +0.000 OA
ATOM      9  N   UNL     1       0.890   7.116  20.748  0.00  0.00    +0.000 N 
ATOM     10  H   UNL     1       0.026   7.009  21.256  0.00  0.00    +0.000 HD
BRANCH   9  11
ATOM     11  C   UNL     1       1.430   8.465  20.603  0.00  0.00    +0.000 C 
ATOM     12  C   UNL     1       1.619   8.804  19.127  0.00  0.00    +0.000 C 
BRANCH  11  13
ATOM     13  C   UNL     1       0.553   9.474  21.320  0.00  0.00    +0.000 A 
ATOM     14  C   UNL     1       0.244  10.694  20.697  0.00  0.00    +0.000 A 
ATOM     15  C   UNL     1      -0.528  11.657  21.350  0.00  0.00    +0.000 A 
ATOM     16  C   UNL     1      -1.004  11.412  22.636  0.00  0.00    +0.000 A 
ATOM     17  C   UNL     1      -0.726  10.198  23.259  0.00  0.00    +0.000 A 
ATOM     18  C   UNL     1       0.042   9.233  22.606  0.00  0.00    +0.000 A 
ENDBRANCH  11  13
ENDBRANCH   9  11
ENDBRANCH   4   7
BRANCH   1  19
ATOM     19  S   UNL     1       4.269   2.073  18.894  0.00  0.00    +0.000 S 
ATOM     20  O   UNL     1       3.795   1.300  17.763  0.00  0.00    +0.000 OA
ATOM     21  O   UNL     1       5.119   1.478  19.902  0.00  0.00    +0.000 OA
BRANCH  19  25
ATOM     22  C   UNL     1       6.635   5.633  17.230  0.00  0.00    +0.000 A 
ATOM     23  C   UNL     1       5.989   4.754  16.355  0.00  0.00    +0.000 A 
ATOM     24  C   UNL     1       5.218   3.697  16.847  0.00  0.00    +0.000 A 
ATOM     25  C   UNL     1       5.141   3.483  18.224  0.00  0.00    +0.000 A 
ATOM     26  C   UNL     1       5.780   4.363  19.105  0.00  0.00    +0.000 A 
ATOM     27  C   UNL     1       6.524   5.437  18.606  0.00  0.00    +0.000 A 
BRANCH  22  29
ATOM     28  C   UNL     1       7.661   7.750  17.448  0.00  0.00    +0.000 C 
ATOM     29  O   UNL     1       7.370   6.620  16.632  0.00  0.00    +0.000 OA
ENDBRANCH  22  29
ENDBRANCH  19  25
ENDBRANCH   1  19
TORSDOF 6
ENDMDL
MODEL 8
REMARK VINA RESULT:      -6.7      4.940     11.580
REMARK  Name = 
REMARK  8 active torsions:
REMARK  status: ('A' for Active; 'I' for Inactive)
REMARK    1  A    between atoms: C_1  and  O_2
REMARK    2  A    between atoms: O_2  and  C_3
REMARK    3  A    between atoms: C_6  and  S_7
REMARK    4  A    between atoms: S_7  and  N_10
REMARK    5  A    between atoms: C_13  and  C_14
REMARK    6  A    between atoms: N_16  and  C_17
REMARK    7  A    between atoms: C_17  and  C_18
REMARK    8  A    between atoms: C_17  and  C_19
REMARK                            x       y       z     vdW  Elec       q    Type
REMARK                         _______ _______ _______ _____ _____    ______ ____
ROOT
ATOM      1  N   UNL     1       4.515   4.906  18.211  0.00  0.00    +0.000 NA
ATOM      2  C   UNL     1       5.051   3.827  17.349  0.00  0.00    +0.000 C 
ATOM      3  C   UNL     1       6.573   3.892  17.243  0.00  0.00    +0.000 C 
ATOM      4  C   UNL     1       7.058   5.279  16.812  0.00  0.00    +0.000 C 
ATOM      5  C   UNL     1       6.559   6.293  17.845  0.00  0.00    +0.000 C 
ATOM      6  C   UNL     1       5.040   6.273  17.977  0.00  0.00    +0.000 C 
ENDROOT
BRANCH   4   7
ATOM      7  C   UNL     1       6.609   5.602  15.380  0.00  0.00    +0.000 C 
ATOM      8  O   UNL     1       5.642   6.315  15.138  0.00  0.00    +0.000 OA
ATOM      9  N   UNL     1       7.370   5.026  14.390  0.00  0.00    +0.000 N 
ATOM     10  H   UNL     1       8.013   4.288  14.633  0.00  0.00    +0.000 HD
BRANCH   9  11
ATOM     11  C   UNL     1       7.048   5.211  12.978  0.00  0.00    +0.000 C 
ATOM     12  C   UNL     1       8.214   5.877  12.253  0.00  0.00    +0.000 C 
BRANCH  11  13
ATOM     13  C   UNL     1       6.649   3.892  12.342  0.00  0.00    +0.000 A 
ATOM     14  C   UNL     1       7.639   3.050  11.808  0.00  0.00    +0.000 A 
ATOM     15  C   UNL     1       7.297   1.850  11.182  0.00  0.00    +0.000 A 
ATOM     16  C   UNL     1       5.959   1.474  11.083  0.00  0.00    +0.000 A 
ATOM     17  C   UNL     1       4.967   2.286  11.626  0.00  0.00    +0.000 A 
ATOM     18  C   UNL     1       5.308   3.484  12.256  0.00  0.00    +0.000 A 
ENDBRANCH  11  13
ENDBRANCH   9  11
ENDBRANCH   4   7
BRANCH   1  19
ATOM     19  S   UNL     1       2.826   4.828  18.530  0.00  0.00    +0.000 S 
ATOM     20  O   UNL     1       2.674   4.062  19.751  0.00  0.00    +0.000 OA
ATOM     21  O   UNL     1       2.132   4.449  17.319  0.00  0.00    +0.000 OA
BRANCH  19  25
ATOM     22  C   UNL     1       1.483   9.119  19.439  0.00  0.00    +0.000 A 
ATOM     23  C   UNL     1       1.607   8.191  20.477  0.00  0.00    +0.000 A 
ATOM     24  C   UNL     1       2.068   6.896  20.226  0.00  0.00    +0.000 A 
ATOM     25  C   UNL     1       2.351   6.508  18.915  0.00  0.00    +0.000 A 
ATOM     26  C   UNL     1       2.235   7.434  17.872  0.00  0.00    +0.000 A 
ATOM     27  C   UNL     1       1.803   8.738  18.136  0.00  0.00    +0.000 A 
BRANCH  22  29
ATOM     28  C   UNL     1       0.463  11.136  18.751  0.00  0.00    +0.000 C 
ATOM     29  O   UNL     1       1.010  10.349  19.805  0.00  0.00    +0.000 OA
ENDBRANCH  22  29
ENDBRANCH  19  25
ENDBRANCH   1  19
TORSDOF 6
ENDMDL
MODEL 9
REMARK VINA RESULT:      -6.7      4.527      7.506
REMARK  Name = 
REMARK  8 active torsions:
REMARK  status: ('A' for Active; 'I' for Inactive)
REMARK    1  A    between atoms: C_1  and  O_2
REMARK    2  A    between atoms: O_2  and  C_3
REMARK    3  A    between atoms: C_6  and  S_7
REMARK    4  A    between atoms: S_7  and  N_10
REMARK    5  A    between atoms: C_13  and  C_14
REMARK    6  A    between atoms: N_16  and  C_17
REMARK    7  A    between atoms: C_17  and  C_18
REMARK    8  A    between atoms: C_17  and  C_19
REMARK                            x       y       z     vdW  Elec       q    Type
REMARK                         _______ _______ _______ _____ _____    ______ ____
ROOT
ATOM      1  N   UNL     1       5.251   5.105  18.059  0.00  0.00    +0.000 NA
ATOM      2  C   UNL     1       5.040   5.693  19.402  0.00  0.00    +0.000 C 
ATOM      3  C   UNL     1       3.660   5.350  19.959  0.00  0.00    +0.000 C 
ATOM      4  C   UNL     1       2.541   5.715  18.980  0.00  0.00    +0.000 C 
ATOM      5  C   UNL     1       2.787   4.948  17.677  0.00  0.00    +0.000 C 
ATOM      6  C   UNL     1       4.152   5.269  17.076  0.00  0.00    +0.000 C 
ENDROOT
BRANCH   4   7
ATOM      7  C   UNL     1       2.453   7.234  18.780  0.00  0.00    +0.000 C 
ATOM      8  O   UNL     1       3.121   7.829  17.942  0.00  0.00    +0.000 OA
ATOM      9  N   UNL     1       1.574   7.879  19.618  0.00  0.00    +0.000 N 
ATOM     10  H   UNL     1       1.212   7.388  20.422  0.00  0.00    +0.000 HD
BRANCH   9  11
ATOM     11  C   UNL     1       1.404   9.328  19.574  0.00  0.00    +0.000 C 
ATOM     12  C   UNL     1       0.739   9.744  18.265  0.00  0.00    +0.000 C 
BRANCH  11  13
ATOM     13  C   UNL     1       0.639   9.816  20.791  0.00  0.00    +0.000 A 
ATOM     14  C   UNL     1       0.276   8.904  21.796  0.00  0.00    +0.000 A 
ATOM     15  C   UNL     1      -0.462   9.318  22.906  0.00  0.00    +0.000 A 
ATOM     16  C   UNL     1      -0.847  10.651  23.028  0.00  0.00    +0.000 A 
ATOM     17  C   UNL     1      -0.477  11.573  22.051  0.00  0.00    +0.000 A 
ATOM     18  C   UNL     1       0.265  11.161  20.942  0.00  0.00    +0.000 A 
ENDBRANCH  11  13
ENDBRANCH   9  11
ENDBRANCH   4   7
BRANCH   1  19
ATOM     19  S   UNL     1       6.832   5.293  17.408  0.00  0.00    +0.000 S 
ATOM     20  O   UNL     1       7.673   4.328  18.089  0.00  0.00    +0.000 OA
ATOM     21  O   UNL     1       7.173   6.699  17.388  0.00  0.00    +0.000 OA
BRANCH  19  25
ATOM     22  C   UNL     1       6.637   3.866  13.053  0.00  0.00    +0.000 A 
ATOM     23  C   UNL     1       5.897   3.206  14.038  0.00  0.00    +0.000 A 
ATOM     24  C   UNL     1       5.902   3.661  15.359  0.00  0.00    +0.000 A 
ATOM     25  C   UNL     1       6.700   4.751  15.709  0.00  0.00    +0.000 A 
ATOM     26  C   UNL     1       7.438   5.421  14.727  0.00  0.00    +0.000 A 
ATOM     27  C   UNL     1       7.404   4.979  13.400  0.00  0.00    +0.000 A 
BRANCH  22  29
ATOM     28  C   UNL     1       5.349   2.646  11.493  0.00  0.00    +0.000 C 
ATOM     29  O   UNL     1       6.565   3.321  11.801  0.00  0.00    +0.000 OA
ENDBRANCH  22  29
ENDBRANCH  19  25
ENDBRANCH   1  19
TORSDOF 6
ENDMDL
