MODEL 1
REMARK VINA RESULT:      -8.0      0.000      0.000
REMARK  Name = 
REMARK  5 active torsions:
REMARK  status: ('A' for Active; 'I' for Inactive)
REMARK    1  A    between atoms: C_1  and  S_2
REMARK    2  A    between atoms: S_2  and  C_3
REMARK    3  A    between atoms: N_5  and  C_6
REMARK    4  A    between atoms: C_14  and  N_15
REMARK    5  A    between atoms: C_19  and  C_21
REMARK                            x       y       z     vdW  Elec       q    Type
REMARK                         _______ _______ _______ _____ _____    ______ ____
ROOT
ATOM      1  C   UNL     1       4.112   6.476  17.430  0.00  0.00    +0.000 A 
ATOM      2  N   UNL     1       3.961   5.362  18.144  0.00  0.00    +0.000 NA
ATOM      3  N   UNL     1       2.869   5.606  18.915  0.00  0.00    +0.000 N 
ATOM      4  C   UNL     1       2.454   6.928  18.820  0.00  0.00    +0.000 A 
ATOM      5  C   UNL     1       1.525   7.686  19.553  0.00  0.00    +0.000 A 
ATOM      6  C   UNL     1       1.314   9.044  19.267  0.00  0.00    +0.000 A 
ATOM      7  C   UNL     1       2.038   9.594  18.203  0.00  0.00    +0.000 A 
ATOM      8  C   UNL     1       2.991   8.851  17.477  0.00  0.00    +0.000 A 
ATOM      9  C   UNL     1       3.225   7.505  17.818  0.00  0.00    +0.000 A 
ENDROOT
BRANCH   6  10
ATOM     10  N   UNL     1       0.424   9.778  20.027  0.00  0.00    +0.000 N 
ATOM     11  C   UNL     1      -0.375   9.217  21.132  0.00  0.00    +0.000 C 
ATOM     12  C   UNL     1      -0.300  10.145  22.375  0.00  0.00    +0.000 C 
ATOM     13  N   UNL     1      -0.507  11.569  22.042  0.00  0.00    +0.000 N 
ATOM     14  C   UNL     1      -1.459  12.311  22.727  0.00  0.00    +0.000 C 
ATOM     15  O   UNL     1      -2.137  11.792  23.616  0.00  0.00    +0.000 OA
ATOM     16  C   UNL     1       0.355  12.041  20.954  0.00  0.00    +0.000 C 
ATOM     17  C   UNL     1       0.114  11.183  19.705  0.00  0.00    +0.000 C 
BRANCH  14  18
ATOM     18  C   UNL     1      -1.621  13.801  22.374  0.00  0.00    +0.000 C 
ATOM     19  C   UNL     1      -0.784  14.714  23.282  0.00  0.00    +0.000 C 
ATOM     20  C   UNL     1      -1.440  14.980  24.634  0.00  0.00    +0.000 C 
ATOM     21  C   UNL     1      -2.901  15.393  24.500  0.00  0.00    +0.000 C 
ATOM     22  N   UNL     1      -3.674  14.465  23.678  0.00  0.00    +0.000 NA
ATOM     23  C   UNL     1      -3.085  14.267  22.353  0.00  0.00    +0.000 C 
ATOM     24  H   UNL     1      -4.626  14.821  23.583  0.00  0.00    +0.000 HD
ENDBRANCH  14  18
ENDBRANCH   6  10
BRANCH   3  25
ATOM     25  C   UNL     1       2.325   4.570  19.723  0.00  0.00    +0.000 A 
ATOM     26  C   UNL     1       1.415   3.665  19.163  0.00  0.00    +0.000 A 
ATOM     27  C   UNL     1       0.915   2.612  19.933  0.00  0.00    +0.000 A 
ATOM     28  C   UNL     1       1.290   2.477  21.267  0.00  0.00    +0.000 A 
ATOM     29  C   UNL     1       2.162   3.397  21.843  0.00  0.00    +0.000 A 
ATOM     30  C   UNL     1       2.681   4.446  21.077  0.00  0.00    +0.000 A 
ENDBRANCH   3  25
BRANCH   1  32
ATOM     31  C   UNL     1       6.854   6.552  17.180  0.00  0.00    +0.000 C 
ATOM     32  S   UNL     1       5.342   6.626  16.194  0.00  0.00    +0.000 S 
ENDBRANCH   1  32
TORSDOF 4
ENDMDL
MODEL 2
REMARK VINA RESULT:      -7.9      1.933      4.156
REMARK  Name = 
REMARK  5 active torsions:
REMARK  status: ('A' for Active; 'I' for Inactive)
REMARK    1  A    between atoms: C_1  and  S_2
REMARK    2  A    between atoms: S_2  and  C_3
REMARK    3  A    between atoms: N_5  and  C_6
REMARK    4  A    between atoms: C_14  and  N_15
REMARK    5  A    between atoms: C_19  and  C_21
REMARK                            x       y       z     vdW  Elec       q    Type
REMARK                         _______ _______ _______ _____ _____    ______ ____
ROOT
ATOM      1  C   UNL     1       3.127   3.438  19.283  0.00  0.00    +0.000 A 
ATOM      2  N   UNL     1       4.254   3.776  18.658  0.00  0.00    +0.000 NA
ATOM      3  N   UNL     1       4.390   5.104  18.908  0.00  0.00    +0.000 N 
ATOM      4  C   UNL     1       3.263   5.631  19.527  0.00  0.00    +0.000 A 
ATOM      5  C   UNL     1       2.859   6.949  19.799  0.00  0.00    +0.000 A 
ATOM      6  C   UNL     1       1.628   7.214  20.420  0.00  0.00    +0.000 A 
ATOM      7  C   UNL     1       0.847   6.114  20.787  0.00  0.00    +0.000 A 
ATOM      8  C   UNL     1       1.229   4.787  20.497  0.00  0.00    +0.000 A 
ATOM      9  C   UNL     1       2.443   4.550  19.824  0.00  0.00    +0.000 A 
ENDROOT
BRANCH   6  10
ATOM     10  N   UNL     1       1.236   8.520  20.642  0.00  0.00    +0.000 N 
ATOM     11  C   UNL     1       1.112   9.536  19.580  0.00  0.00    +0.000 C 
ATOM     12  C   UNL     1      -0.232  10.301  19.722  0.00  0.00    +0.000 C 
ATOM     13  N   UNL     1      -0.504  10.731  21.109  0.00  0.00    +0.000 N 
ATOM     14  C   UNL     1      -0.812  12.058  21.376  0.00  0.00    +0.000 C 
ATOM     15  O   UNL     1      -0.864  12.885  20.464  0.00  0.00    +0.000 OA
ATOM     16  C   UNL     1      -0.387   9.645  22.087  0.00  0.00    +0.000 C 
ATOM     17  C   UNL     1       1.020   9.037  22.006  0.00  0.00    +0.000 C 
BRANCH  14  18
ATOM     18  C   UNL     1      -1.123  12.461  22.830  0.00  0.00    +0.000 C 
ATOM     19  C   UNL     1      -2.528  12.026  23.272  0.00  0.00    +0.000 C 
ATOM     20  C   UNL     1      -3.626  12.971  22.794  0.00  0.00    +0.000 C 
ATOM     21  C   UNL     1      -3.300  14.433  23.077  0.00  0.00    +0.000 C 
ATOM     22  N   UNL     1      -1.979  14.819  22.587  0.00  0.00    +0.000 NA
ATOM     23  C   UNL     1      -0.916  13.957  23.105  0.00  0.00    +0.000 C 
ATOM     24  H   UNL     1      -1.798  15.788  22.852  0.00  0.00    +0.000 HD
ENDBRANCH  14  18
ENDBRANCH   6  10
BRANCH   3  25
ATOM     25  C   UNL     1       5.569   5.786  18.501  0.00  0.00    +0.000 A 
ATOM     26  C   UNL     1       5.525   6.632  17.385  0.00  0.00    +0.000 A 
ATOM     27  C   UNL     1       6.663   7.348  17.008  0.00  0.00    +0.000 A 
ATOM     28  C   UNL     1       7.854   7.200  17.715  0.00  0.00    +0.000 A 
ATOM     29  C   UNL     1       7.916   6.329  18.800  0.00  0.00    +0.000 A 
ATOM     30  C   UNL     1       6.778   5.619  19.196  0.00  0.00    +0.000 A 
ENDBRANCH   3  25
BRANCH   1  32
ATOM     31  C   UNL     1       0.875   1.957  18.715  0.00  0.00    +0.000 C 
ATOM     32  S   UNL     1       2.560   1.783  19.345  0.00  0.00    +0.000 S 
ENDBRANCH   1  32
TORSDOF 4
ENDMDL
MODEL 3
REMARK VINA RESULT:      -7.7      1.119      1.568
REMARK  Name = 
REMARK  5 active torsions:
REMARK  status: ('A' for Active; 'I' for Inactive)
REMARK    1  A    between atoms: C_1  and  S_2
REMARK    2  A    between atoms: S_2  and  C_3
REMARK    3  A    between atoms: N_5  and  C_6
REMARK    4  A    between atoms: C_14  and  N_15
REMARK    5  A    between atoms: C_19  and  C_21
REMARK                            x       y       z     vdW  Elec       q    Type
REMARK                         _______ _______ _______ _____ _____    ______ ____
ROOT
ATOM      1  C   UNL     1       4.077   6.647  17.498  0.00  0.00    +0.000 A 
ATOM      2  N   UNL     1       3.979   5.502  18.173  0.00  0.00    +0.000 NA
ATOM      3  N   UNL     1       2.849   5.647  18.913  0.00  0.00    +0.000 N 
ATOM      4  C   UNL     1       2.348   6.941  18.845  0.00  0.00    +0.000 A 
ATOM      5  C   UNL     1       1.347   7.610  19.568  0.00  0.00    +0.000 A 
ATOM      6  C   UNL     1       1.053   8.960  19.317  0.00  0.00    +0.000 A 
ATOM      7  C   UNL     1       1.771   9.591  18.296  0.00  0.00    +0.000 A 
ATOM      8  C   UNL     1       2.796   8.938  17.580  0.00  0.00    +0.000 A 
ATOM      9  C   UNL     1       3.109   7.600  17.888  0.00  0.00    +0.000 A 
ENDROOT
BRANCH   6  10
ATOM     10  N   UNL     1       0.091   9.607  20.068  0.00  0.00    +0.000 N 
ATOM     11  C   UNL     1      -0.089   9.416  21.519  0.00  0.00    +0.000 C 
ATOM     12  C   UNL     1      -0.231  10.789  22.230  0.00  0.00    +0.000 C 
ATOM     13  N   UNL     1      -1.170  11.697  21.542  0.00  0.00    +0.000 N 
ATOM     14  C   UNL     1      -2.205  12.293  22.252  0.00  0.00    +0.000 C 
ATOM     15  O   UNL     1      -2.346  12.072  23.456  0.00  0.00    +0.000 OA
ATOM     16  C   UNL     1      -0.890  11.848  20.111  0.00  0.00    +0.000 C 
ATOM     17  C   UNL     1      -0.925  10.469  19.438  0.00  0.00    +0.000 C 
BRANCH  14  18
ATOM     18  C   UNL     1      -3.143  13.260  21.507  0.00  0.00    +0.000 C 
ATOM     19  C   UNL     1      -3.248  14.626  22.200  0.00  0.00    +0.000 C 
ATOM     20  C   UNL     1      -4.214  14.626  23.382  0.00  0.00    +0.000 C 
ATOM     21  C   UNL     1      -5.555  13.989  23.037  0.00  0.00    +0.000 C 
ATOM     22  N   UNL     1      -5.410  12.666  22.436  0.00  0.00    +0.000 NA
ATOM     23  C   UNL     1      -4.543  12.680  21.257  0.00  0.00    +0.000 C 
ATOM     24  H   UNL     1      -6.334  12.316  22.180  0.00  0.00    +0.000 HD
ENDBRANCH  14  18
ENDBRANCH   6  10
BRANCH   3  25
ATOM     25  C   UNL     1       2.351   4.551  19.670  0.00  0.00    +0.000 A 
ATOM     26  C   UNL     1       2.658   4.458  21.034  0.00  0.00    +0.000 A 
ATOM     27  C   UNL     1       2.130   3.415  21.798  0.00  0.00    +0.000 A 
ATOM     28  C   UNL     1       1.327   2.445  21.204  0.00  0.00    +0.000 A 
ATOM     29  C   UNL     1       1.052   2.507  19.840  0.00  0.00    +0.000 A 
ATOM     30  C   UNL     1       1.562   3.556  19.069  0.00  0.00    +0.000 A 
ENDBRANCH   3  25
BRANCH   1  32
ATOM     31  C   UNL     1       6.523   5.632  16.743  0.00  0.00    +0.000 C 
ATOM     32  S   UNL     1       5.333   6.919  16.310  0.00  0.00    +0.000 S 
ENDBRANCH   1  32
TORSDOF 4
ENDMDL
MODEL 4
REMARK VINA RESULT:      -7.5      4.002      9.729
REMARK  Name = 
REMARK  5 active torsions:
REMARK  status: ('A' for Active; 'I' for Inactive)
REMARK    1  A    between atoms: C_1  and  S_2
REMARK    2  A    between atoms: S_2  and  C_3
REMARK    3  A    between atoms: N_5  and  C_6
REMARK    4  A    between atoms: C_14  and  N_15
REMARK    5  A    between atoms: C_19  and  C_21
REMARK                            x       y       z     vdW  Elec       q    Type
REMARK                         _______ _______ _______ _____ _____    ______ ____
ROOT
ATOM      1  C   UNL     1      -2.143  12.361  20.855  0.00  0.00    +0.000 A 
ATOM      2  N   UNL     1      -2.766  12.407  19.679  0.00  0.00    +0.000 NA
ATOM      3  N   UNL     1      -2.231  11.375  18.976  0.00  0.00    +0.000 N 
ATOM      4  C   UNL     1      -1.152  10.804  19.639  0.00  0.00    +0.000 A 
ATOM      5  C   UNL     1      -0.180   9.870  19.240  0.00  0.00    +0.000 A 
ATOM      6  C   UNL     1       0.847   9.478  20.113  0.00  0.00    +0.000 A 
ATOM      7  C   UNL     1       0.837  10.028  21.400  0.00  0.00    +0.000 A 
ATOM      8  C   UNL     1      -0.116  10.986  21.803  0.00  0.00    +0.000 A 
ATOM      9  C   UNL     1      -1.105  11.403  20.891  0.00  0.00    +0.000 A 
ENDROOT
BRANCH   6  10
ATOM     10  N   UNL     1       1.813   8.588  19.686  0.00  0.00    +0.000 N 
ATOM     11  C   UNL     1       2.122   7.317  20.366  0.00  0.00    +0.000 C 
ATOM     12  C   UNL     1       2.212   6.162  19.334  0.00  0.00    +0.000 C 
ATOM     13  N   UNL     1       3.021   6.512  18.149  0.00  0.00    +0.000 N 
ATOM     14  C   UNL     1       4.059   5.682  17.746  0.00  0.00    +0.000 C 
ATOM     15  O   UNL     1       4.312   4.649  18.369  0.00  0.00    +0.000 OA
ATOM     16  C   UNL     1       2.616   7.775  17.522  0.00  0.00    +0.000 C 
ATOM     17  C   UNL     1       2.705   8.906  18.556  0.00  0.00    +0.000 C 
BRANCH  14  18
ATOM     18  C   UNL     1       4.857   6.064  16.485  0.00  0.00    +0.000 C 
ATOM     19  C   UNL     1       4.929   4.917  15.467  0.00  0.00    +0.000 C 
ATOM     20  C   UNL     1       5.995   3.880  15.806  0.00  0.00    +0.000 C 
ATOM     21  C   UNL     1       7.341   4.515  16.137  0.00  0.00    +0.000 C 
ATOM     22  N   UNL     1       7.234   5.559  17.154  0.00  0.00    +0.000 NA
ATOM     23  C   UNL     1       6.265   6.594  16.793  0.00  0.00    +0.000 C 
ATOM     24  H   UNL     1       8.153   5.980  17.293  0.00  0.00    +0.000 HD
ENDBRANCH  14  18
ENDBRANCH   6  10
BRANCH   3  25
ATOM     25  C   UNL     1      -2.761  11.033  17.702  0.00  0.00    +0.000 A 
ATOM     26  C   UNL     1      -3.983  11.581  17.293  0.00  0.00    +0.000 A 
ATOM     27  C   UNL     1      -4.486  11.294  16.023  0.00  0.00    +0.000 A 
ATOM     28  C   UNL     1      -3.796  10.436  15.170  0.00  0.00    +0.000 A 
ATOM     29  C   UNL     1      -2.600   9.854  15.586  0.00  0.00    +0.000 A 
ATOM     30  C   UNL     1      -2.080  10.148  16.850  0.00  0.00    +0.000 A 
ENDBRANCH   3  25
BRANCH   1  32
ATOM     31  C   UNL     1      -3.165  12.278  23.412  0.00  0.00    +0.000 C 
ATOM     32  S   UNL     1      -2.558  13.440  22.169  0.00  0.00    +0.000 S 
ENDBRANCH   1  32
TORSDOF 4
ENDMDL
MODEL 5
REMARK VINA RESULT:      -7.4      0.799      1.072
REMARK  Name = 
REMARK  5 active torsions:
REMARK  status: ('A' for Active; 'I' for Inactive)
REMARK    1  A    between atoms: C_1  and  S_2
REMARK    2  A    between atoms: S_2  and  C_3
REMARK    3  A    between atoms: N_5  and  C_6
REMARK    4  A    between atoms: C_14  and  N_15
REMARK    5  A    between atoms: C_19  and  C_21
REMARK                            x       y       z     vdW  Elec       q    Type
REMARK                         _______ _______ _______ _____ _____    ______ ____
ROOT
ATOM      1  C   UNL     1       4.202   6.318  17.339  0.00  0.00    +0.000 A 
ATOM      2  N   UNL     1       4.014   5.233  18.088  0.00  0.00    +0.000 NA
ATOM      3  N   UNL     1       2.936   5.539  18.855  0.00  0.00    +0.000 N 
ATOM      4  C   UNL     1       2.567   6.871  18.721  0.00  0.00    +0.000 A 
ATOM      5  C   UNL     1       1.669   7.684  19.433  0.00  0.00    +0.000 A 
ATOM      6  C   UNL     1       1.504   9.039  19.106  0.00  0.00    +0.000 A 
ATOM      7  C   UNL     1       2.242   9.530  18.023  0.00  0.00    +0.000 A 
ATOM      8  C   UNL     1       3.165   8.731  17.317  0.00  0.00    +0.000 A 
ATOM      9  C   UNL     1       3.353   7.389  17.699  0.00  0.00    +0.000 A 
ENDROOT
BRANCH   6  10
ATOM     10  N   UNL     1       0.644   9.827  19.846  0.00  0.00    +0.000 N 
ATOM     11  C   UNL     1      -0.224   9.315  20.923  0.00  0.00    +0.000 C 
ATOM     12  C   UNL     1      -0.122  10.227  22.175  0.00  0.00    +0.000 C 
ATOM     13  N   UNL     1      -0.222  11.664  21.848  0.00  0.00    +0.000 N 
ATOM     14  C   UNL     1      -1.141  12.465  22.512  0.00  0.00    +0.000 C 
ATOM     15  O   UNL     1      -1.879  11.988  23.376  0.00  0.00    +0.000 OA
ATOM     16  C   UNL     1       0.702  12.084  20.789  0.00  0.00    +0.000 C 
ATOM     17  C   UNL     1       0.440  11.252  19.527  0.00  0.00    +0.000 C 
BRANCH  14  18
ATOM     18  C   UNL     1      -1.191  13.965  22.167  0.00  0.00    +0.000 C 
ATOM     19  C   UNL     1      -2.005  14.775  23.186  0.00  0.00    +0.000 C 
ATOM     20  C   UNL     1      -3.511  14.689  22.955  0.00  0.00    +0.000 C 
ATOM     21  C   UNL     1      -3.891  14.942  21.500  0.00  0.00    +0.000 C 
ATOM     22  N   UNL     1      -3.135  14.108  20.570  0.00  0.00    +0.000 NA
ATOM     23  C   UNL     1      -1.689  14.247  20.742  0.00  0.00    +0.000 C 
ATOM     24  H   UNL     1      -3.395  14.359  19.614  0.00  0.00    +0.000 HD
ENDBRANCH  14  18
ENDBRANCH   6  10
BRANCH   3  25
ATOM     25  C   UNL     1       2.359   4.548  19.697  0.00  0.00    +0.000 A 
ATOM     26  C   UNL     1       1.393   3.678  19.176  0.00  0.00    +0.000 A 
ATOM     27  C   UNL     1       0.858   2.669  19.979  0.00  0.00    +0.000 A 
ATOM     28  C   UNL     1       1.256   2.542  21.307  0.00  0.00    +0.000 A 
ATOM     29  C   UNL     1       2.186   3.429  21.844  0.00  0.00    +0.000 A 
ATOM     30  C   UNL     1       2.738   4.434  21.045  0.00  0.00    +0.000 A 
ENDBRANCH   3  25
BRANCH   1  32
ATOM     31  C   UNL     1       6.913   5.947  17.029  0.00  0.00    +0.000 C 
ATOM     32  S   UNL     1       5.431   6.387  16.095  0.00  0.00    +0.000 S 
ENDBRANCH   1  32
TORSDOF 4
ENDMDL
MODEL 6
REMARK VINA RESULT:      -7.2      3.467      9.409
REMARK  Name = 
REMARK  5 active torsions:
REMARK  status: ('A' for Active; 'I' for Inactive)
REMARK    1  A    between atoms: C_1  and  S_2
REMARK    2  A    between atoms: S_2  and  C_3
REMARK    3  A    between atoms: N_5  and  C_6
REMARK    4  A    between atoms: C_14  and  N_15
REMARK    5  A    between atoms: C_19  and  C_21
REMARK                            x       y       z     vdW  Elec       q    Type
REMARK                         _______ _______ _______ _____ _____    ______ ____
ROOT
ATOM      1  C   UNL     1      -0.036  15.281  19.594  0.00  0.00    +0.000 A 
ATOM      2  N   UNL     1      -1.196  15.194  20.243  0.00  0.00    +0.000 NA
ATOM      3  N   UNL     1      -1.302  13.878  20.562  0.00  0.00    +0.000 N 
ATOM      4  C   UNL     1      -0.310  13.118  19.955  0.00  0.00    +0.000 A 
ATOM      5  C   UNL     1      -0.124  11.731  19.824  0.00  0.00    +0.000 A 
ATOM      6  C   UNL     1       0.971  11.212  19.116  0.00  0.00    +0.000 A 
ATOM      7  C   UNL     1       1.882  12.131  18.583  0.00  0.00    +0.000 A 
ATOM      8  C   UNL     1       1.693  13.525  18.686  0.00  0.00    +0.000 A 
ATOM      9  C   UNL     1       0.557  14.021  19.354  0.00  0.00    +0.000 A 
ENDROOT
BRANCH   6  10
ATOM     10  N   UNL     1       1.112   9.846  18.968  0.00  0.00    +0.000 N 
ATOM     11  C   UNL     1       1.572   9.193  17.729  0.00  0.00    +0.000 C 
ATOM     12  C   UNL     1       2.655   8.129  18.052  0.00  0.00    +0.000 C 
ATOM     13  N   UNL     1       2.283   7.254  19.182  0.00  0.00    +0.000 N 
ATOM     14  C   UNL     1       2.326   5.874  19.036  0.00  0.00    +0.000 C 
ATOM     15  O   UNL     1       2.676   5.368  17.968  0.00  0.00    +0.000 OA
ATOM     16  C   UNL     1       1.871   7.996  20.378  0.00  0.00    +0.000 C 
ATOM     17  C   UNL     1       0.690   8.911  20.028  0.00  0.00    +0.000 C 
BRANCH  14  18
ATOM     18  C   UNL     1       1.963   4.996  20.248  0.00  0.00    +0.000 C 
ATOM     19  C   UNL     1       3.157   4.175  20.756  0.00  0.00    +0.000 C 
ATOM     20  C   UNL     1       3.407   2.911  19.938  0.00  0.00    +0.000 C 
ATOM     21  C   UNL     1       2.134   2.103  19.713  0.00  0.00    +0.000 C 
ATOM     22  N   UNL     1       1.043   2.911  19.173  0.00  0.00    +0.000 NA
ATOM     23  C   UNL     1       0.754   4.084  19.999  0.00  0.00    +0.000 C 
ATOM     24  H   UNL     1       0.208   2.329  19.095  0.00  0.00    +0.000 HD
ENDBRANCH  14  18
ENDBRANCH   6  10
BRANCH   3  25
ATOM     25  C   UNL     1      -2.369  13.431  21.389  0.00  0.00    +0.000 A 
ATOM     26  C   UNL     1      -2.100  13.017  22.699  0.00  0.00    +0.000 A 
ATOM     27  C   UNL     1      -3.147  12.627  23.536  0.00  0.00    +0.000 A 
ATOM     28  C   UNL     1      -4.457  12.614  23.065  0.00  0.00    +0.000 A 
ATOM     29  C   UNL     1      -4.728  12.985  21.750  0.00  0.00    +0.000 A 
ATOM     30  C   UNL     1      -3.689  13.392  20.908  0.00  0.00    +0.000 A 
ENDBRANCH   3  25
BRANCH   1  32
ATOM     31  C   UNL     1      -0.764  17.465  18.082  0.00  0.00    +0.000 C 
ATOM     32  S   UNL     1       0.613  16.815  19.054  0.00  0.00    +0.000 S 
ENDBRANCH   1  32
TORSDOF 4
ENDMDL
MODEL 7
REMARK VINA RESULT:      -7.2      1.211      1.498
REMARK  Name = 
REMARK  5 active torsions:
REMARK  status: ('A' for Active; 'I' for Inactive)
REMARK    1  A    between atoms: C_1  and  S_2
REMARK    2  A    between atoms: S_2  and  C_3
REMARK    3  A    between atoms: N_5  and  C_6
REMARK    4  A    between atoms: C_14  and  N_15
REMARK    5  A    between atoms: C_19  and  C_21
REMARK                            x       y       z     vdW  Elec       q    Type
REMARK                         _______ _______ _______ _____ _____    ______ ____
ROOT
ATOM      1  C   UNL     1       4.535   5.921  17.521  0.00  0.00    +0.000 A 
ATOM      2  N   UNL     1       4.337   4.862  18.304  0.00  0.00    +0.000 NA
ATOM      3  N   UNL     1       3.204   5.160  18.991  0.00  0.00    +0.000 N 
ATOM      4  C   UNL     1       2.801   6.473  18.776  0.00  0.00    +0.000 A 
ATOM      5  C   UNL     1       1.834   7.282  19.397  0.00  0.00    +0.000 A 
ATOM      6  C   UNL     1       1.646   8.616  19.002  0.00  0.00    +0.000 A 
ATOM      7  C   UNL     1       2.433   9.087  17.945  0.00  0.00    +0.000 A 
ATOM      8  C   UNL     1       3.424   8.293  17.331  0.00  0.00    +0.000 A 
ATOM      9  C   UNL     1       3.631   6.975  17.782  0.00  0.00    +0.000 A 
ENDROOT
BRANCH   6  10
ATOM     10  N   UNL     1       0.716   9.403  19.653  0.00  0.00    +0.000 N 
ATOM     11  C   UNL     1       0.487   9.374  21.110  0.00  0.00    +0.000 C 
ATOM     12  C   UNL     1       0.430  10.820  21.674  0.00  0.00    +0.000 C 
ATOM     13  N   UNL     1      -0.424  11.717  20.869  0.00  0.00    +0.000 N 
ATOM     14  C   UNL     1      -1.428  12.454  21.482  0.00  0.00    +0.000 C 
ATOM     15  O   UNL     1      -1.615  12.369  22.698  0.00  0.00    +0.000 OA
ATOM     16  C   UNL     1      -0.098  11.700  19.440  0.00  0.00    +0.000 C 
ATOM     17  C   UNL     1      -0.218  10.266  18.908  0.00  0.00    +0.000 C 
BRANCH  14  18
ATOM     18  C   UNL     1      -2.275  13.404  20.615  0.00  0.00    +0.000 C 
ATOM     19  C   UNL     1      -1.842  14.870  20.756  0.00  0.00    +0.000 C 
ATOM     20  C   UNL     1      -2.401  15.542  22.007  0.00  0.00    +0.000 C 
ATOM     21  C   UNL     1      -3.898  15.308  22.174  0.00  0.00    +0.000 C 
ATOM     22  N   UNL     1      -4.257  13.894  22.093  0.00  0.00    +0.000 NA
ATOM     23  C   UNL     1      -3.785  13.267  20.858  0.00  0.00    +0.000 C 
ATOM     24  H   UNL     1      -5.272  13.806  22.159  0.00  0.00    +0.000 HD
ENDBRANCH  14  18
ENDBRANCH   6  10
BRANCH   3  25
ATOM     25  C   UNL     1       2.609   4.186  19.838  0.00  0.00    +0.000 A 
ATOM     26  C   UNL     1       3.412   3.466  20.732  0.00  0.00    +0.000 A 
ATOM     27  C   UNL     1       2.830   2.545  21.605  0.00  0.00    +0.000 A 
ATOM     28  C   UNL     1       1.458   2.312  21.570  0.00  0.00    +0.000 A 
ATOM     29  C   UNL     1       0.658   2.993  20.655  0.00  0.00    +0.000 A 
ATOM     30  C   UNL     1       1.228   3.929  19.787  0.00  0.00    +0.000 A 
ENDBRANCH   3  25
BRANCH   1  32
ATOM     31  C   UNL     1       7.190   6.636  17.353  0.00  0.00    +0.000 C 
ATOM     32  S   UNL     1       5.836   5.981  16.352  0.00  0.00    +0.000 S 
ENDBRANCH   1  32
TORSDOF 4
ENDMDL
MODEL 8
REMARK VINA RESULT:      -7.1      1.291      1.822
REMARK  Name = 
REMARK  5 active torsions:
REMARK  status: ('A' for Active; 'I' for Inactive)
REMARK    1  A    between atoms: C_1  and  S_2
REMARK    2  A    between atoms: S_2  and  C_3
REMARK    3  A    between atoms: N_5  and  C_6
REMARK    4  A    between atoms: C_14  and  N_15
REMARK    5  A    between atoms: C_19  and  C_21
REMARK                            x       y       z     vdW  Elec       q    Type
REMARK                         _______ _______ _______ _____ _____    ______ ____
ROOT
ATOM      1  C   UNL     1       4.688   5.473  17.378  0.00  0.00    +0.000 A 
ATOM      2  N   UNL     1       4.338   4.521  18.242  0.00  0.00    +0.000 NA
ATOM      3  N   UNL     1       3.240   5.023  18.865  0.00  0.00    +0.000 N 
ATOM      4  C   UNL     1       3.016   6.352  18.526  0.00  0.00    +0.000 A 
ATOM      5  C   UNL     1       2.152   7.331  19.046  0.00  0.00    +0.000 A 
ATOM      6  C   UNL     1       2.148   8.638  18.533  0.00  0.00    +0.000 A 
ATOM      7  C   UNL     1       3.010   8.908  17.465  0.00  0.00    +0.000 A 
ATOM      8  C   UNL     1       3.901   7.942  16.952  0.00  0.00    +0.000 A 
ATOM      9  C   UNL     1       3.924   6.654  17.519  0.00  0.00    +0.000 A 
ENDROOT
BRANCH   6  10
ATOM     10  N   UNL     1       1.316   9.592  19.086  0.00  0.00    +0.000 N 
ATOM     11  C   UNL     1       0.265  10.304  18.336  0.00  0.00    +0.000 C 
ATOM     12  C   UNL     1      -1.060  10.314  19.145  0.00  0.00    +0.000 C 
ATOM     13  N   UNL     1      -0.866  10.685  20.561  0.00  0.00    +0.000 N 
ATOM     14  C   UNL     1      -1.624  11.704  21.123  0.00  0.00    +0.000 C 
ATOM     15  O   UNL     1      -2.464  12.303  20.449  0.00  0.00    +0.000 OA
ATOM     16  C   UNL     1       0.178   9.900  21.229  0.00  0.00    +0.000 C 
ATOM     17  C   UNL     1       1.501  10.064  20.470  0.00  0.00    +0.000 C 
BRANCH  14  18
ATOM     18  C   UNL     1      -1.416  12.038  22.611  0.00  0.00    +0.000 C 
ATOM     19  C   UNL     1      -2.668  11.763  23.456  0.00  0.00    +0.000 C 
ATOM     20  C   UNL     1      -3.708  12.876  23.368  0.00  0.00    +0.000 C 
ATOM     21  C   UNL     1      -3.098  14.258  23.576  0.00  0.00    +0.000 C 
ATOM     22  N   UNL     1      -1.947  14.500  22.711  0.00  0.00    +0.000 NA
ATOM     23  C   UNL     1      -0.916  13.471  22.850  0.00  0.00    +0.000 C 
ATOM     24  H   UNL     1      -1.553  15.415  22.933  0.00  0.00    +0.000 HD
ENDBRANCH  14  18
ENDBRANCH   6  10
BRANCH   3  25
ATOM     25  C   UNL     1       2.505   4.212  19.773  0.00  0.00    +0.000 A 
ATOM     26  C   UNL     1       1.372   3.523  19.321  0.00  0.00    +0.000 A 
ATOM     27  C   UNL     1       0.675   2.683  20.191  0.00  0.00    +0.000 A 
ATOM     28  C   UNL     1       1.079   2.551  21.517  0.00  0.00    +0.000 A 
ATOM     29  C   UNL     1       2.180   3.266  21.985  0.00  0.00    +0.000 A 
ATOM     30  C   UNL     1       2.895   4.098  21.118  0.00  0.00    +0.000 A 
ENDBRANCH   3  25
BRANCH   1  32
ATOM     31  C   UNL     1       7.327   4.687  17.341  0.00  0.00    +0.000 C 
ATOM     32  S   UNL     1       6.008   5.261  16.249  0.00  0.00    +0.000 S 
ENDBRANCH   1  32
TORSDOF 4
ENDMDL
MODEL 9
REMARK VINA RESULT:      -7.1      4.062      9.649
REMARK  Name = 
REMARK  5 active torsions:
REMARK  status: ('A' for Active; 'I' for Inactive)
REMARK    1  A    between atoms: C_1  and  S_2
REMARK    2  A    between atoms: S_2  and  C_3
REMARK    3  A    between atoms: N_5  and  C_6
REMARK    4  A    between atoms: C_14  and  N_15
REMARK    5  A    between atoms: C_19  and  C_21
REMARK                            x       y       z     vdW  Elec       q    Type
REMARK                         _______ _______ _______ _____ _____    ______ ____
ROOT
ATOM      1  C   UNL     1      -2.700  12.506  20.608  0.00  0.00    +0.000 A 
ATOM      2  N   UNL     1      -3.215  12.501  19.380  0.00  0.00    +0.000 NA
ATOM      3  N   UNL     1      -2.570  11.484  18.751  0.00  0.00    +0.000 N 
ATOM      4  C   UNL     1      -1.529  10.979  19.520  0.00  0.00    +0.000 A 
ATOM      5  C   UNL     1      -0.483  10.087  19.232  0.00  0.00    +0.000 A 
ATOM      6  C   UNL     1       0.479   9.762  20.202  0.00  0.00    +0.000 A 
ATOM      7  C   UNL     1       0.326  10.333  21.470  0.00  0.00    +0.000 A 
ATOM      8  C   UNL     1      -0.705  11.250  21.765  0.00  0.00    +0.000 A 
ATOM      9  C   UNL     1      -1.625  11.602  20.759  0.00  0.00    +0.000 A 
ENDROOT
BRANCH   6  10
ATOM     10  N   UNL     1       1.520   8.913  19.883  0.00  0.00    +0.000 N 
ATOM     11  C   UNL     1       1.954   7.785  20.728  0.00  0.00    +0.000 C 
ATOM     12  C   UNL     1       2.144   6.508  19.866  0.00  0.00    +0.000 C 
ATOM     13  N   UNL     1       2.906   6.760  18.626  0.00  0.00    +0.000 N 
ATOM     14  C   UNL     1       4.014   5.981  18.321  0.00  0.00    +0.000 C 
ATOM     15  O   UNL     1       4.370   5.074  19.077  0.00  0.00    +0.000 OA
ATOM     16  C   UNL     1       2.379   7.879  17.838  0.00  0.00    +0.000 C 
ATOM     17  C   UNL     1       2.369   9.148  18.700  0.00  0.00    +0.000 C 
BRANCH  14  18
ATOM     18  C   UNL     1       4.762   6.252  17.003  0.00  0.00    +0.000 C 
ATOM     19  C   UNL     1       4.716   5.054  16.044  0.00  0.00    +0.000 C 
ATOM     20  C   UNL     1       5.741   3.975  16.383  0.00  0.00    +0.000 C 
ATOM     21  C   UNL     1       7.135   4.548  16.610  0.00  0.00    +0.000 C 
ATOM     22  N   UNL     1       7.141   5.646  17.573  0.00  0.00    +0.000 NA
ATOM     23  C   UNL     1       6.211   6.716  17.209  0.00  0.00    +0.000 C 
ATOM     24  H   UNL     1       8.088   6.021  17.643  0.00  0.00    +0.000 HD
ENDBRANCH  14  18
ENDBRANCH   6  10
BRANCH   3  25
ATOM     25  C   UNL     1      -2.965  11.094  17.442  0.00  0.00    +0.000 A 
ATOM     26  C   UNL     1      -2.165  10.201  16.718  0.00  0.00    +0.000 A 
ATOM     27  C   UNL     1      -2.569   9.771  15.453  0.00  0.00    +0.000 A 
ATOM     28  C   UNL     1      -3.750  10.251  14.891  0.00  0.00    +0.000 A 
ATOM     29  C   UNL     1      -4.530  11.171  15.588  0.00  0.00    +0.000 A 
ATOM     30  C   UNL     1      -4.141  11.597  16.862  0.00  0.00    +0.000 A 
ENDBRANCH   3  25
BRANCH   1  32
ATOM     31  C   UNL     1      -2.101  14.947  21.735  0.00  0.00    +0.000 C 
ATOM     32  S   UNL     1      -3.284  13.587  21.855  0.00  0.00    +0.000 S 
ENDBRANCH   1  32
TORSDOF 4
ENDMDL
