MODEL 1
REMARK VINA RESULT:      -8.5      0.000      0.000
REMARK  Name = 
REMARK  8 active torsions:
REMARK  status: ('A' for Active; 'I' for Inactive)
REMARK    1  A    between atoms: C_1  and  O_2
REMARK    2  A    between atoms: O_2  and  C_3
REMARK    3  A    between atoms: N_12  and  C_13
REMARK    4  A    between atoms: C_13  and  C_14
REMARK    5  A    between atoms: C_14  and  C_15
REMARK    6  A    between atoms: C_15  and  C_16
REMARK    7  A    between atoms: C_16  and  N_17
REMARK    8  A    between atoms: C_18  and  C_20
REMARK                            x       y       z     vdW  Elec       q    Type
REMARK                         _______ _______ _______ _____ _____    ______ ____
ROOT
ATOM      1  C   UNL     1      -0.172  11.669  22.193  0.00  0.00    +0.000 C 
ENDROOT
BRANCH   1  11
ATOM      2  C   UNL     1      -6.200  13.328  20.031  0.00  0.00    +0.000 A 
ATOM      3  C   UNL     1      -7.466  13.253  19.424  0.00  0.00    +0.000 A 
ATOM      4  C   UNL     1      -7.642  12.573  18.229  0.00  0.00    +0.000 A 
ATOM      5  C   UNL     1      -6.545  12.000  17.605  0.00  0.00    +0.000 A 
ATOM      6  C   UNL     1      -5.265  12.068  18.190  0.00  0.00    +0.000 A 
ATOM      7  C   UNL     1      -5.055  12.700  19.439  0.00  0.00    +0.000 A 
ATOM      8  N   UNL     1      -3.779  12.647  20.030  0.00  0.00    +0.000 N 
ATOM      9  C   UNL     1      -3.612  13.032  21.434  0.00  0.00    +0.000 C 
ATOM     10  C   UNL     1      -2.203  12.986  22.049  0.00  0.00    +0.000 C 
ATOM     11  N   UNL     1      -1.058  12.450  21.308  0.00  0.00    +0.000 NA
ATOM     12  C   UNL     1      -1.493  11.616  20.182  0.00  0.00    +0.000 C 
ATOM     13  C   UNL     1      -2.596  12.217  19.268  0.00  0.00    +0.000 C 
ATOM     14  C   UNL     1      -2.953  11.116  18.266  0.00  0.00    +0.000 C 
ATOM     15  C   UNL     1      -4.127  11.492  17.395  0.00  0.00    +0.000 C 
BRANCH   2  17
ATOM     16  C   UNL     1      -7.068  14.932  21.604  0.00  0.00    +0.000 C 
ATOM     17  O   UNL     1      -6.017  14.091  21.160  0.00  0.00    +0.000 OA
ENDBRANCH   2  17
ENDBRANCH   1  11
BRANCH   1  18
ATOM     18  C   UNL     1      -0.904  10.571  22.981  0.00  0.00    +0.000 C 
BRANCH  18  19
ATOM     19  C   UNL     1      -0.311   9.183  22.740  0.00  0.00    +0.000 C 
BRANCH  19  20
ATOM     20  C   UNL     1       1.173   9.234  22.387  0.00  0.00    +0.000 C 
BRANCH  20  21
ATOM     21  N   UNL     1       1.583   8.045  21.670  0.00  0.00    +0.000 N 
ATOM     22  C   UNL     1       1.649   8.073  20.282  0.00  0.00    +0.000 C 
ATOM     23  O   UNL     1       1.388   9.062  19.613  0.00  0.00    +0.000 OA
ATOM     24  H   UNL     1       1.907   7.235  22.167  0.00  0.00    +0.000 HD
BRANCH  22  25
ATOM     25  C   UNL     1       2.136   6.840  19.636  0.00  0.00    +0.000 A 
ATOM     26  C   UNL     1       2.811   6.956  18.434  0.00  0.00    +0.000 A 
ATOM     27  C   UNL     1       3.295   5.802  17.820  0.00  0.00    +0.000 A 
ATOM     28  C   UNL     1       2.981   4.536  18.350  0.00  0.00    +0.000 A 
ATOM     29  C   UNL     1       3.394   3.371  17.716  0.00  0.00    +0.000 A 
ATOM     30  C   UNL     1       2.602   2.238  17.804  0.00  0.00    +0.000 A 
ATOM     31  C   UNL     1       1.706   2.134  18.859  0.00  0.00    +0.000 A 
ATOM     32  C   UNL     1       1.595   3.177  19.782  0.00  0.00    +0.000 A 
ATOM     33  C   UNL     1       2.142   4.433  19.475  0.00  0.00    +0.000 A 
ATOM     34  C   UNL     1       1.825   5.594  20.196  0.00  0.00    +0.000 A 
ENDBRANCH  22  25
ENDBRANCH  20  21
ENDBRANCH  19  20
ENDBRANCH  18  19
ENDBRANCH   1  18
TORSDOF 7
ENDMDL
MODEL 2
REMARK VINA RESULT:      -8.4      1.889      2.703
REMARK  Name = 
REMARK  8 active torsions:
REMARK  status: ('A' for Active; 'I' for Inactive)
REMARK    1  A    between atoms: C_1  and  O_2
REMARK    2  A    between atoms: O_2  and  C_3
REMARK    3  A    between atoms: N_12  and  C_13
REMARK    4  A    between atoms: C_13  and  C_14
REMARK    5  A    between atoms: C_14  and  C_15
REMARK    6  A    between atoms: C_15  and  C_16
REMARK    7  A    between atoms: C_16  and  N_17
REMARK    8  A    between atoms: C_18  and  C_20
REMARK                            x       y       z     vdW  Elec       q    Type
REMARK                         _______ _______ _______ _____ _____    ______ ____
ROOT
ATOM      1  C   UNL     1       0.922  10.961  19.584  0.00  0.00    +0.000 C 
ENDROOT
BRANCH   1  11
ATOM      2  C   UNL     1      -5.404  12.794  20.203  0.00  0.00    +0.000 A 
ATOM      3  C   UNL     1      -6.809  12.770  20.162  0.00  0.00    +0.000 A 
ATOM      4  C   UNL     1      -7.480  12.192  19.094  0.00  0.00    +0.000 A 
ATOM      5  C   UNL     1      -6.751  11.674  18.035  0.00  0.00    +0.000 A 
ATOM      6  C   UNL     1      -5.342  11.692  18.051  0.00  0.00    +0.000 A 
ATOM      7  C   UNL     1      -4.621  12.217  19.150  0.00  0.00    +0.000 A 
ATOM      8  N   UNL     1      -3.218  12.116  19.163  0.00  0.00    +0.000 N 
ATOM      9  C   UNL     1      -2.481  12.382  20.402  0.00  0.00    +0.000 C 
ATOM     10  C   UNL     1      -0.946  12.285  20.382  0.00  0.00    +0.000 C 
ATOM     11  N   UNL     1      -0.221  11.813  19.201  0.00  0.00    +0.000 NA
ATOM     12  C   UNL     1      -1.103  11.076  18.290  0.00  0.00    +0.000 C 
ATOM     13  C   UNL     1      -2.462  11.752  17.954  0.00  0.00    +0.000 C 
ATOM     14  C   UNL     1      -3.233  10.738  17.103  0.00  0.00    +0.000 C 
ATOM     15  C   UNL     1      -4.646  11.186  16.819  0.00  0.00    +0.000 C 
BRANCH   2  17
ATOM     16  C   UNL     1      -5.492  14.317  22.067  0.00  0.00    +0.000 C 
ATOM     17  O   UNL     1      -4.752  13.459  21.214  0.00  0.00    +0.000 OA
ENDBRANCH   2  17
ENDBRANCH   1  11
BRANCH   1  18
ATOM     18  C   UNL     1       0.751  10.286  20.956  0.00  0.00    +0.000 C 
BRANCH  18  19
ATOM     19  C   UNL     1       0.313   8.827  20.839  0.00  0.00    +0.000 C 
BRANCH  19  20
ATOM     20  C   UNL     1       1.388   7.854  21.317  0.00  0.00    +0.000 C 
BRANCH  20  21
ATOM     21  N   UNL     1       2.157   7.334  20.206  0.00  0.00    +0.000 N 
ATOM     22  C   UNL     1       2.272   5.959  20.036  0.00  0.00    +0.000 C 
ATOM     23  O   UNL     1       1.745   5.142  20.777  0.00  0.00    +0.000 OA
ATOM     24  H   UNL     1       2.528   7.954  19.508  0.00  0.00    +0.000 HD
BRANCH  22  25
ATOM     25  C   UNL     1       3.019   5.518  18.845  0.00  0.00    +0.000 A 
ATOM     26  C   UNL     1       2.690   4.297  18.283  0.00  0.00    +0.000 A 
ATOM     27  C   UNL     1       3.373   3.874  17.144  0.00  0.00    +0.000 A 
ATOM     28  C   UNL     1       4.466   4.617  16.661  0.00  0.00    +0.000 A 
ATOM     29  C   UNL     1       5.205   4.177  15.569  0.00  0.00    +0.000 A 
ATOM     30  C   UNL     1       6.557   4.474  15.506  0.00  0.00    +0.000 A 
ATOM     31  C   UNL     1       7.035   5.553  16.235  0.00  0.00    +0.000 A 
ATOM     32  C   UNL     1       6.162   6.291  17.039  0.00  0.00    +0.000 A 
ATOM     33  C   UNL     1       4.899   5.763  17.352  0.00  0.00    +0.000 A 
ATOM     34  C   UNL     1       4.091   6.287  18.373  0.00  0.00    +0.000 A 
ENDBRANCH  22  25
ENDBRANCH  20  21
ENDBRANCH  19  20
ENDBRANCH  18  19
ENDBRANCH   1  18
TORSDOF 7
ENDMDL
MODEL 3
REMARK VINA RESULT:      -8.3      4.339     10.767
REMARK  Name = 
REMARK  8 active torsions:
REMARK  status: ('A' for Active; 'I' for Inactive)
REMARK    1  A    between atoms: C_1  and  O_2
REMARK    2  A    between atoms: O_2  and  C_3
REMARK    3  A    between atoms: N_12  and  C_13
REMARK    4  A    between atoms: C_13  and  C_14
REMARK    5  A    between atoms: C_14  and  C_15
REMARK    6  A    between atoms: C_15  and  C_16
REMARK    7  A    between atoms: C_16  and  N_17
REMARK    8  A    between atoms: C_18  and  C_20
REMARK                            x       y       z     vdW  Elec       q    Type
REMARK                         _______ _______ _______ _____ _____    ______ ____
ROOT
ATOM      1  C   UNL     1       2.128   1.850  18.981  0.00  0.00    +0.000 C 
ENDROOT
BRANCH   1  11
ATOM      2  C   UNL     1       7.320   5.950  18.999  0.00  0.00    +0.000 A 
ATOM      3  C   UNL     1       8.118   7.091  18.809  0.00  0.00    +0.000 A 
ATOM      4  C   UNL     1       8.008   7.851  17.654  0.00  0.00    +0.000 A 
ATOM      5  C   UNL     1       7.132   7.450  16.659  0.00  0.00    +0.000 A 
ATOM      6  C   UNL     1       6.326   6.306  16.824  0.00  0.00    +0.000 A 
ATOM      7  C   UNL     1       6.365   5.538  18.013  0.00  0.00    +0.000 A 
ATOM      8  N   UNL     1       5.466   4.468  18.171  0.00  0.00    +0.000 N 
ATOM      9  C   UNL     1       5.289   3.855  19.490  0.00  0.00    +0.000 C 
ATOM     10  C   UNL     1       4.315   2.672  19.629  0.00  0.00    +0.000 C 
ATOM     11  N   UNL     1       3.475   2.233  18.513  0.00  0.00    +0.000 NA
ATOM     12  C   UNL     1       3.364   3.274  17.485  0.00  0.00    +0.000 C 
ATOM     13  C   UNL     1       4.694   3.940  17.034  0.00  0.00    +0.000 C 
ATOM     14  C   UNL     1       4.295   5.058  16.068  0.00  0.00    +0.000 C 
ATOM     15  C   UNL     1       5.473   5.905  15.653  0.00  0.00    +0.000 C 
BRANCH   2  17
ATOM     16  C   UNL     1       8.804   5.055  20.673  0.00  0.00    +0.000 C 
ATOM     17  O   UNL     1       7.511   5.147  20.100  0.00  0.00    +0.000 OA
ENDBRANCH   2  17
ENDBRANCH   1  11
BRANCH   1  18
ATOM     18  C   UNL     1       1.183   3.047  19.176  0.00  0.00    +0.000 C 
BRANCH  18  19
ATOM     19  C   UNL     1       1.093   3.491  20.635  0.00  0.00    +0.000 C 
BRANCH  19  20
ATOM     20  C   UNL     1       2.127   4.558  20.987  0.00  0.00    +0.000 C 
BRANCH  20  21
ATOM     21  N   UNL     1       1.523   5.873  21.051  0.00  0.00    +0.000 N 
ATOM     22  C   UNL     1       1.943   6.862  20.171  0.00  0.00    +0.000 C 
ATOM     23  O   UNL     1       2.803   6.687  19.319  0.00  0.00    +0.000 OA
ATOM     24  H   UNL     1       0.743   6.047  21.660  0.00  0.00    +0.000 HD
BRANCH  22  25
ATOM     25  C   UNL     1       1.233   8.150  20.263  0.00  0.00    +0.000 A 
ATOM     26  C   UNL     1       1.497   9.111  19.304  0.00  0.00    +0.000 A 
ATOM     27  C   UNL     1       0.818  10.328  19.365  0.00  0.00    +0.000 A 
ATOM     28  C   UNL     1      -0.017  10.615  20.461  0.00  0.00    +0.000 A 
ATOM     29  C   UNL     1      -0.648  11.847  20.578  0.00  0.00    +0.000 A 
ATOM     30  C   UNL     1      -0.883  12.368  21.839  0.00  0.00    +0.000 A 
ATOM     31  C   UNL     1      -0.930  11.498  22.919  0.00  0.00    +0.000 A 
ATOM     32  C   UNL     1      -0.705  10.133  22.722  0.00  0.00    +0.000 A 
ATOM     33  C   UNL     1      -0.134   9.694  21.517  0.00  0.00    +0.000 A 
ATOM     34  C   UNL     1       0.392   8.402  21.355  0.00  0.00    +0.000 A 
ENDBRANCH  22  25
ENDBRANCH  20  21
ENDBRANCH  19  20
ENDBRANCH  18  19
ENDBRANCH   1  18
TORSDOF 7
ENDMDL
MODEL 4
REMARK VINA RESULT:      -8.2      2.260      2.997
REMARK  Name = 
REMARK  8 active torsions:
REMARK  status: ('A' for Active; 'I' for Inactive)
REMARK    1  A    between atoms: C_1  and  O_2
REMARK    2  A    between atoms: O_2  and  C_3
REMARK    3  A    between atoms: N_12  and  C_13
REMARK    4  A    between atoms: C_13  and  C_14
REMARK    5  A    between atoms: C_14  and  C_15
REMARK    6  A    between atoms: C_15  and  C_16
REMARK    7  A    between atoms: C_16  and  N_17
REMARK    8  A    between atoms: C_18  and  C_20
REMARK                            x       y       z     vdW  Elec       q    Type
REMARK                         _______ _______ _______ _____ _____    ______ ____
ROOT
ATOM      1  C   UNL     1       0.818  10.496  19.750  0.00  0.00    +0.000 C 
ENDROOT
BRANCH   1  11
ATOM      2  C   UNL     1      -5.329  12.919  20.079  0.00  0.00    +0.000 A 
ATOM      3  C   UNL     1      -6.728  13.023  19.987  0.00  0.00    +0.000 A 
ATOM      4  C   UNL     1      -7.413  12.471  18.914  0.00  0.00    +0.000 A 
ATOM      5  C   UNL     1      -6.700  11.852  17.900  0.00  0.00    +0.000 A 
ATOM      6  C   UNL     1      -5.297  11.742  17.966  0.00  0.00    +0.000 A 
ATOM      7  C   UNL     1      -4.567  12.237  19.073  0.00  0.00    +0.000 A 
ATOM      8  N   UNL     1      -3.181  12.009  19.142  0.00  0.00    +0.000 N 
ATOM      9  C   UNL     1      -2.465  12.249  20.397  0.00  0.00    +0.000 C 
ATOM     10  C   UNL     1      -0.946  12.011  20.437  0.00  0.00    +0.000 C 
ATOM     11  N   UNL     1      -0.228  11.435  19.298  0.00  0.00    +0.000 NA
ATOM     12  C   UNL     1      -1.144  10.750  18.379  0.00  0.00    +0.000 C 
ATOM     13  C   UNL     1      -2.423  11.535  17.972  0.00  0.00    +0.000 C 
ATOM     14  C   UNL     1      -3.255  10.567  17.127  0.00  0.00    +0.000 C 
ATOM     15  C   UNL     1      -4.610  11.132  16.777  0.00  0.00    +0.000 C 
BRANCH   2  17
ATOM     16  C   UNL     1      -5.301  13.760  22.336  0.00  0.00    +0.000 C 
ATOM     17  O   UNL     1      -4.652  13.557  21.092  0.00  0.00    +0.000 OA
ENDBRANCH   2  17
ENDBRANCH   1  11
BRANCH   1  18
ATOM     18  C   UNL     1       0.257   9.217  20.395  0.00  0.00    +0.000 C 
BRANCH  18  19
ATOM     19  C   UNL     1       1.311   8.454  21.196  0.00  0.00    +0.000 C 
BRANCH  19  20
ATOM     20  C   UNL     1       1.337   6.965  20.858  0.00  0.00    +0.000 C 
BRANCH  20  21
ATOM     21  N   UNL     1       2.525   6.619  20.106  0.00  0.00    +0.000 N 
ATOM     22  C   UNL     1       2.709   5.308  19.682  0.00  0.00    +0.000 C 
ATOM     23  O   UNL     1       1.909   4.410  19.899  0.00  0.00    +0.000 OA
ATOM     24  H   UNL     1       3.168   7.332  19.810  0.00  0.00    +0.000 HD
BRANCH  22  25
ATOM     25  C   UNL     1       3.913   5.058  18.869  0.00  0.00    +0.000 A 
ATOM     26  C   UNL     1       5.148   5.318  19.435  0.00  0.00    +0.000 A 
ATOM     27  C   UNL     1       6.297   5.068  18.687  0.00  0.00    +0.000 A 
ATOM     28  C   UNL     1       6.191   4.685  17.337  0.00  0.00    +0.000 A 
ATOM     29  C   UNL     1       7.323   4.498  16.553  0.00  0.00    +0.000 A 
ATOM     30  C   UNL     1       7.260   4.779  15.199  0.00  0.00    +0.000 A 
ATOM     31  C   UNL     1       6.019   4.777  14.577  0.00  0.00    +0.000 A 
ATOM     32  C   UNL     1       4.866   4.531  15.327  0.00  0.00    +0.000 A 
ATOM     33  C   UNL     1       4.926   4.598  16.728  0.00  0.00    +0.000 A 
ATOM     34  C   UNL     1       3.778   4.659  17.533  0.00  0.00    +0.000 A 
ENDBRANCH  22  25
ENDBRANCH  20  21
ENDBRANCH  19  20
ENDBRANCH  18  19
ENDBRANCH   1  18
TORSDOF 7
ENDMDL
MODEL 5
REMARK VINA RESULT:      -8.1      4.792     10.755
REMARK  Name = 
REMARK  8 active torsions:
REMARK  status: ('A' for Active; 'I' for Inactive)
REMARK    1  A    between atoms: C_1  and  O_2
REMARK    2  A    between atoms: O_2  and  C_3
REMARK    3  A    between atoms: N_12  and  C_13
REMARK    4  A    between atoms: C_13  and  C_14
REMARK    5  A    between atoms: C_14  and  C_15
REMARK    6  A    between atoms: C_15  and  C_16
REMARK    7  A    between atoms: C_16  and  N_17
REMARK    8  A    between atoms: C_18  and  C_20
REMARK                            x       y       z     vdW  Elec       q    Type
REMARK                         _______ _______ _______ _____ _____    ______ ____
ROOT
ATOM      1  C   UNL     1       2.013   1.798  19.083  0.00  0.00    +0.000 C 
ENDROOT
BRANCH   1  11
ATOM      2  C   UNL     1       7.231   5.863  18.942  0.00  0.00    +0.000 A 
ATOM      3  C   UNL     1       8.044   6.980  18.682  0.00  0.00    +0.000 A 
ATOM      4  C   UNL     1       7.985   7.633  17.461  0.00  0.00    +0.000 A 
ATOM      5  C   UNL     1       7.146   7.148  16.471  0.00  0.00    +0.000 A 
ATOM      6  C   UNL     1       6.326   6.026  16.706  0.00  0.00    +0.000 A 
ATOM      7  C   UNL     1       6.312   5.369  17.959  0.00  0.00    +0.000 A 
ATOM      8  N   UNL     1       5.399   4.321  18.176  0.00  0.00    +0.000 N 
ATOM      9  C   UNL     1       5.166   3.829  19.536  0.00  0.00    +0.000 C 
ATOM     10  C   UNL     1       4.179   2.667  19.742  0.00  0.00    +0.000 C 
ATOM     11  N   UNL     1       3.380   2.133  18.637  0.00  0.00    +0.000 NA
ATOM     12  C   UNL     1       3.317   3.078  17.516  0.00  0.00    +0.000 C 
ATOM     13  C   UNL     1       4.669   3.695  17.061  0.00  0.00    +0.000 C 
ATOM     14  C   UNL     1       4.317   4.724  15.983  0.00  0.00    +0.000 C 
ATOM     15  C   UNL     1       5.517   5.526  15.542  0.00  0.00    +0.000 C 
BRANCH   2  17
ATOM     16  C   UNL     1       8.655   5.056  20.708  0.00  0.00    +0.000 C 
ATOM     17  O   UNL     1       7.372   5.162  20.116  0.00  0.00    +0.000 OA
ENDBRANCH   2  17
ENDBRANCH   1  11
BRANCH   1  18
ATOM     18  C   UNL     1       1.609   2.492  20.395  0.00  0.00    +0.000 C 
BRANCH  18  19
ATOM     19  C   UNL     1       1.201   3.950  20.185  0.00  0.00    +0.000 C 
BRANCH  19  20
ATOM     20  C   UNL     1       1.963   4.908  21.097  0.00  0.00    +0.000 C 
BRANCH  20  21
ATOM     21  N   UNL     1       1.640   6.287  20.797  0.00  0.00    +0.000 N 
ATOM     22  C   UNL     1       2.175   6.883  19.661  0.00  0.00    +0.000 C 
ATOM     23  O   UNL     1       2.909   6.301  18.876  0.00  0.00    +0.000 OA
ATOM     24  H   UNL     1       0.963   6.784  21.347  0.00  0.00    +0.000 HD
BRANCH  22  25
ATOM     25  C   UNL     1       1.744   8.268  19.397  0.00  0.00    +0.000 A 
ATOM     26  C   UNL     1       2.121   8.852  18.201  0.00  0.00    +0.000 A 
ATOM     27  C   UNL     1       1.705  10.154  17.927  0.00  0.00    +0.000 A 
ATOM     28  C   UNL     1       1.030  10.901  18.911  0.00  0.00    +0.000 A 
ATOM     29  C   UNL     1       0.668  12.223  18.686  0.00  0.00    +0.000 A 
ATOM     30  C   UNL     1       0.638  13.106  19.753  0.00  0.00    +0.000 A 
ATOM     31  C   UNL     1       0.501  12.594  21.035  0.00  0.00    +0.000 A 
ATOM     32  C   UNL     1       0.434  11.212  21.228  0.00  0.00    +0.000 A 
ATOM     33  C   UNL     1       0.813  10.349  20.187  0.00  0.00    +0.000 A 
ATOM     34  C   UNL     1       1.056   8.981  20.388  0.00  0.00    +0.000 A 
ENDBRANCH  22  25
ENDBRANCH  20  21
ENDBRANCH  19  20
ENDBRANCH  18  19
ENDBRANCH   1  18
TORSDOF 7
ENDMDL
MODEL 6
REMARK VINA RESULT:      -8.1      3.079      7.772
REMARK  Name = 
REMARK  8 active torsions:
REMARK  status: ('A' for Active; 'I' for Inactive)
REMARK    1  A    between atoms: C_1  and  O_2
REMARK    2  A    between atoms: O_2  and  C_3
REMARK    3  A    between atoms: N_12  and  C_13
REMARK    4  A    between atoms: C_13  and  C_14
REMARK    5  A    between atoms: C_14  and  C_15
REMARK    6  A    between atoms: C_15  and  C_16
REMARK    7  A    between atoms: C_16  and  N_17
REMARK    8  A    between atoms: C_18  and  C_20
REMARK                            x       y       z     vdW  Elec       q    Type
REMARK                         _______ _______ _______ _____ _____    ______ ____
ROOT
ATOM      1  C   UNL     1      -2.668  13.468  23.841  0.00  0.00    +0.000 C 
ENDROOT
BRANCH   1  11
ATOM      2  C   UNL     1       1.603  11.612  19.142  0.00  0.00    +0.000 A 
ATOM      3  C   UNL     1       2.187  10.910  18.074  0.00  0.00    +0.000 A 
ATOM      4  C   UNL     1       2.087   9.529  17.992  0.00  0.00    +0.000 A 
ATOM      5  C   UNL     1       1.442   8.834  19.002  0.00  0.00    +0.000 A 
ATOM      6  C   UNL     1       0.854   9.516  20.085  0.00  0.00    +0.000 A 
ATOM      7  C   UNL     1       0.881  10.928  20.174  0.00  0.00    +0.000 A 
ATOM      8  N   UNL     1       0.189  11.565  21.220  0.00  0.00    +0.000 N 
ATOM      9  C   UNL     1      -0.040  13.012  21.166  0.00  0.00    +0.000 C 
ATOM     10  C   UNL     1      -0.781  13.685  22.334  0.00  0.00    +0.000 C 
ATOM     11  N   UNL     1      -1.369  12.904  23.424  0.00  0.00    +0.000 NA
ATOM     12  C   UNL     1      -1.540  11.498  23.043  0.00  0.00    +0.000 C 
ATOM     13  C   UNL     1      -0.312  10.811  22.381  0.00  0.00    +0.000 C 
ATOM     14  C   UNL     1      -0.786   9.414  21.971  0.00  0.00    +0.000 C 
ATOM     15  C   UNL     1       0.254   8.668  21.172  0.00  0.00    +0.000 C 
BRANCH   2  17
ATOM     16  C   UNL     1       1.388  13.825  18.215  0.00  0.00    +0.000 C 
ATOM     17  O   UNL     1       1.796  12.968  19.267  0.00  0.00    +0.000 OA
ENDBRANCH   2  17
ENDBRANCH   1  11
BRANCH   1  18
ATOM     18  C   UNL     1      -3.777  12.412  23.986  0.00  0.00    +0.000 C 
BRANCH  18  19
ATOM     19  C   UNL     1      -5.172  13.033  24.049  0.00  0.00    +0.000 C 
BRANCH  19  20
ATOM     20  C   UNL     1      -5.449  13.969  22.875  0.00  0.00    +0.000 C 
BRANCH  20  21
ATOM     21  N   UNL     1      -4.932  13.424  21.637  0.00  0.00    +0.000 N 
ATOM     22  C   UNL     1      -5.817  12.968  20.667  0.00  0.00    +0.000 C 
ATOM     23  O   UNL     1      -7.033  13.007  20.792  0.00  0.00    +0.000 OA
ATOM     24  H   UNL     1      -3.949  13.459  21.436  0.00  0.00    +0.000 HD
BRANCH  22  25
ATOM     25  C   UNL     1      -5.208  12.489  19.414  0.00  0.00    +0.000 A 
ATOM     26  C   UNL     1      -6.019  12.360  18.301  0.00  0.00    +0.000 A 
ATOM     27  C   UNL     1      -5.455  11.927  17.102  0.00  0.00    +0.000 A 
ATOM     28  C   UNL     1      -4.113  11.502  17.067  0.00  0.00    +0.000 A 
ATOM     29  C   UNL     1      -3.550  11.001  15.900  0.00  0.00    +0.000 A 
ATOM     30  C   UNL     1      -2.567  10.030  15.989  0.00  0.00    +0.000 A 
ATOM     31  C   UNL     1      -1.846   9.920  17.169  0.00  0.00    +0.000 A 
ATOM     32  C   UNL     1      -2.146  10.755  18.248  0.00  0.00    +0.000 A 
ATOM     33  C   UNL     1      -3.354  11.473  18.251  0.00  0.00    +0.000 A 
ATOM     34  C   UNL     1      -3.864  12.091  19.403  0.00  0.00    +0.000 A 
ENDBRANCH  22  25
ENDBRANCH  20  21
ENDBRANCH  19  20
ENDBRANCH  18  19
ENDBRANCH   1  18
TORSDOF 7
ENDMDL
MODEL 7
REMARK VINA RESULT:      -8.1      7.998     11.166
REMARK  Name = 
REMARK  8 active torsions:
REMARK  status: ('A' for Active; 'I' for Inactive)
REMARK    1  A    between atoms: C_1  and  O_2
REMARK    2  A    between atoms: O_2  and  C_3
REMARK    3  A    between atoms: N_12  and  C_13
REMARK    4  A    between atoms: C_13  and  C_14
REMARK    5  A    between atoms: C_14  and  C_15
REMARK    6  A    between atoms: C_15  and  C_16
REMARK    7  A    between atoms: C_16  and  N_17
REMARK    8  A    between atoms: C_18  and  C_20
REMARK                            x       y       z     vdW  Elec       q    Type
REMARK                         _______ _______ _______ _____ _____    ______ ____
ROOT
ATOM      1  C   UNL     1       9.168   9.676  19.724  0.00  0.00    +0.000 C 
ENDROOT
BRANCH   1  11
ATOM      2  C   UNL     1       9.275  16.281  19.384  0.00  0.00    +0.000 A 
ATOM      3  C   UNL     1       9.240  17.591  18.873  0.00  0.00    +0.000 A 
ATOM      4  C   UNL     1       9.851  17.900  17.668  0.00  0.00    +0.000 A 
ATOM      5  C   UNL     1      10.543  16.914  16.985  0.00  0.00    +0.000 A 
ATOM      6  C   UNL     1      10.598  15.595  17.480  0.00  0.00    +0.000 A 
ATOM      7  C   UNL     1       9.936  15.225  18.674  0.00  0.00    +0.000 A 
ATOM      8  N   UNL     1       9.932  13.875  19.070  0.00  0.00    +0.000 N 
ATOM      9  C   UNL     1       9.021  13.428  20.126  0.00  0.00    +0.000 C 
ATOM     10  C   UNL     1       9.054  11.951  20.553  0.00  0.00    +0.000 C 
ATOM     11  N   UNL     1       9.875  10.965  19.848  0.00  0.00    +0.000 NA
ATOM     12  C   UNL     1      10.263  11.446  18.517  0.00  0.00    +0.000 C 
ATOM     13  C   UNL     1      10.833  12.891  18.448  0.00  0.00    +0.000 C 
ATOM     14  C   UNL     1      11.036  13.188  16.960  0.00  0.00    +0.000 C 
ATOM     15  C   UNL     1      11.445  14.620  16.712  0.00  0.00    +0.000 C 
BRANCH   2  17
ATOM     16  C   UNL     1       9.188  16.772  21.740  0.00  0.00    +0.000 C 
ATOM     17  O   UNL     1       8.755  16.009  20.627  0.00  0.00    +0.000 OA
ENDBRANCH   2  17
ENDBRANCH   1  11
BRANCH   1  18
ATOM     18  C   UNL     1       8.546   9.448  18.337  0.00  0.00    +0.000 C 
BRANCH  18  19
ATOM     19  C   UNL     1       8.207   7.980  18.080  0.00  0.00    +0.000 C 
BRANCH  19  20
ATOM     20  C   UNL     1       7.104   7.807  17.039  0.00  0.00    +0.000 C 
BRANCH  20  21
ATOM     21  N   UNL     1       5.934   7.177  17.615  0.00  0.00    +0.000 N 
ATOM     22  C   UNL     1       5.500   5.954  17.116  0.00  0.00    +0.000 C 
ATOM     23  O   UNL     1       6.062   5.358  16.209  0.00  0.00    +0.000 OA
ATOM     24  H   UNL     1       5.491   7.568  18.427  0.00  0.00    +0.000 HD
BRANCH  22  25
ATOM     25  C   UNL     1       4.341   5.354  17.801  0.00  0.00    +0.000 A 
ATOM     26  C   UNL     1       3.129   6.018  17.734  0.00  0.00    +0.000 A 
ATOM     27  C   UNL     1       2.018   5.454  18.359  0.00  0.00    +0.000 A 
ATOM     28  C   UNL     1       2.164   4.302  19.154  0.00  0.00    +0.000 A 
ATOM     29  C   UNL     1       1.084   3.764  19.842  0.00  0.00    +0.000 A 
ATOM     30  C   UNL     1       1.305   3.126  21.052  0.00  0.00    +0.000 A 
ATOM     31  C   UNL     1       2.572   2.628  21.319  0.00  0.00    +0.000 A 
ATOM     32  C   UNL     1       3.600   2.808  20.390  0.00  0.00    +0.000 A 
ATOM     33  C   UNL     1       3.439   3.743  19.355  0.00  0.00    +0.000 A 
ATOM     34  C   UNL     1       4.512   4.196  18.570  0.00  0.00    +0.000 A 
ENDBRANCH  22  25
ENDBRANCH  20  21
ENDBRANCH  19  20
ENDBRANCH  18  19
ENDBRANCH   1  18
TORSDOF 7
ENDMDL
MODEL 8
REMARK VINA RESULT:      -8.0      6.549     10.504
REMARK  Name = 
REMARK  8 active torsions:
REMARK  status: ('A' for Active; 'I' for Inactive)
REMARK    1  A    between atoms: C_1  and  O_2
REMARK    2  A    between atoms: O_2  and  C_3
REMARK    3  A    between atoms: N_12  and  C_13
REMARK    4  A    between atoms: C_13  and  C_14
REMARK    5  A    between atoms: C_14  and  C_15
REMARK    6  A    between atoms: C_15  and  C_16
REMARK    7  A    between atoms: C_16  and  N_17
REMARK    8  A    between atoms: C_18  and  C_20
REMARK                            x       y       z     vdW  Elec       q    Type
REMARK                         _______ _______ _______ _____ _____    ______ ____
ROOT
ATOM      1  C   UNL     1       6.447   5.049  16.554  0.00  0.00    +0.000 C 
ENDROOT
BRANCH   1  11
ATOM      2  C   UNL     1       1.748   8.933  19.124  0.00  0.00    +0.000 A 
ATOM      3  C   UNL     1       0.925   9.593  20.052  0.00  0.00    +0.000 A 
ATOM      4  C   UNL     1       0.473   8.942  21.190  0.00  0.00    +0.000 A 
ATOM      5  C   UNL     1       0.803   7.611  21.387  0.00  0.00    +0.000 A 
ATOM      6  C   UNL     1       1.621   6.926  20.467  0.00  0.00    +0.000 A 
ATOM      7  C   UNL     1       2.152   7.572  19.325  0.00  0.00    +0.000 A 
ATOM      8  N   UNL     1       3.049   6.875  18.495  0.00  0.00    +0.000 N 
ATOM      9  C   UNL     1       3.828   7.604  17.491  0.00  0.00    +0.000 C 
ATOM     10  C   UNL     1       4.784   6.814  16.582  0.00  0.00    +0.000 C 
ATOM     11  N   UNL     1       5.028   5.383  16.782  0.00  0.00    +0.000 NA
ATOM     12  C   UNL     1       4.628   4.955  18.127  0.00  0.00    +0.000 C 
ATOM     13  C   UNL     1       3.224   5.418  18.607  0.00  0.00    +0.000 C 
ATOM     14  C   UNL     1       3.106   4.955  20.061  0.00  0.00    +0.000 C 
ATOM     15  C   UNL     1       1.850   5.463  20.725  0.00  0.00    +0.000 C 
BRANCH   2  17
ATOM     16  C   UNL     1       2.072  10.969  17.878  0.00  0.00    +0.000 C 
ATOM     17  O   UNL     1       2.105   9.554  17.949  0.00  0.00    +0.000 OA
ENDBRANCH   2  17
ENDBRANCH   1  11
BRANCH   1  18
ATOM     18  C   UNL     1       7.410   5.783  17.503  0.00  0.00    +0.000 C 
BRANCH  18  19
ATOM     19  C   UNL     1       7.596   7.253  17.127  0.00  0.00    +0.000 C 
BRANCH  19  20
ATOM     20  C   UNL     1       8.059   8.104  18.307  0.00  0.00    +0.000 C 
BRANCH  20  21
ATOM     21  N   UNL     1       8.552   9.391  17.862  0.00  0.00    +0.000 N 
ATOM     22  C   UNL     1       9.110  10.267  18.787  0.00  0.00    +0.000 C 
ATOM     23  O   UNL     1       9.222  10.009  19.977  0.00  0.00    +0.000 OA
ATOM     24  H   UNL     1       8.579   9.618  16.884  0.00  0.00    +0.000 HD
BRANCH  22  25
ATOM     25  C   UNL     1       9.642  11.527  18.240  0.00  0.00    +0.000 A 
ATOM     26  C   UNL     1      10.987  11.583  17.921  0.00  0.00    +0.000 A 
ATOM     27  C   UNL     1      11.503  12.762  17.384  0.00  0.00    +0.000 A 
ATOM     28  C   UNL     1      10.694  13.910  17.296  0.00  0.00    +0.000 A 
ATOM     29  C   UNL     1      11.207  15.114  16.829  0.00  0.00    +0.000 A 
ATOM     30  C   UNL     1      10.702  16.302  17.331  0.00  0.00    +0.000 A 
ATOM     31  C   UNL     1       9.435  16.300  17.896  0.00  0.00    +0.000 A 
ATOM     32  C   UNL     1       8.714  15.106  17.981  0.00  0.00    +0.000 A 
ATOM     33  C   UNL     1       9.378  13.883  17.791  0.00  0.00    +0.000 A 
ATOM     34  C   UNL     1       8.809  12.650  18.145  0.00  0.00    +0.000 A 
ENDBRANCH  22  25
ENDBRANCH  20  21
ENDBRANCH  19  20
ENDBRANCH  18  19
ENDBRANCH   1  18
TORSDOF 7
ENDMDL
MODEL 9
REMARK VINA RESULT:      -8.0      1.948      3.032
REMARK  Name = 
REMARK  8 active torsions:
REMARK  status: ('A' for Active; 'I' for Inactive)
REMARK    1  A    between atoms: C_1  and  O_2
REMARK    2  A    between atoms: O_2  and  C_3
REMARK    3  A    between atoms: N_12  and  C_13
REMARK    4  A    between atoms: C_13  and  C_14
REMARK    5  A    between atoms: C_14  and  C_15
REMARK    6  A    between atoms: C_15  and  C_16
REMARK    7  A    between atoms: C_16  and  N_17
REMARK    8  A    between atoms: C_18  and  C_20
REMARK                            x       y       z     vdW  Elec       q    Type
REMARK                         _______ _______ _______ _____ _____    ______ ____
ROOT
ATOM      1  C   UNL     1       0.202   9.874  18.335  0.00  0.00    +0.000 C 
ENDROOT
BRANCH   1  11
ATOM      2  C   UNL     1      -4.778  13.472  20.789  0.00  0.00    +0.000 A 
ATOM      3  C   UNL     1      -6.040  13.834  21.290  0.00  0.00    +0.000 A 
ATOM      4  C   UNL     1      -7.200  13.298  20.750  0.00  0.00    +0.000 A 
ATOM      5  C   UNL     1      -7.109  12.431  19.673  0.00  0.00    +0.000 A 
ATOM      6  C   UNL     1      -5.855  12.059  19.149  0.00  0.00    +0.000 A 
ATOM      7  C   UNL     1      -4.647  12.535  19.712  0.00  0.00    +0.000 A 
ATOM      8  N   UNL     1      -3.421  12.051  19.220  0.00  0.00    +0.000 N 
ATOM      9  C   UNL     1      -2.187  12.301  19.970  0.00  0.00    +0.000 C 
ATOM     10  C   UNL     1      -0.858  11.778  19.398  0.00  0.00    +0.000 C 
ATOM     11  N   UNL     1      -0.814  10.936  18.201  0.00  0.00    +0.000 NA
ATOM     12  C   UNL     1      -2.123  10.335  17.922  0.00  0.00    +0.000 C 
ATOM     13  C   UNL     1      -3.343  11.297  17.959  0.00  0.00    +0.000 C 
ATOM     14  C   UNL     1      -4.578  10.413  17.765  0.00  0.00    +0.000 C 
ATOM     15  C   UNL     1      -5.866  11.183  17.928  0.00  0.00    +0.000 C 
BRANCH   2  17
ATOM     16  C   UNL     1      -3.552  14.405  22.641  0.00  0.00    +0.000 C 
ATOM     17  O   UNL     1      -3.642  14.086  21.263  0.00  0.00    +0.000 OA
ENDBRANCH   2  17
ENDBRANCH   1  11
BRANCH   1  18
ATOM     18  C   UNL     1       1.019   9.968  19.635  0.00  0.00    +0.000 C 
BRANCH  18  19
ATOM     19  C   UNL     1       0.384   9.185  20.784  0.00  0.00    +0.000 C 
BRANCH  19  20
ATOM     20  C   UNL     1       1.298   8.085  21.318  0.00  0.00    +0.000 C 
BRANCH  20  21
ATOM     21  N   UNL     1       2.093   7.503  20.257  0.00  0.00    +0.000 N 
ATOM     22  C   UNL     1       2.055   6.130  20.048  0.00  0.00    +0.000 C 
ATOM     23  O   UNL     1       1.370   5.365  20.711  0.00  0.00    +0.000 OA
ATOM     24  H   UNL     1       2.596   8.090  19.615  0.00  0.00    +0.000 HD
BRANCH  22  25
ATOM     25  C   UNL     1       2.845   5.630  18.909  0.00  0.00    +0.000 A 
ATOM     26  C   UNL     1       2.651   4.321  18.504  0.00  0.00    +0.000 A 
ATOM     27  C   UNL     1       3.376   3.839  17.415  0.00  0.00    +0.000 A 
ATOM     28  C   UNL     1       4.382   4.631  16.830  0.00  0.00    +0.000 A 
ATOM     29  C   UNL     1       5.163   4.145  15.790  0.00  0.00    +0.000 A 
ATOM     30  C   UNL     1       6.474   4.577  15.672  0.00  0.00    +0.000 A 
ATOM     31  C   UNL     1       6.831   5.783  16.258  0.00  0.00    +0.000 A 
ATOM     32  C   UNL     1       5.884   6.513  16.978  0.00  0.00    +0.000 A 
ATOM     33  C   UNL     1       4.686   5.894  17.371  0.00  0.00    +0.000 A 
ATOM     34  C   UNL     1       3.826   6.447  18.332  0.00  0.00    +0.000 A 
ENDBRANCH  22  25
ENDBRANCH  20  21
ENDBRANCH  19  20
ENDBRANCH  18  19
ENDBRANCH   1  18
TORSDOF 7
ENDMDL
