MODEL 1
REMARK VINA RESULT:      -6.7      0.000      0.000
REMARK  Name = 
REMARK  10 active torsions:
REMARK  status: ('A' for Active; 'I' for Inactive)
REMARK    1  A    between atoms: C_1  and  C_2
REMARK    2  A    between atoms: C_2  and  C_3
REMARK    3  A    between atoms: N_5  and  C_6
REMARK    4  A    between atoms: N_11  and  C_12
REMARK    5  A    between atoms: C_12  and  C_13
REMARK    6  A    between atoms: C_16  and  O_17
REMARK    7  A    between atoms: O_17  and  C_18
REMARK    8  A    between atoms: C_31  and  C_32
REMARK    9  A    between atoms: C_32  and  O_34
REMARK   10  A    between atoms: O_34  and  C_35
REMARK                            x       y       z     vdW  Elec       q    Type
REMARK                         _______ _______ _______ _____ _____    ______ ____
ROOT
ATOM      1  C   UNL     1      -2.325  15.905  21.742  0.00  0.00    +0.000 C 
ATOM      2  C   UNL     1      -3.451  15.159  22.786  0.00  0.00    +0.000 C 
ATOM      3  N   UNL     1      -3.061  13.937  23.597  0.00  0.00    +0.000 NA
ATOM      4  C   UNL     1      -3.131  13.787  25.049  0.00  0.00    +0.000 C 
ATOM      5  C   UNL     1      -1.797  13.386  23.150  0.00  0.00    +0.000 C 
ATOM      6  C   UNL     1      -2.377  12.528  21.915  0.00  0.00    +0.000 C 
ATOM      7  C   UNL     1      -1.709  12.222  20.598  0.00  0.00    +0.000 A 
ATOM      8  C   UNL     1      -0.397  12.407  20.191  0.00  0.00    +0.000 A 
ATOM      9  N   UNL     1      -0.270  11.697  19.002  0.00  0.00    +0.000 N 
ATOM     10  C   UNL     1      -1.528  11.531  18.425  0.00  0.00    +0.000 A 
ATOM     11  C   UNL     1      -1.946  11.096  17.148  0.00  0.00    +0.000 A 
ATOM     12  C   UNL     1      -3.315  11.165  16.819  0.00  0.00    +0.000 A 
ATOM     13  C   UNL     1      -4.237  11.612  17.749  0.00  0.00    +0.000 A 
ATOM     14  C   UNL     1      -3.824  11.936  19.048  0.00  0.00    +0.000 A 
ATOM     15  C   UNL     1      -2.449  11.914  19.392  0.00  0.00    +0.000 A 
ATOM     16  C   UNL     1       0.605  13.210  20.894  0.00  0.00    +0.000 C 
ATOM     17  O   UNL     1       1.574  12.700  21.446  0.00  0.00    +0.000 OA
ATOM     18  C   UNL     1       0.322  14.792  20.983  0.00  0.00    +0.000 C 
ATOM     19  C   UNL     1      -1.018  15.066  21.714  0.00  0.00    +0.000 C 
ATOM     20  C   UNL     1      -0.836  14.643  23.145  0.00  0.00    +0.000 C 
ENDROOT
BRANCH   1  22
ATOM     21  C   UNL     1      -2.059  17.429  19.736  0.00  0.00    +0.000 C 
ATOM     22  C   UNL     1      -2.824  16.254  20.329  0.00  0.00    +0.000 C 
ENDBRANCH   1  22
BRANCH  20  23
ATOM     23  C   UNL     1      -1.075  15.971  24.149  0.00  0.00    +0.000 C 
ATOM     24  O   UNL     1      -1.557  17.049  23.856  0.00  0.00    +0.000 OA
BRANCH  23  25
ATOM     25  O   UNL     1      -0.555  15.788  25.416  0.00  0.00    +0.000 OA
ATOM     26  C   UNL     1      -1.178  16.630  26.445  0.00  0.00    +0.000 C 
ENDBRANCH  23  25
ENDBRANCH  20  23
BRANCH   9  27
ATOM     27  C   UNL     1       0.973  11.237  18.379  0.00  0.00    +0.000 C 
BRANCH  27  28
ATOM     28  C   UNL     1       1.252   9.811  18.746  0.00  0.00    +0.000 A 
ATOM     29  C   UNL     1       1.042   9.396  20.080  0.00  0.00    +0.000 A 
ATOM     30  C   UNL     1       1.481   8.148  20.489  0.00  0.00    +0.000 A 
ATOM     31  C   UNL     1       2.117   7.281  19.619  0.00  0.00    +0.000 A 
ATOM     32  C   UNL     1       2.252   7.644  18.275  0.00  0.00    +0.000 A 
ATOM     33  C   UNL     1       1.808   8.899  17.843  0.00  0.00    +0.000 A 
BRANCH  31  34
ATOM     34  O   UNL     1       2.619   6.154  20.197  0.00  0.00    +0.000 OA
ATOM     35  C   UNL     1       2.113   4.906  19.762  0.00  0.00    +0.000 C 
ENDBRANCH  31  34
ENDBRANCH  27  28
ENDBRANCH   9  27
TORSDOF 6
ENDMDL
MODEL 2
REMARK VINA RESULT:      -6.6      3.257      5.872
REMARK  Name = 
REMARK  10 active torsions:
REMARK  status: ('A' for Active; 'I' for Inactive)
REMARK    1  A    between atoms: C_1  and  C_2
REMARK    2  A    between atoms: C_2  and  C_3
REMARK    3  A    between atoms: N_5  and  C_6
REMARK    4  A    between atoms: N_11  and  C_12
REMARK    5  A    between atoms: C_12  and  C_13
REMARK    6  A    between atoms: C_16  and  O_17
REMARK    7  A    between atoms: O_17  and  C_18
REMARK    8  A    between atoms: C_31  and  C_32
REMARK    9  A    between atoms: C_32  and  O_34
REMARK   10  A    between atoms: O_34  and  C_35
REMARK                            x       y       z     vdW  Elec       q    Type
REMARK                         _______ _______ _______ _____ _____    ______ ____
ROOT
ATOM      1  C   UNL     1       1.299  16.761  19.157  0.00  0.00    +0.000 C 
ATOM      2  C   UNL     1       2.270  17.307  20.450  0.00  0.00    +0.000 C 
ATOM      3  N   UNL     1       3.345  16.413  21.041  0.00  0.00    +0.000 NA
ATOM      4  C   UNL     1       4.770  16.714  21.163  0.00  0.00    +0.000 C 
ATOM      5  C   UNL     1       3.214  15.048  20.572  0.00  0.00    +0.000 C 
ATOM      6  C   UNL     1       2.083  14.582  21.621  0.00  0.00    +0.000 C 
ATOM      7  C   UNL     1       0.969  13.587  21.411  0.00  0.00    +0.000 A 
ATOM      8  C   UNL     1       0.749  12.690  20.377  0.00  0.00    +0.000 A 
ATOM      9  N   UNL     1      -0.253  11.838  20.829  0.00  0.00    +0.000 N 
ATOM     10  C   UNL     1      -0.982  12.471  21.834  0.00  0.00    +0.000 A 
ATOM     11  C   UNL     1      -2.206  12.164  22.469  0.00  0.00    +0.000 A 
ATOM     12  C   UNL     1      -2.755  13.093  23.375  0.00  0.00    +0.000 A 
ATOM     13  C   UNL     1      -2.083  14.265  23.670  0.00  0.00    +0.000 A 
ATOM     14  C   UNL     1      -0.818  14.507  23.120  0.00  0.00    +0.000 A 
ATOM     15  C   UNL     1      -0.261  13.609  22.174  0.00  0.00    +0.000 A 
ATOM     16  C   UNL     1       1.441  12.694  19.088  0.00  0.00    +0.000 C 
ATOM     17  O   UNL     1       2.225  11.805  18.770  0.00  0.00    +0.000 OA
ATOM     18  C   UNL     1       1.190  13.972  18.142  0.00  0.00    +0.000 C 
ATOM     19  C   UNL     1       1.635  15.274  18.857  0.00  0.00    +0.000 C 
ATOM     20  C   UNL     1       3.130  15.211  19.001  0.00  0.00    +0.000 C 
ENDROOT
BRANCH   1  22
ATOM     21  C   UNL     1      -0.977  15.699  19.481  0.00  0.00    +0.000 C 
ATOM     22  C   UNL     1      -0.215  17.002  19.286  0.00  0.00    +0.000 C 
ENDBRANCH   1  22
BRANCH  20  23
ATOM     23  C   UNL     1       3.820  16.510  18.186  0.00  0.00    +0.000 C 
ATOM     24  O   UNL     1       3.257  17.346  17.504  0.00  0.00    +0.000 OA
BRANCH  23  25
ATOM     25  O   UNL     1       5.199  16.520  18.258  0.00  0.00    +0.000 OA
ATOM     26  C   UNL     1       5.819  15.209  18.027  0.00  0.00    +0.000 C 
ENDBRANCH  23  25
ENDBRANCH  20  23
BRANCH   9  27
ATOM     27  C   UNL     1      -0.575  10.505  20.314  0.00  0.00    +0.000 C 
BRANCH  27  28
ATOM     28  C   UNL     1      -1.444  10.605  19.097  0.00  0.00    +0.000 A 
ATOM     29  C   UNL     1      -1.211   9.723  18.018  0.00  0.00    +0.000 A 
ATOM     30  C   UNL     1      -1.861   9.925  16.813  0.00  0.00    +0.000 A 
ATOM     31  C   UNL     1      -2.750  10.970  16.633  0.00  0.00    +0.000 A 
ATOM     32  C   UNL     1      -3.055  11.797  17.718  0.00  0.00    +0.000 A 
ATOM     33  C   UNL     1      -2.412  11.603  18.947  0.00  0.00    +0.000 A 
BRANCH  31  34
ATOM     34  O   UNL     1      -3.199  11.128  15.357  0.00  0.00    +0.000 OA
ATOM     35  C   UNL     1      -3.008  10.057  14.451  0.00  0.00    +0.000 C 
ENDBRANCH  31  34
ENDBRANCH  27  28
ENDBRANCH   9  27
TORSDOF 6
ENDMDL
MODEL 3
REMARK VINA RESULT:      -6.4      2.474      3.102
REMARK  Name = 
REMARK  10 active torsions:
REMARK  status: ('A' for Active; 'I' for Inactive)
REMARK    1  A    between atoms: C_1  and  C_2
REMARK    2  A    between atoms: C_2  and  C_3
REMARK    3  A    between atoms: N_5  and  C_6
REMARK    4  A    between atoms: N_11  and  C_12
REMARK    5  A    between atoms: C_12  and  C_13
REMARK    6  A    between atoms: C_16  and  O_17
REMARK    7  A    between atoms: O_17  and  C_18
REMARK    8  A    between atoms: C_31  and  C_32
REMARK    9  A    between atoms: C_32  and  O_34
REMARK   10  A    between atoms: O_34  and  C_35
REMARK                            x       y       z     vdW  Elec       q    Type
REMARK                         _______ _______ _______ _____ _____    ______ ____
ROOT
ATOM      1  C   UNL     1      -6.025  15.807  20.469  0.00  0.00    +0.000 C 
ATOM      2  C   UNL     1      -7.191  14.752  21.133  0.00  0.00    +0.000 C 
ATOM      3  N   UNL     1      -6.808  13.755  22.212  0.00  0.00    +0.000 NA
ATOM      4  C   UNL     1      -7.399  13.629  23.543  0.00  0.00    +0.000 C 
ATOM      5  C   UNL     1      -5.369  13.653  22.350  0.00  0.00    +0.000 C 
ATOM      6  C   UNL     1      -5.124  12.617  21.139  0.00  0.00    +0.000 C 
ATOM      7  C   UNL     1      -3.930  12.519  20.223  0.00  0.00    +0.000 A 
ATOM      8  C   UNL     1      -2.686  13.127  20.300  0.00  0.00    +0.000 A 
ATOM      9  N   UNL     1      -1.891  12.469  19.367  0.00  0.00    +0.000 N 
ATOM     10  C   UNL     1      -2.704  11.873  18.404  0.00  0.00    +0.000 A 
ATOM     11  C   UNL     1      -2.430  11.288  17.148  0.00  0.00    +0.000 A 
ATOM     12  C   UNL     1      -3.507  10.882  16.336  0.00  0.00    +0.000 A 
ATOM     13  C   UNL     1      -4.810  11.015  16.782  0.00  0.00    +0.000 A 
ATOM     14  C   UNL     1      -5.064  11.494  18.073  0.00  0.00    +0.000 A 
ATOM     15  C   UNL     1      -4.001  11.947  18.895  0.00  0.00    +0.000 A 
ATOM     16  C   UNL     1      -2.338  14.239  21.184  0.00  0.00    +0.000 C 
ATOM     17  O   UNL     1      -1.563  14.101  22.125  0.00  0.00    +0.000 OA
ATOM     18  C   UNL     1      -3.094  15.634  20.914  0.00  0.00    +0.000 C 
ATOM     19  C   UNL     1      -4.628  15.458  21.053  0.00  0.00    +0.000 C 
ATOM     20  C   UNL     1      -4.911  15.159  22.499  0.00  0.00    +0.000 C 
ENDROOT
BRANCH   1  22
ATOM     21  C   UNL     1      -6.298  17.350  18.480  0.00  0.00    +0.000 C 
ATOM     22  C   UNL     1      -6.002  15.928  18.935  0.00  0.00    +0.000 C 
ENDBRANCH   1  22
BRANCH  20  23
ATOM     23  C   UNL     1      -5.915  16.355  23.124  0.00  0.00    +0.000 C 
ATOM     24  O   UNL     1      -6.516  17.218  22.512  0.00  0.00    +0.000 OA
BRANCH  23  25
ATOM     25  O   UNL     1      -5.943  16.366  24.505  0.00  0.00    +0.000 OA
ATOM     26  C   UNL     1      -5.050  17.359  25.113  0.00  0.00    +0.000 C 
ENDBRANCH  23  25
ENDBRANCH  20  23
BRANCH   9  27
ATOM     27  C   UNL     1      -0.428  12.440  19.321  0.00  0.00    +0.000 C 
BRANCH  27  28
ATOM     28  C   UNL     1       0.078  11.038  19.478  0.00  0.00    +0.000 A 
ATOM     29  C   UNL     1      -0.184  10.350  20.684  0.00  0.00    +0.000 A 
ATOM     30  C   UNL     1       0.440   9.139  20.933  0.00  0.00    +0.000 A 
ATOM     31  C   UNL     1       1.314   8.570  20.023  0.00  0.00    +0.000 A 
ATOM     32  C   UNL     1       1.513   9.198  18.790  0.00  0.00    +0.000 A 
ATOM     33  C   UNL     1       0.886  10.420  18.518  0.00  0.00    +0.000 A 
BRANCH  31  34
ATOM     34  O   UNL     1       1.958   7.456  20.467  0.00  0.00    +0.000 OA
ATOM     35  C   UNL     1       2.544   6.602  19.502  0.00  0.00    +0.000 C 
ENDBRANCH  31  34
ENDBRANCH  27  28
ENDBRANCH   9  27
TORSDOF 6
ENDMDL
MODEL 4
REMARK VINA RESULT:      -6.3      3.460      5.398
REMARK  Name = 
REMARK  10 active torsions:
REMARK  status: ('A' for Active; 'I' for Inactive)
REMARK    1  A    between atoms: C_1  and  C_2
REMARK    2  A    between atoms: C_2  and  C_3
REMARK    3  A    between atoms: N_5  and  C_6
REMARK    4  A    between atoms: N_11  and  C_12
REMARK    5  A    between atoms: C_12  and  C_13
REMARK    6  A    between atoms: C_16  and  O_17
REMARK    7  A    between atoms: O_17  and  C_18
REMARK    8  A    between atoms: C_31  and  C_32
REMARK    9  A    between atoms: C_32  and  O_34
REMARK   10  A    between atoms: O_34  and  C_35
REMARK                            x       y       z     vdW  Elec       q    Type
REMARK                         _______ _______ _______ _____ _____    ______ ____
ROOT
ATOM      1  C   UNL     1       2.848  16.930  19.565  0.00  0.00    +0.000 C 
ATOM      2  C   UNL     1       3.609  16.982  21.092  0.00  0.00    +0.000 C 
ATOM      3  N   UNL     1       4.441  15.810  21.583  0.00  0.00    +0.000 NA
ATOM      4  C   UNL     1       5.841  15.841  22.001  0.00  0.00    +0.000 C 
ATOM      5  C   UNL     1       4.248  14.640  20.750  0.00  0.00    +0.000 C 
ATOM      6  C   UNL     1       2.890  14.120  21.446  0.00  0.00    +0.000 C 
ATOM      7  C   UNL     1       1.731  13.399  20.805  0.00  0.00    +0.000 A 
ATOM      8  C   UNL     1       1.613  12.828  19.547  0.00  0.00    +0.000 A 
ATOM      9  N   UNL     1       0.452  12.062  19.592  0.00  0.00    +0.000 N 
ATOM     10  C   UNL     1      -0.379  12.540  20.603  0.00  0.00    +0.000 A 
ATOM     11  C   UNL     1      -1.729  12.288  20.933  0.00  0.00    +0.000 A 
ATOM     12  C   UNL     1      -2.333  13.043  21.958  0.00  0.00    +0.000 A 
ATOM     13  C   UNL     1      -1.600  13.985  22.658  0.00  0.00    +0.000 A 
ATOM     14  C   UNL     1      -0.234  14.148  22.397  0.00  0.00    +0.000 A 
ATOM     15  C   UNL     1       0.388  13.430  21.344  0.00  0.00    +0.000 A 
ATOM     16  C   UNL     1       2.536  13.034  18.430  0.00  0.00    +0.000 C 
ATOM     17  O   UNL     1       3.260  12.136  18.013  0.00  0.00    +0.000 OA
ATOM     18  C   UNL     1       2.619  14.527  17.835  0.00  0.00    +0.000 C 
ATOM     19  C   UNL     1       3.064  15.527  18.933  0.00  0.00    +0.000 C 
ATOM     20  C   UNL     1       4.486  15.192  19.287  0.00  0.00    +0.000 C 
ENDROOT
BRANCH   1  22
ATOM     21  C   UNL     1       0.472  16.260  19.003  0.00  0.00    +0.000 C 
ATOM     22  C   UNL     1       1.375  17.372  19.516  0.00  0.00    +0.000 C 
ENDBRANCH   1  22
BRANCH  20  23
ATOM     23  C   UNL     1       5.464  16.524  18.969  0.00  0.00    +0.000 C 
ATOM     24  O   UNL     1       5.128  17.605  18.524  0.00  0.00    +0.000 OA
BRANCH  23  25
ATOM     25  O   UNL     1       6.807  16.264  19.163  0.00  0.00    +0.000 OA
ATOM     26  C   UNL     1       7.702  17.221  18.502  0.00  0.00    +0.000 C 
ENDBRANCH  23  25
ENDBRANCH  20  23
BRANCH   9  27
ATOM     27  C   UNL     1       0.086  10.965  18.694  0.00  0.00    +0.000 C 
BRANCH  27  28
ATOM     28  C   UNL     1       0.952   9.768  18.941  0.00  0.00    +0.000 A 
ATOM     29  C   UNL     1       1.624   9.175  17.849  0.00  0.00    +0.000 A 
ATOM     30  C   UNL     1       2.263   7.958  18.014  0.00  0.00    +0.000 A 
ATOM     31  C   UNL     1       2.275   7.302  19.232  0.00  0.00    +0.000 A 
ATOM     32  C   UNL     1       1.690   7.920  20.342  0.00  0.00    +0.000 A 
ATOM     33  C   UNL     1       1.044   9.154  20.195  0.00  0.00    +0.000 A 
BRANCH  31  34
ATOM     34  O   UNL     1       2.816   6.053  19.206  0.00  0.00    +0.000 OA
ATOM     35  C   UNL     1       3.855   5.801  18.278  0.00  0.00    +0.000 C 
ENDBRANCH  31  34
ENDBRANCH  27  28
ENDBRANCH   9  27
TORSDOF 6
ENDMDL
MODEL 5
REMARK VINA RESULT:      -6.2      2.156      2.899
REMARK  Name = 
REMARK  10 active torsions:
REMARK  status: ('A' for Active; 'I' for Inactive)
REMARK    1  A    between atoms: C_1  and  C_2
REMARK    2  A    between atoms: C_2  and  C_3
REMARK    3  A    between atoms: N_5  and  C_6
REMARK    4  A    between atoms: N_11  and  C_12
REMARK    5  A    between atoms: C_12  and  C_13
REMARK    6  A    between atoms: C_16  and  O_17
REMARK    7  A    between atoms: O_17  and  C_18
REMARK    8  A    between atoms: C_31  and  C_32
REMARK    9  A    between atoms: C_32  and  O_34
REMARK   10  A    between atoms: O_34  and  C_35
REMARK                            x       y       z     vdW  Elec       q    Type
REMARK                         _______ _______ _______ _____ _____    ______ ____
ROOT
ATOM      1  C   UNL     1      -5.513  15.769  20.806  0.00  0.00    +0.000 C 
ATOM      2  C   UNL     1      -6.593  14.691  21.571  0.00  0.00    +0.000 C 
ATOM      3  N   UNL     1      -6.088  13.680  22.585  0.00  0.00    +0.000 NA
ATOM      4  C   UNL     1      -6.533  13.525  23.969  0.00  0.00    +0.000 C 
ATOM      5  C   UNL     1      -4.641  13.591  22.567  0.00  0.00    +0.000 C 
ATOM      6  C   UNL     1      -4.518  12.578  21.319  0.00  0.00    +0.000 C 
ATOM      7  C   UNL     1      -3.428  12.509  20.279  0.00  0.00    +0.000 A 
ATOM      8  C   UNL     1      -2.188  13.128  20.234  0.00  0.00    +0.000 A 
ATOM      9  N   UNL     1      -1.492  12.495  19.210  0.00  0.00    +0.000 N 
ATOM     10  C   UNL     1      -2.397  11.907  18.328  0.00  0.00    +0.000 A 
ATOM     11  C   UNL     1      -2.253  11.346  17.040  0.00  0.00    +0.000 A 
ATOM     12  C   UNL     1      -3.407  10.943  16.340  0.00  0.00    +0.000 A 
ATOM     13  C   UNL     1      -4.657  11.054  16.924  0.00  0.00    +0.000 A 
ATOM     14  C   UNL     1      -4.776  11.509  18.244  0.00  0.00    +0.000 A 
ATOM     15  C   UNL     1      -3.635  11.959  18.956  0.00  0.00    +0.000 A 
ATOM     16  C   UNL     1      -1.757  14.229  21.096  0.00  0.00    +0.000 C 
ATOM     17  O   UNL     1      -0.885  14.084  21.946  0.00  0.00    +0.000 OA
ATOM     18  C   UNL     1      -2.550  15.620  20.933  0.00  0.00    +0.000 C 
ATOM     19  C   UNL     1      -4.059  15.425  21.231  0.00  0.00    +0.000 C 
ATOM     20  C   UNL     1      -4.183  15.099  22.693  0.00  0.00    +0.000 C 
ENDROOT
BRANCH   1  22
ATOM     21  C   UNL     1      -5.820  17.373  18.871  0.00  0.00    +0.000 C 
ATOM     22  C   UNL     1      -5.656  15.917  19.281  0.00  0.00    +0.000 C 
ENDBRANCH   1  22
BRANCH  20  23
ATOM     23  C   UNL     1      -5.126  16.273  23.444  0.00  0.00    +0.000 C 
ATOM     24  O   UNL     1      -5.908  16.124  24.364  0.00  0.00    +0.000 OA
BRANCH  23  25
ATOM     25  O   UNL     1      -5.029  17.510  22.836  0.00  0.00    +0.000 OA
ATOM     26  C   UNL     1      -5.863  18.547  23.457  0.00  0.00    +0.000 C 
ENDBRANCH  23  25
ENDBRANCH  20  23
BRANCH   9  27
ATOM     27  C   UNL     1      -0.041  12.483  19.007  0.00  0.00    +0.000 C 
BRANCH  27  28
ATOM     28  C   UNL     1       0.553  11.206  19.521  0.00  0.00    +0.000 A 
ATOM     29  C   UNL     1       1.112  10.294  18.599  0.00  0.00    +0.000 A 
ATOM     30  C   UNL     1       1.482   9.029  19.021  0.00  0.00    +0.000 A 
ATOM     31  C   UNL     1       1.328   8.628  20.337  0.00  0.00    +0.000 A 
ATOM     32  C   UNL     1       0.858   9.551  21.277  0.00  0.00    +0.000 A 
ATOM     33  C   UNL     1       0.486  10.837  20.869  0.00  0.00    +0.000 A 
BRANCH  31  34
ATOM     34  O   UNL     1       1.600   7.315  20.572  0.00  0.00    +0.000 OA
ATOM     35  C   UNL     1       2.448   6.641  19.661  0.00  0.00    +0.000 C 
ENDBRANCH  31  34
ENDBRANCH  27  28
ENDBRANCH   9  27
TORSDOF 6
ENDMDL
MODEL 6
REMARK VINA RESULT:      -6.2      1.232      1.756
REMARK  Name = 
REMARK  10 active torsions:
REMARK  status: ('A' for Active; 'I' for Inactive)
REMARK    1  A    between atoms: C_1  and  C_2
REMARK    2  A    between atoms: C_2  and  C_3
REMARK    3  A    between atoms: N_5  and  C_6
REMARK    4  A    between atoms: N_11  and  C_12
REMARK    5  A    between atoms: C_12  and  C_13
REMARK    6  A    between atoms: C_16  and  O_17
REMARK    7  A    between atoms: O_17  and  C_18
REMARK    8  A    between atoms: C_31  and  C_32
REMARK    9  A    between atoms: C_32  and  O_34
REMARK   10  A    between atoms: O_34  and  C_35
REMARK                            x       y       z     vdW  Elec       q    Type
REMARK                         _______ _______ _______ _____ _____    ______ ____
ROOT
ATOM      1  C   UNL     1      -1.120  16.160  20.824  0.00  0.00    +0.000 C 
ATOM      2  C   UNL     1      -2.221  15.813  22.081  0.00  0.00    +0.000 C 
ATOM      3  N   UNL     1      -1.914  14.733  23.103  0.00  0.00    +0.000 NA
ATOM      4  C   UNL     1      -1.855  14.888  24.555  0.00  0.00    +0.000 C 
ATOM      5  C   UNL     1      -0.785  13.923  22.692  0.00  0.00    +0.000 C 
ATOM      6  C   UNL     1      -1.593  12.932  21.712  0.00  0.00    +0.000 C 
ATOM      7  C   UNL     1      -1.108  12.273  20.445  0.00  0.00    +0.000 A 
ATOM      8  C   UNL     1       0.169  12.177  19.914  0.00  0.00    +0.000 A 
ATOM      9  N   UNL     1       0.081  11.233  18.897  0.00  0.00    +0.000 N 
ATOM     10  C   UNL     1      -1.240  11.144  18.461  0.00  0.00    +0.000 A 
ATOM     11  C   UNL     1      -1.839  10.529  17.339  0.00  0.00    +0.000 A 
ATOM     12  C   UNL     1      -3.213  10.734  17.102  0.00  0.00    +0.000 A 
ATOM     13  C   UNL     1      -3.970  11.489  17.981  0.00  0.00    +0.000 A 
ATOM     14  C   UNL     1      -3.388  12.001  19.148  0.00  0.00    +0.000 A 
ATOM     15  C   UNL     1      -2.000  11.844  19.389  0.00  0.00    +0.000 A 
ATOM     16  C   UNL     1       1.332  12.946  20.357  0.00  0.00    +0.000 C 
ATOM     17  O   UNL     1       2.278  12.419  20.933  0.00  0.00    +0.000 OA
ATOM     18  C   UNL     1       1.269  14.538  20.129  0.00  0.00    +0.000 C 
ATOM     19  C   UNL     1       0.057  15.148  20.881  0.00  0.00    +0.000 C 
ATOM     20  C   UNL     1       0.326  14.997  22.352  0.00  0.00    +0.000 C 
ENDROOT
BRANCH   1  22
ATOM     21  C   UNL     1      -1.063  17.428  18.632  0.00  0.00    +0.000 C 
ATOM     22  C   UNL     1      -1.711  16.290  19.409  0.00  0.00    +0.000 C 
ENDBRANCH   1  22
BRANCH  20  23
ATOM     23  C   UNL     1       0.366  16.519  23.066  0.00  0.00    +0.000 C 
ATOM     24  O   UNL     1      -0.072  16.842  24.155  0.00  0.00    +0.000 OA
BRANCH  23  25
ATOM     25  O   UNL     1       0.879  17.492  22.232  0.00  0.00    +0.000 OA
ATOM     26  C   UNL     1       2.345  17.570  22.236  0.00  0.00    +0.000 C 
ENDBRANCH  23  25
ENDBRANCH  20  23
BRANCH   9  27
ATOM     27  C   UNL     1       1.183  10.479  18.297  0.00  0.00    +0.000 C 
BRANCH  27  28
ATOM     28  C   UNL     1       1.484   9.251  19.102  0.00  0.00    +0.000 A 
ATOM     29  C   UNL     1       2.208   8.199  18.499  0.00  0.00    +0.000 A 
ATOM     30  C   UNL     1       2.323   6.982  19.149  0.00  0.00    +0.000 A 
ATOM     31  C   UNL     1       1.754   6.766  20.391  0.00  0.00    +0.000 A 
ATOM     32  C   UNL     1       1.111   7.825  21.038  0.00  0.00    +0.000 A 
ATOM     33  C   UNL     1       0.991   9.065  20.398  0.00  0.00    +0.000 A 
BRANCH  31  34
ATOM     34  O   UNL     1       1.827   5.482  20.839  0.00  0.00    +0.000 OA
ATOM     35  C   UNL     1       2.462   4.526  20.010  0.00  0.00    +0.000 C 
ENDBRANCH  31  34
ENDBRANCH  27  28
ENDBRANCH   9  27
TORSDOF 6
ENDMDL
MODEL 7
REMARK VINA RESULT:      -6.0      3.062      5.651
REMARK  Name = 
REMARK  10 active torsions:
REMARK  status: ('A' for Active; 'I' for Inactive)
REMARK    1  A    between atoms: C_1  and  C_2
REMARK    2  A    between atoms: C_2  and  C_3
REMARK    3  A    between atoms: N_5  and  C_6
REMARK    4  A    between atoms: N_11  and  C_12
REMARK    5  A    between atoms: C_12  and  C_13
REMARK    6  A    between atoms: C_16  and  O_17
REMARK    7  A    between atoms: O_17  and  C_18
REMARK    8  A    between atoms: C_31  and  C_32
REMARK    9  A    between atoms: C_32  and  O_34
REMARK   10  A    between atoms: O_34  and  C_35
REMARK                            x       y       z     vdW  Elec       q    Type
REMARK                         _______ _______ _______ _____ _____    ______ ____
ROOT
ATOM      1  C   UNL     1       0.683  17.029  19.643  0.00  0.00    +0.000 C 
ATOM      2  C   UNL     1       1.607  17.637  20.943  0.00  0.00    +0.000 C 
ATOM      3  N   UNL     1       2.733  16.813  21.543  0.00  0.00    +0.000 NA
ATOM      4  C   UNL     1       4.135  17.205  21.675  0.00  0.00    +0.000 C 
ATOM      5  C   UNL     1       2.694  15.443  21.073  0.00  0.00    +0.000 C 
ATOM      6  C   UNL     1       1.587  14.905  22.114  0.00  0.00    +0.000 C 
ATOM      7  C   UNL     1       0.540  13.841  21.895  0.00  0.00    +0.000 A 
ATOM      8  C   UNL     1       0.386  12.932  20.860  0.00  0.00    +0.000 A 
ATOM      9  N   UNL     1      -0.562  12.017  21.305  0.00  0.00    +0.000 N 
ATOM     10  C   UNL     1      -1.338  12.602  22.305  0.00  0.00    +0.000 A 
ATOM     11  C   UNL     1      -2.545  12.217  22.930  0.00  0.00    +0.000 A 
ATOM     12  C   UNL     1      -3.159  13.108  23.832  0.00  0.00    +0.000 A 
ATOM     13  C   UNL     1      -2.566  14.322  24.132  0.00  0.00    +0.000 A 
ATOM     14  C   UNL     1      -1.315  14.644  23.590  0.00  0.00    +0.000 A 
ATOM     15  C   UNL     1      -0.694  13.783  22.650  0.00  0.00    +0.000 A 
ATOM     16  C   UNL     1       1.086  12.980  19.576  0.00  0.00    +0.000 C 
ATOM     17  O   UNL     1       1.928  12.144  19.265  0.00  0.00    +0.000 OA
ATOM     18  C   UNL     1       0.761  14.240  18.628  0.00  0.00    +0.000 C 
ATOM     19  C   UNL     1       1.116  15.567  19.346  0.00  0.00    +0.000 C 
ATOM     20  C   UNL     1       2.611  15.600  19.502  0.00  0.00    +0.000 C 
ENDROOT
BRANCH   1  22
ATOM     21  C   UNL     1      -1.514  15.838  20.055  0.00  0.00    +0.000 C 
ATOM     22  C   UNL     1      -0.845  17.173  19.761  0.00  0.00    +0.000 C 
ENDBRANCH   1  22
BRANCH  20  23
ATOM     23  C   UNL     1       3.222  16.942  18.691  0.00  0.00    +0.000 C 
ATOM     24  O   UNL     1       4.306  17.473  18.843  0.00  0.00    +0.000 OA
BRANCH  23  25
ATOM     25  O   UNL     1       2.303  17.520  17.838  0.00  0.00    +0.000 OA
ATOM     26  C   UNL     1       2.614  17.339  16.414  0.00  0.00    +0.000 C 
ENDBRANCH  23  25
ENDBRANCH  20  23
BRANCH   9  27
ATOM     27  C   UNL     1      -0.794  10.667  20.788  0.00  0.00    +0.000 C 
BRANCH  27  28
ATOM     28  C   UNL     1      -1.487  10.721  19.460  0.00  0.00    +0.000 A 
ATOM     29  C   UNL     1      -1.020   9.897  18.413  0.00  0.00    +0.000 A 
ATOM     30  C   UNL     1      -1.508  10.073  17.129  0.00  0.00    +0.000 A 
ATOM     31  C   UNL     1      -2.458  11.036  16.839  0.00  0.00    +0.000 A 
ATOM     32  C   UNL     1      -2.993  11.799  17.882  0.00  0.00    +0.000 A 
ATOM     33  C   UNL     1      -2.516  11.629  19.187  0.00  0.00    +0.000 A 
BRANCH  31  34
ATOM     34  O   UNL     1      -2.734  11.188  15.515  0.00  0.00    +0.000 OA
ATOM     35  C   UNL     1      -3.364  10.114  14.842  0.00  0.00    +0.000 C 
ENDBRANCH  31  34
ENDBRANCH  27  28
ENDBRANCH   9  27
TORSDOF 6
ENDMDL
MODEL 8
REMARK VINA RESULT:      -6.0      3.245      6.175
REMARK  Name = 
REMARK  10 active torsions:
REMARK  status: ('A' for Active; 'I' for Inactive)
REMARK    1  A    between atoms: C_1  and  C_2
REMARK    2  A    between atoms: C_2  and  C_3
REMARK    3  A    between atoms: N_5  and  C_6
REMARK    4  A    between atoms: N_11  and  C_12
REMARK    5  A    between atoms: C_12  and  C_13
REMARK    6  A    between atoms: C_16  and  O_17
REMARK    7  A    between atoms: O_17  and  C_18
REMARK    8  A    between atoms: C_31  and  C_32
REMARK    9  A    between atoms: C_32  and  O_34
REMARK   10  A    between atoms: O_34  and  C_35
REMARK                            x       y       z     vdW  Elec       q    Type
REMARK                         _______ _______ _______ _____ _____    ______ ____
ROOT
ATOM      1  C   UNL     1       1.314  17.424  19.217  0.00  0.00    +0.000 C 
ATOM      2  C   UNL     1       2.335  18.287  20.278  0.00  0.00    +0.000 C 
ATOM      3  N   UNL     1       3.378  17.562  21.109  0.00  0.00    +0.000 NA
ATOM      4  C   UNL     1       4.818  17.814  21.127  0.00  0.00    +0.000 C 
ATOM      5  C   UNL     1       3.175  16.128  21.078  0.00  0.00    +0.000 C 
ATOM      6  C   UNL     1       2.043  16.060  22.224  0.00  0.00    +0.000 C 
ATOM      7  C   UNL     1       0.880  15.106  22.331  0.00  0.00    +0.000 A 
ATOM      8  C   UNL     1       0.598  13.950  21.620  0.00  0.00    +0.000 A 
ATOM      9  N   UNL     1      -0.433  13.327  22.315  0.00  0.00    +0.000 N 
ATOM     10  C   UNL     1      -1.112  14.272  23.082  0.00  0.00    +0.000 A 
ATOM     11  C   UNL     1      -2.337  14.234  23.785  0.00  0.00    +0.000 A 
ATOM     12  C   UNL     1      -2.825  15.420  24.368  0.00  0.00    +0.000 A 
ATOM     13  C   UNL     1      -2.093  16.592  24.289  0.00  0.00    +0.000 A 
ATOM     14  C   UNL     1      -0.829  16.591  23.686  0.00  0.00    +0.000 A 
ATOM     15  C   UNL     1      -0.333  15.421  23.057  0.00  0.00    +0.000 A 
ATOM     16  C   UNL     1       1.265  13.527  20.388  0.00  0.00    +0.000 C 
ATOM     17  O   UNL     1       2.000  12.546  20.353  0.00  0.00    +0.000 OA
ATOM     18  C   UNL     1       1.055  14.468  19.099  0.00  0.00    +0.000 C 
ATOM     19  C   UNL     1       1.575  15.901  19.382  0.00  0.00    +0.000 C 
ATOM     20  C   UNL     1       3.068  15.810  19.532  0.00  0.00    +0.000 C 
ENDROOT
BRANCH   1  22
ATOM     21  C   UNL     1      -0.788  17.875  17.879  0.00  0.00    +0.000 C 
ATOM     22  C   UNL     1      -0.184  17.769  19.272  0.00  0.00    +0.000 C 
ENDBRANCH   1  22
BRANCH  20  23
ATOM     23  C   UNL     1       3.802  16.764  18.358  0.00  0.00    +0.000 C 
ATOM     24  O   UNL     1       3.271  17.337  17.425  0.00  0.00    +0.000 OA
BRANCH  23  25
ATOM     25  O   UNL     1       5.179  16.780  18.461  0.00  0.00    +0.000 OA
ATOM     26  C   UNL     1       5.800  15.452  18.384  0.00  0.00    +0.000 C 
ENDBRANCH  23  25
ENDBRANCH  20  23
BRANCH   9  27
ATOM     27  C   UNL     1      -0.827  11.919  22.231  0.00  0.00    +0.000 C 
BRANCH  27  28
ATOM     28  C   UNL     1      -1.487  11.632  20.916  0.00  0.00    +0.000 A 
ATOM     29  C   UNL     1      -0.894  10.690  20.046  0.00  0.00    +0.000 A 
ATOM     30  C   UNL     1      -1.368  10.556  18.752  0.00  0.00    +0.000 A 
ATOM     31  C   UNL     1      -2.423  11.318  18.282  0.00  0.00    +0.000 A 
ATOM     32  C   UNL     1      -3.074  12.190  19.159  0.00  0.00    +0.000 A 
ATOM     33  C   UNL     1      -2.613  12.333  20.473  0.00  0.00    +0.000 A 
BRANCH  31  34
ATOM     34  O   UNL     1      -2.682  11.180  16.953  0.00  0.00    +0.000 OA
ATOM     35  C   UNL     1      -2.298   9.970  16.325  0.00  0.00    +0.000 C 
ENDBRANCH  31  34
ENDBRANCH  27  28
ENDBRANCH   9  27
TORSDOF 6
ENDMDL
MODEL 9
REMARK VINA RESULT:      -5.9      2.967      4.517
REMARK  Name = 
REMARK  10 active torsions:
REMARK  status: ('A' for Active; 'I' for Inactive)
REMARK    1  A    between atoms: C_1  and  C_2
REMARK    2  A    between atoms: C_2  and  C_3
REMARK    3  A    between atoms: N_5  and  C_6
REMARK    4  A    between atoms: N_11  and  C_12
REMARK    5  A    between atoms: C_12  and  C_13
REMARK    6  A    between atoms: C_16  and  O_17
REMARK    7  A    between atoms: O_17  and  C_18
REMARK    8  A    between atoms: C_31  and  C_32
REMARK    9  A    between atoms: C_32  and  O_34
REMARK   10  A    between atoms: O_34  and  C_35
REMARK                            x       y       z     vdW  Elec       q    Type
REMARK                         _______ _______ _______ _____ _____    ______ ____
ROOT
ATOM      1  C   UNL     1       1.966  16.904  19.418  0.00  0.00    +0.000 C 
ATOM      2  C   UNL     1       2.277  17.108  21.084  0.00  0.00    +0.000 C 
ATOM      3  N   UNL     1       2.975  16.020  21.880  0.00  0.00    +0.000 NA
ATOM      4  C   UNL     1       4.205  16.153  22.658  0.00  0.00    +0.000 C 
ATOM      5  C   UNL     1       3.051  14.782  21.130  0.00  0.00    +0.000 C 
ATOM      6  C   UNL     1       1.569  14.248  21.473  0.00  0.00    +0.000 C 
ATOM      7  C   UNL     1       0.652  13.423  20.606  0.00  0.00    +0.000 A 
ATOM      8  C   UNL     1       0.899  12.754  19.417  0.00  0.00    +0.000 A 
ATOM      9  N   UNL     1      -0.207  11.936  19.212  0.00  0.00    +0.000 N 
ATOM     10  C   UNL     1      -1.297  12.446  19.915  0.00  0.00    +0.000 A 
ATOM     11  C   UNL     1      -2.678  12.151  19.886  0.00  0.00    +0.000 A 
ATOM     12  C   UNL     1      -3.561  12.950  20.640  0.00  0.00    +0.000 A 
ATOM     13  C   UNL     1      -3.076  13.978  21.429  0.00  0.00    +0.000 A 
ATOM     14  C   UNL     1      -1.695  14.189  21.536  0.00  0.00    +0.000 A 
ATOM     15  C   UNL     1      -0.788  13.427  20.757  0.00  0.00    +0.000 A 
ATOM     16  C   UNL     1       2.087  12.923  18.580  0.00  0.00    +0.000 C 
ATOM     17  O   UNL     1       2.923  12.034  18.453  0.00  0.00    +0.000 OA
ATOM     18  C   UNL     1       2.288  14.369  17.903  0.00  0.00    +0.000 C 
ATOM     19  C   UNL     1       2.387  15.470  18.991  0.00  0.00    +0.000 C 
ATOM     20  C   UNL     1       3.666  15.235  19.744  0.00  0.00    +0.000 C 
ENDROOT
BRANCH   1  22
ATOM     21  C   UNL     1      -0.251  16.026  18.565  0.00  0.00    +0.000 C 
ATOM     22  C   UNL     1       0.551  17.266  18.933  0.00  0.00    +0.000 C 
ENDBRANCH   1  22
BRANCH  20  23
ATOM     23  C   UNL     1       4.656  16.586  19.590  0.00  0.00    +0.000 C 
ATOM     24  O   UNL     1       4.535  17.513  18.810  0.00  0.00    +0.000 OA
BRANCH  23  25
ATOM     25  O   UNL     1       5.771  16.532  20.403  0.00  0.00    +0.000 OA
ATOM     26  C   UNL     1       6.525  17.790  20.467  0.00  0.00    +0.000 C 
ENDBRANCH  23  25
ENDBRANCH  20  23
BRANCH   9  27
ATOM     27  C   UNL     1      -0.282  10.758  18.346  0.00  0.00    +0.000 C 
BRANCH  27  28
ATOM     28  C   UNL     1       0.670   9.699  18.811  0.00  0.00    +0.000 A 
ATOM     29  C   UNL     1       1.468   9.031  17.855  0.00  0.00    +0.000 A 
ATOM     30  C   UNL     1       2.203   7.919  18.229  0.00  0.00    +0.000 A 
ATOM     31  C   UNL     1       2.187   7.441  19.528  0.00  0.00    +0.000 A 
ATOM     32  C   UNL     1       1.471   8.143  20.502  0.00  0.00    +0.000 A 
ATOM     33  C   UNL     1       0.728   9.274  20.143  0.00  0.00    +0.000 A 
BRANCH  31  34
ATOM     34  O   UNL     1       2.840   6.260  19.712  0.00  0.00    +0.000 OA
ATOM     35  C   UNL     1       2.128   5.197  20.316  0.00  0.00    +0.000 C 
ENDBRANCH  31  34
ENDBRANCH  27  28
ENDBRANCH   9  27
TORSDOF 6
ENDMDL
