MODEL 1
REMARK VINA RESULT:      -8.5      0.000      0.000
REMARK  Name = 
REMARK  7 active torsions:
REMARK  status: ('A' for Active; 'I' for Inactive)
REMARK    1  A    between atoms: C_1  and  S_2
REMARK    2  A    between atoms: S_2  and  C_5
REMARK    3  A    between atoms: C_8  and  C_9
REMARK    4  A    between atoms: C_9  and  C_10
REMARK    5  A    between atoms: C_9  and  C_17
REMARK    6  A    between atoms: C_10  and  C_11
REMARK    7  A    between atoms: C_14  and  O_15
REMARK                            x       y       z     vdW  Elec       q    Type
REMARK                         _______ _______ _______ _____ _____    ______ ____
ROOT
ATOM      1  C   UNL     1       2.878   6.378  18.815  0.00  0.00    +0.000 C 
ENDROOT
BRANCH   1   2
ATOM      2  C   UNL     1       3.932   6.255  17.696  0.00  0.00    +0.000 C 
ATOM      3  O   UNL     1       4.349   7.227  17.069  0.00  0.00    +0.000 OA
ATOM      4  N   UNL     1       4.353   4.977  17.368  0.00  0.00    +0.000 N 
ATOM      5  C   UNL     1       5.349   4.866  16.376  0.00  0.00    +0.000 A 
ATOM      6  C   UNL     1       6.548   5.584  16.460  0.00  0.00    +0.000 A 
ATOM      7  N   UNL     1       7.468   5.619  15.466  0.00  0.00    +0.000 NA
ATOM      8  C   UNL     1       7.119   4.937  14.356  0.00  0.00    +0.000 A 
ATOM      9  C   UNL     1       5.945   4.202  14.278  0.00  0.00    +0.000 A 
ATOM     10  N   UNL     1       5.053   4.110  15.299  0.00  0.00    +0.000 NA
ATOM     11  H   UNL     1       3.631   4.273  17.287  0.00  0.00    +0.000 HD
ENDBRANCH   1   2
BRANCH   1  15
ATOM     12  C   UNL     1       1.112  10.369  19.162  0.00  0.00    +0.000 A 
ATOM     13  C   UNL     1       1.609   9.907  17.934  0.00  0.00    +0.000 A 
ATOM     14  C   UNL     1       2.138   8.612  17.821  0.00  0.00    +0.000 A 
ATOM     15  C   UNL     1       2.201   7.757  18.934  0.00  0.00    +0.000 A 
ATOM     16  C   UNL     1       1.615   8.226  20.122  0.00  0.00    +0.000 A 
ATOM     17  C   UNL     1       1.072   9.510  20.250  0.00  0.00    +0.000 A 
ATOM     18 CL   UNL     1       0.391   9.895  21.789  0.00  0.00    +0.000 Cl
BRANCH  12  20
ATOM     19  C   UNL     1       1.477  12.705  20.690  0.00  0.00    +0.000 C 
ATOM     20  S   UNL     1       0.578  12.053  19.300  0.00  0.00    +0.000 S 
ATOM     21  O   UNL     1      -0.840  12.049  19.591  0.00  0.00    +0.000 OA
ATOM     22  O   UNL     1       1.076  12.750  18.125  0.00  0.00    +0.000 OA
ENDBRANCH  12  20
ENDBRANCH   1  15
BRANCH   1  23
ATOM     23  C   UNL     1       1.861   5.200  18.761  0.00  0.00    +0.000 C 
BRANCH  23  24
ATOM     24  C   UNL     1       1.586   4.450  20.083  0.00  0.00    +0.000 C 
ATOM     25  C   UNL     1       2.855   4.301  20.952  0.00  0.00    +0.000 C 
ATOM     26  C   UNL     1       2.986   2.814  21.289  0.00  0.00    +0.000 C 
ATOM     27  C   UNL     1       1.587   2.252  21.113  0.00  0.00    +0.000 C 
ATOM     28  C   UNL     1       1.060   3.019  19.910  0.00  0.00    +0.000 C 
BRANCH  27  29
ATOM     29  O   UNL     1       0.794   2.500  22.267  0.00  0.00    +0.000 OA
ATOM     30  H   UNL     1       0.910   3.425  22.535  0.00  0.00    +0.000 HD
ENDBRANCH  27  29
ENDBRANCH  23  24
ENDBRANCH   1  23
TORSDOF 6
ENDMDL
MODEL 2
REMARK VINA RESULT:      -8.4      1.047      1.294
REMARK  Name = 
REMARK  7 active torsions:
REMARK  status: ('A' for Active; 'I' for Inactive)
REMARK    1  A    between atoms: C_1  and  S_2
REMARK    2  A    between atoms: S_2  and  C_5
REMARK    3  A    between atoms: C_8  and  C_9
REMARK    4  A    between atoms: C_9  and  C_10
REMARK    5  A    between atoms: C_9  and  C_17
REMARK    6  A    between atoms: C_10  and  C_11
REMARK    7  A    between atoms: C_14  and  O_15
REMARK                            x       y       z     vdW  Elec       q    Type
REMARK                         _______ _______ _______ _____ _____    ______ ____
ROOT
ATOM      1  C   UNL     1       2.973   5.829  18.408  0.00  0.00    +0.000 C 
ENDROOT
BRANCH   1   2
ATOM      2  C   UNL     1       4.050   5.864  17.305  0.00  0.00    +0.000 C 
ATOM      3  O   UNL     1       4.435   6.911  16.787  0.00  0.00    +0.000 OA
ATOM      4  N   UNL     1       4.531   4.644  16.859  0.00  0.00    +0.000 N 
ATOM      5  C   UNL     1       5.548   4.676  15.882  0.00  0.00    +0.000 A 
ATOM      6  C   UNL     1       6.713   5.431  16.063  0.00  0.00    +0.000 A 
ATOM      7  N   UNL     1       7.647   5.604  15.097  0.00  0.00    +0.000 NA
ATOM      8  C   UNL     1       7.347   5.024  13.917  0.00  0.00    +0.000 A 
ATOM      9  C   UNL     1       6.207   4.252  13.741  0.00  0.00    +0.000 A 
ATOM     10  N   UNL     1       5.303   4.021  14.729  0.00  0.00    +0.000 NA
ATOM     11  H   UNL     1       3.842   3.923  16.693  0.00  0.00    +0.000 HD
ENDBRANCH   1   2
BRANCH   1  15
ATOM     12  C   UNL     1       1.313   9.766  19.365  0.00  0.00    +0.000 A 
ATOM     13  C   UNL     1       1.628   9.420  18.042  0.00  0.00    +0.000 A 
ATOM     14  C   UNL     1       2.122   8.144  17.737  0.00  0.00    +0.000 A 
ATOM     15  C   UNL     1       2.333   7.190  18.747  0.00  0.00    +0.000 A 
ATOM     16  C   UNL     1       1.926   7.546  20.044  0.00  0.00    +0.000 A 
ATOM     17  C   UNL     1       1.419   8.810  20.364  0.00  0.00    +0.000 A 
ATOM     18 CL   UNL     1       0.965   9.050  22.013  0.00  0.00    +0.000 Cl
BRANCH  12  20
ATOM     19  C   UNL     1      -0.936  11.336  19.999  0.00  0.00    +0.000 C 
ATOM     20  S   UNL     1       0.820  11.428  19.731  0.00  0.00    +0.000 S 
ATOM     21  O   UNL     1       1.096  12.242  18.565  0.00  0.00    +0.000 OA
ATOM     22  O   UNL     1       1.414  11.771  21.012  0.00  0.00    +0.000 OA
ENDBRANCH  12  20
ENDBRANCH   1  15
BRANCH   1  23
ATOM     23  C   UNL     1       1.925   4.712  18.135  0.00  0.00    +0.000 C 
BRANCH  23  24
ATOM     24  C   UNL     1       1.740   3.640  19.232  0.00  0.00    +0.000 C 
ATOM     25  C   UNL     1       1.020   4.194  20.482  0.00  0.00    +0.000 C 
ATOM     26  C   UNL     1       1.900   3.852  21.686  0.00  0.00    +0.000 C 
ATOM     27  C   UNL     1       2.759   2.690  21.219  0.00  0.00    +0.000 C 
ATOM     28  C   UNL     1       3.046   3.039  19.767  0.00  0.00    +0.000 C 
BRANCH  27  29
ATOM     29  O   UNL     1       2.048   1.463  21.322  0.00  0.00    +0.000 OA
ATOM     30  H   UNL     1       2.183   1.095  22.210  0.00  0.00    +0.000 HD
ENDBRANCH  27  29
ENDBRANCH  23  24
ENDBRANCH   1  23
TORSDOF 6
ENDMDL
MODEL 3
REMARK VINA RESULT:      -8.3      3.834      7.041
REMARK  Name = 
REMARK  7 active torsions:
REMARK  status: ('A' for Active; 'I' for Inactive)
REMARK    1  A    between atoms: C_1  and  S_2
REMARK    2  A    between atoms: S_2  and  C_5
REMARK    3  A    between atoms: C_8  and  C_9
REMARK    4  A    between atoms: C_9  and  C_10
REMARK    5  A    between atoms: C_9  and  C_17
REMARK    6  A    between atoms: C_10  and  C_11
REMARK    7  A    between atoms: C_14  and  O_15
REMARK                            x       y       z     vdW  Elec       q    Type
REMARK                         _______ _______ _______ _____ _____    ______ ____
ROOT
ATOM      1  C   UNL     1       2.275   6.805  18.928  0.00  0.00    +0.000 C 
ENDROOT
BRANCH   1   2
ATOM      2  C   UNL     1       1.771   8.244  18.703  0.00  0.00    +0.000 C 
ATOM      3  O   UNL     1       1.878   8.822  17.623  0.00  0.00    +0.000 OA
ATOM      4  N   UNL     1       1.244   8.904  19.801  0.00  0.00    +0.000 N 
ATOM      5  C   UNL     1       0.742  10.205  19.585  0.00  0.00    +0.000 A 
ATOM      6  C   UNL     1      -0.191  10.471  18.576  0.00  0.00    +0.000 A 
ATOM      7  N   UNL     1      -0.591  11.721  18.242  0.00  0.00    +0.000 NA
ATOM      8  C   UNL     1       0.016  12.707  18.933  0.00  0.00    +0.000 A 
ATOM      9  C   UNL     1       0.921  12.447  19.953  0.00  0.00    +0.000 A 
ATOM     10  N   UNL     1       1.273  11.192  20.335  0.00  0.00    +0.000 NA
ATOM     11  H   UNL     1       1.757   8.813  20.668  0.00  0.00    +0.000 HD
ENDBRANCH   1   2
BRANCH   1  15
ATOM     12  C   UNL     1       5.700   5.473  16.549  0.00  0.00    +0.000 A 
ATOM     13  C   UNL     1       4.477   4.787  16.495  0.00  0.00    +0.000 A 
ATOM     14  C   UNL     1       3.372   5.242  17.230  0.00  0.00    +0.000 A 
ATOM     15  C   UNL     1       3.467   6.379  18.050  0.00  0.00    +0.000 A 
ATOM     16  C   UNL     1       4.683   7.085  18.008  0.00  0.00    +0.000 A 
ATOM     17  C   UNL     1       5.791   6.652  17.272  0.00  0.00    +0.000 A 
ATOM     18 CL   UNL     1       7.189   7.663  17.342  0.00  0.00    +0.000 Cl
BRANCH  12  20
ATOM     19  C   UNL     1       6.441   3.568  14.612  0.00  0.00    +0.000 C 
ATOM     20  S   UNL     1       7.109   4.793  15.717  0.00  0.00    +0.000 S 
ATOM     21  O   UNL     1       7.948   4.153  16.709  0.00  0.00    +0.000 OA
ATOM     22  O   UNL     1       7.654   5.848  14.878  0.00  0.00    +0.000 OA
ENDBRANCH  12  20
ENDBRANCH   1  15
BRANCH   1  23
ATOM     23  C   UNL     1       2.498   6.518  20.442  0.00  0.00    +0.000 C 
BRANCH  23  24
ATOM     24  C   UNL     1       2.139   5.103  20.948  0.00  0.00    +0.000 C 
ATOM     25  C   UNL     1       3.252   4.071  20.654  0.00  0.00    +0.000 C 
ATOM     26  C   UNL     1       2.587   2.902  19.925  0.00  0.00    +0.000 C 
ATOM     27  C   UNL     1       1.117   3.001  20.294  0.00  0.00    +0.000 C 
ATOM     28  C   UNL     1       0.873   4.501  20.323  0.00  0.00    +0.000 C 
BRANCH  27  29
ATOM     29  O   UNL     1       0.875   2.416  21.567  0.00  0.00    +0.000 OA
ATOM     30  H   UNL     1       0.374   1.593  21.444  0.00  0.00    +0.000 HD
ENDBRANCH  27  29
ENDBRANCH  23  24
ENDBRANCH   1  23
TORSDOF 6
ENDMDL
MODEL 4
REMARK VINA RESULT:      -8.3      1.300      1.633
REMARK  Name = 
REMARK  7 active torsions:
REMARK  status: ('A' for Active; 'I' for Inactive)
REMARK    1  A    between atoms: C_1  and  S_2
REMARK    2  A    between atoms: S_2  and  C_5
REMARK    3  A    between atoms: C_8  and  C_9
REMARK    4  A    between atoms: C_9  and  C_10
REMARK    5  A    between atoms: C_9  and  C_17
REMARK    6  A    between atoms: C_10  and  C_11
REMARK    7  A    between atoms: C_14  and  O_15
REMARK                            x       y       z     vdW  Elec       q    Type
REMARK                         _______ _______ _______ _____ _____    ______ ____
ROOT
ATOM      1  C   UNL     1       3.494   5.422  18.079  0.00  0.00    +0.000 C 
ENDROOT
BRANCH   1   2
ATOM      2  C   UNL     1       4.484   5.532  16.901  0.00  0.00    +0.000 C 
ATOM      3  O   UNL     1       4.826   6.612  16.423  0.00  0.00    +0.000 OA
ATOM      4  N   UNL     1       4.930   4.346  16.343  0.00  0.00    +0.000 N 
ATOM      5  C   UNL     1       5.869   4.446  15.295  0.00  0.00    +0.000 A 
ATOM      6  C   UNL     1       7.044   5.194  15.435  0.00  0.00    +0.000 A 
ATOM      7  N   UNL     1       7.901   5.434  14.413  0.00  0.00    +0.000 NA
ATOM      8  C   UNL     1       7.512   4.928  13.225  0.00  0.00    +0.000 A 
ATOM      9  C   UNL     1       6.362   4.162  13.088  0.00  0.00    +0.000 A 
ATOM     10  N   UNL     1       5.537   3.864  14.125  0.00  0.00    +0.000 NA
ATOM     11  H   UNL     1       4.231   3.633  16.185  0.00  0.00    +0.000 HD
ENDBRANCH   1   2
BRANCH   1  15
ATOM     12  C   UNL     1       1.515   9.194  19.092  0.00  0.00    +0.000 A 
ATOM     13  C   UNL     1       1.921   8.925  17.776  0.00  0.00    +0.000 A 
ATOM     14  C   UNL     1       2.518   7.698  17.450  0.00  0.00    +0.000 A 
ATOM     15  C   UNL     1       2.744   6.721  18.433  0.00  0.00    +0.000 A 
ATOM     16  C   UNL     1       2.247   6.995  19.720  0.00  0.00    +0.000 A 
ATOM     17  C   UNL     1       1.637   8.208  20.059  0.00  0.00    +0.000 A 
ATOM     18 CL   UNL     1       1.084   8.348  21.689  0.00  0.00    +0.000 Cl
BRANCH  12  20
ATOM     19  C   UNL     1       1.807  11.920  18.455  0.00  0.00    +0.000 C 
ATOM     20  S   UNL     1       0.890  10.802  19.492  0.00  0.00    +0.000 S 
ATOM     21  O   UNL     1       1.191  11.066  20.883  0.00  0.00    +0.000 OA
ATOM     22  O   UNL     1      -0.487  10.847  19.027  0.00  0.00    +0.000 OA
ENDBRANCH  12  20
ENDBRANCH   1  15
BRANCH   1  23
ATOM     23  C   UNL     1       2.548   4.198  17.905  0.00  0.00    +0.000 C 
BRANCH  23  24
ATOM     24  C   UNL     1       2.306   3.316  19.151  0.00  0.00    +0.000 C 
ATOM     25  C   UNL     1       0.885   3.492  19.731  0.00  0.00    +0.000 C 
ATOM     26  C   UNL     1       1.052   3.817  21.217  0.00  0.00    +0.000 C 
ATOM     27  C   UNL     1       2.431   3.292  21.575  0.00  0.00    +0.000 C 
ATOM     28  C   UNL     1       3.247   3.600  20.329  0.00  0.00    +0.000 C 
BRANCH  27  29
ATOM     29  O   UNL     1       2.389   1.894  21.828  0.00  0.00    +0.000 OA
ATOM     30  H   UNL     1       3.159   1.475  21.409  0.00  0.00    +0.000 HD
ENDBRANCH  27  29
ENDBRANCH  23  24
ENDBRANCH   1  23
TORSDOF 6
ENDMDL
MODEL 5
REMARK VINA RESULT:      -8.2      4.085      7.154
REMARK  Name = 
REMARK  7 active torsions:
REMARK  status: ('A' for Active; 'I' for Inactive)
REMARK    1  A    between atoms: C_1  and  S_2
REMARK    2  A    between atoms: S_2  and  C_5
REMARK    3  A    between atoms: C_8  and  C_9
REMARK    4  A    between atoms: C_9  and  C_10
REMARK    5  A    between atoms: C_9  and  C_17
REMARK    6  A    between atoms: C_10  and  C_11
REMARK    7  A    between atoms: C_14  and  O_15
REMARK                            x       y       z     vdW  Elec       q    Type
REMARK                         _______ _______ _______ _____ _____    ______ ____
ROOT
ATOM      1  C   UNL     1       1.964   6.093  19.718  0.00  0.00    +0.000 C 
ENDROOT
BRANCH   1   2
ATOM      2  C   UNL     1       1.540   7.489  20.217  0.00  0.00    +0.000 C 
ATOM      3  O   UNL     1       2.215   8.497  20.016  0.00  0.00    +0.000 OA
ATOM      4  N   UNL     1       0.383   7.560  20.975  0.00  0.00    +0.000 N 
ATOM      5  C   UNL     1      -0.028   8.842  21.394  0.00  0.00    +0.000 A 
ATOM      6  C   UNL     1      -0.178   9.896  20.485  0.00  0.00    +0.000 A 
ATOM      7  N   UNL     1      -0.433  11.173  20.859  0.00  0.00    +0.000 NA
ATOM      8  C   UNL     1      -0.489  11.366  22.192  0.00  0.00    +0.000 A 
ATOM      9  C   UNL     1      -0.369  10.320  23.097  0.00  0.00    +0.000 A 
ATOM     10  N   UNL     1      -0.181   9.027  22.721  0.00  0.00    +0.000 NA
ATOM     11  H   UNL     1       0.269   6.852  21.688  0.00  0.00    +0.000 HD
ENDBRANCH   1   2
BRANCH   1  15
ATOM     12  C   UNL     1       5.701   5.801  17.455  0.00  0.00    +0.000 A 
ATOM     13  C   UNL     1       4.493   6.111  16.812  0.00  0.00    +0.000 A 
ATOM     14  C   UNL     1       3.306   6.243  17.548  0.00  0.00    +0.000 A 
ATOM     15  C   UNL     1       3.294   6.047  18.940  0.00  0.00    +0.000 A 
ATOM     16  C   UNL     1       4.538   5.822  19.555  0.00  0.00    +0.000 A 
ATOM     17  C   UNL     1       5.733   5.701  18.837  0.00  0.00    +0.000 A 
ATOM     18 CL   UNL     1       7.157   5.435  19.777  0.00  0.00    +0.000 Cl
BRANCH  12  20
ATOM     19  C   UNL     1       6.536   5.113  14.856  0.00  0.00    +0.000 C 
ATOM     20  S   UNL     1       7.150   5.511  16.478  0.00  0.00    +0.000 S 
ATOM     21  O   UNL     1       7.842   4.367  17.034  0.00  0.00    +0.000 OA
ATOM     22  O   UNL     1       7.838   6.785  16.355  0.00  0.00    +0.000 OA
ENDBRANCH  12  20
ENDBRANCH   1  15
BRANCH   1  23
ATOM     23  C   UNL     1       1.889   5.040  20.863  0.00  0.00    +0.000 C 
BRANCH  23  24
ATOM     24  C   UNL     1       1.665   3.569  20.449  0.00  0.00    +0.000 C 
ATOM     25  C   UNL     1       2.970   2.741  20.480  0.00  0.00    +0.000 C 
ATOM     26  C   UNL     1       3.100   2.071  19.111  0.00  0.00    +0.000 C 
ATOM     27  C   UNL     1       1.688   2.053  18.554  0.00  0.00    +0.000 C 
ATOM     28  C   UNL     1       1.117   3.379  19.029  0.00  0.00    +0.000 C 
BRANCH  27  29
ATOM     29  O   UNL     1       0.951   0.957  19.081  0.00  0.00    +0.000 OA
ATOM     30  H   UNL     1       1.510   0.164  19.062  0.00  0.00    +0.000 HD
ENDBRANCH  27  29
ENDBRANCH  23  24
ENDBRANCH   1  23
TORSDOF 6
ENDMDL
MODEL 6
REMARK VINA RESULT:      -8.1      1.755      2.130
REMARK  Name = 
REMARK  7 active torsions:
REMARK  status: ('A' for Active; 'I' for Inactive)
REMARK    1  A    between atoms: C_1  and  S_2
REMARK    2  A    between atoms: S_2  and  C_5
REMARK    3  A    between atoms: C_8  and  C_9
REMARK    4  A    between atoms: C_9  and  C_10
REMARK    5  A    between atoms: C_9  and  C_17
REMARK    6  A    between atoms: C_10  and  C_11
REMARK    7  A    between atoms: C_14  and  O_15
REMARK                            x       y       z     vdW  Elec       q    Type
REMARK                         _______ _______ _______ _____ _____    ______ ____
ROOT
ATOM      1  C   UNL     1       2.538   6.505  20.212  0.00  0.00    +0.000 C 
ENDROOT
BRANCH   1   2
ATOM      2  C   UNL     1       3.506   6.362  19.020  0.00  0.00    +0.000 C 
ATOM      3  O   UNL     1       3.221   6.742  17.886  0.00  0.00    +0.000 OA
ATOM      4  N   UNL     1       4.706   5.714  19.261  0.00  0.00    +0.000 N 
ATOM      5  C   UNL     1       5.610   5.621  18.182  0.00  0.00    +0.000 A 
ATOM      6  C   UNL     1       5.999   6.752  17.454  0.00  0.00    +0.000 A 
ATOM      7  N   UNL     1       6.750   6.692  16.328  0.00  0.00    +0.000 NA
ATOM      8  C   UNL     1       7.062   5.443  15.929  0.00  0.00    +0.000 A 
ATOM      9  C   UNL     1       6.703   4.320  16.662  0.00  0.00    +0.000 A 
ATOM     10  N   UNL     1       6.007   4.382  17.828  0.00  0.00    +0.000 NA
ATOM     11  H   UNL     1       4.657   4.868  19.813  0.00  0.00    +0.000 HD
ENDBRANCH   1   2
BRANCH   1  15
ATOM     12  C   UNL     1       0.513  10.382  20.423  0.00  0.00    +0.000 A 
ATOM     13  C   UNL     1       1.075   9.928  19.220  0.00  0.00    +0.000 A 
ATOM     14  C   UNL     1       1.688   8.668  19.149  0.00  0.00    +0.000 A 
ATOM     15  C   UNL     1       1.772   7.841  20.282  0.00  0.00    +0.000 A 
ATOM     16  C   UNL     1       1.122   8.295  21.443  0.00  0.00    +0.000 A 
ATOM     17  C   UNL     1       0.496   9.544  21.527  0.00  0.00    +0.000 A 
ATOM     18 CL   UNL     1      -0.254   9.914  23.038  0.00  0.00    +0.000 Cl
BRANCH  12  20
ATOM     19  C   UNL     1       0.190  12.730  18.904  0.00  0.00    +0.000 C 
ATOM     20  S   UNL     1      -0.130  12.030  20.509  0.00  0.00    +0.000 S 
ATOM     21  O   UNL     1       0.620  12.750  21.516  0.00  0.00    +0.000 OA
ATOM     22  O   UNL     1      -1.575  11.914  20.625  0.00  0.00    +0.000 OA
ENDBRANCH  12  20
ENDBRANCH   1  15
BRANCH   1  23
ATOM     23  C   UNL     1       1.610   5.261  20.336  0.00  0.00    +0.000 C 
BRANCH  23  24
ATOM     24  C   UNL     1       2.020   4.000  19.544  0.00  0.00    +0.000 C 
ATOM     25  C   UNL     1       1.000   3.639  18.440  0.00  0.00    +0.000 C 
ATOM     26  C   UNL     1       0.619   2.172  18.655  0.00  0.00    +0.000 C 
ATOM     27  C   UNL     1       1.768   1.587  19.456  0.00  0.00    +0.000 C 
ATOM     28  C   UNL     1       2.148   2.726  20.389  0.00  0.00    +0.000 C 
BRANCH  27  29
ATOM     29  O   UNL     1       2.852   1.238  18.604  0.00  0.00    +0.000 OA
ATOM     30  H   UNL     1       2.662   1.556  17.707  0.00  0.00    +0.000 HD
ENDBRANCH  27  29
ENDBRANCH  23  24
ENDBRANCH   1  23
TORSDOF 6
ENDMDL
MODEL 7
REMARK VINA RESULT:      -8.0      1.293      1.392
REMARK  Name = 
REMARK  7 active torsions:
REMARK  status: ('A' for Active; 'I' for Inactive)
REMARK    1  A    between atoms: C_1  and  S_2
REMARK    2  A    between atoms: S_2  and  C_5
REMARK    3  A    between atoms: C_8  and  C_9
REMARK    4  A    between atoms: C_9  and  C_10
REMARK    5  A    between atoms: C_9  and  C_17
REMARK    6  A    between atoms: C_10  and  C_11
REMARK    7  A    between atoms: C_14  and  O_15
REMARK                            x       y       z     vdW  Elec       q    Type
REMARK                         _______ _______ _______ _____ _____    ______ ____
ROOT
ATOM      1  C   UNL     1       2.656   6.210  18.438  0.00  0.00    +0.000 C 
ENDROOT
BRANCH   1   2
ATOM      2  C   UNL     1       3.824   6.189  17.432  0.00  0.00    +0.000 C 
ATOM      3  O   UNL     1       4.268   7.211  16.911  0.00  0.00    +0.000 OA
ATOM      4  N   UNL     1       4.321   4.947  17.073  0.00  0.00    +0.000 N 
ATOM      5  C   UNL     1       5.418   4.930  16.186  0.00  0.00    +0.000 A 
ATOM      6  C   UNL     1       6.576   5.676  16.440  0.00  0.00    +0.000 A 
ATOM      7  N   UNL     1       7.591   5.800  15.552  0.00  0.00    +0.000 NA
ATOM      8  C   UNL     1       7.384   5.181  14.373  0.00  0.00    +0.000 A 
ATOM      9  C   UNL     1       6.251   4.417  14.127  0.00  0.00    +0.000 A 
ATOM     10  N   UNL     1       5.262   4.235  15.041  0.00  0.00    +0.000 NA
ATOM     11  H   UNL     1       3.637   4.229  16.875  0.00  0.00    +0.000 HD
ENDBRANCH   1   2
BRANCH   1  15
ATOM     12  C   UNL     1       1.257  10.243  19.412  0.00  0.00    +0.000 A 
ATOM     13  C   UNL     1       1.571   9.890  18.091  0.00  0.00    +0.000 A 
ATOM     14  C   UNL     1       1.980   8.585  17.779  0.00  0.00    +0.000 A 
ATOM     15  C   UNL     1       2.106   7.608  18.782  0.00  0.00    +0.000 A 
ATOM     16  C   UNL     1       1.702   7.979  20.076  0.00  0.00    +0.000 A 
ATOM     17  C   UNL     1       1.279   9.273  20.402  0.00  0.00    +0.000 A 
ATOM     18 CL   UNL     1       0.814   9.527  22.045  0.00  0.00    +0.000 Cl
BRANCH  12  20
ATOM     19  C   UNL     1      -0.852  11.927  20.212  0.00  0.00    +0.000 C 
ATOM     20  S   UNL     1       0.876  11.932  19.787  0.00  0.00    +0.000 S 
ATOM     21  O   UNL     1       1.083  12.714  18.587  0.00  0.00    +0.000 OA
ATOM     22  O   UNL     1       1.597  12.266  21.005  0.00  0.00    +0.000 OA
ENDBRANCH  12  20
ENDBRANCH   1  15
BRANCH   1  23
ATOM     23  C   UNL     1       1.544   5.200  18.030  0.00  0.00    +0.000 C 
BRANCH  23  24
ATOM     24  C   UNL     1       1.590   3.802  18.688  0.00  0.00    +0.000 C 
ATOM     25  C   UNL     1       2.411   3.793  19.997  0.00  0.00    +0.000 C 
ATOM     26  C   UNL     1       3.444   2.673  19.862  0.00  0.00    +0.000 C 
ATOM     27  C   UNL     1       2.872   1.745  18.804  0.00  0.00    +0.000 C 
ATOM     28  C   UNL     1       2.224   2.707  17.821  0.00  0.00    +0.000 C 
BRANCH  27  29
ATOM     29  O   UNL     1       1.910   0.865  19.371  0.00  0.00    +0.000 OA
ATOM     30  H   UNL     1       1.142   0.816  18.780  0.00  0.00    +0.000 HD
ENDBRANCH  27  29
ENDBRANCH  23  24
ENDBRANCH   1  23
TORSDOF 6
ENDMDL
MODEL 8
REMARK VINA RESULT:      -8.0      3.865      6.858
REMARK  Name = 
REMARK  7 active torsions:
REMARK  status: ('A' for Active; 'I' for Inactive)
REMARK    1  A    between atoms: C_1  and  S_2
REMARK    2  A    between atoms: S_2  and  C_5
REMARK    3  A    between atoms: C_8  and  C_9
REMARK    4  A    between atoms: C_9  and  C_10
REMARK    5  A    between atoms: C_9  and  C_17
REMARK    6  A    between atoms: C_10  and  C_11
REMARK    7  A    between atoms: C_14  and  O_15
REMARK                            x       y       z     vdW  Elec       q    Type
REMARK                         _______ _______ _______ _____ _____    ______ ____
ROOT
ATOM      1  C   UNL     1       1.961   6.264  19.692  0.00  0.00    +0.000 C 
ENDROOT
BRANCH   1   2
ATOM      2  C   UNL     1       1.567   7.671  20.185  0.00  0.00    +0.000 C 
ATOM      3  O   UNL     1       1.506   7.961  21.379  0.00  0.00    +0.000 OA
ATOM      4  N   UNL     1       1.209   8.597  19.220  0.00  0.00    +0.000 N 
ATOM      5  C   UNL     1       0.891   9.897  19.667  0.00  0.00    +0.000 A 
ATOM      6  C   UNL     1       1.759  10.618  20.495  0.00  0.00    +0.000 A 
ATOM      7  N   UNL     1       1.434  11.805  21.061  0.00  0.00    +0.000 NA
ATOM      8  C   UNL     1       0.180  12.226  20.801  0.00  0.00    +0.000 A 
ATOM      9  C   UNL     1      -0.675  11.528  19.960  0.00  0.00    +0.000 A 
ATOM     10  N   UNL     1      -0.327  10.371  19.336  0.00  0.00    +0.000 NA
ATOM     11  H   UNL     1       0.596   8.267  18.486  0.00  0.00    +0.000 HD
ENDBRANCH   1   2
BRANCH   1  15
ATOM     12  C   UNL     1       5.703   5.882  17.451  0.00  0.00    +0.000 A 
ATOM     13  C   UNL     1       4.509   6.232  16.803  0.00  0.00    +0.000 A 
ATOM     14  C   UNL     1       3.322   6.392  17.532  0.00  0.00    +0.000 A 
ATOM     15  C   UNL     1       3.294   6.185  18.922  0.00  0.00    +0.000 A 
ATOM     16  C   UNL     1       4.526   5.919  19.543  0.00  0.00    +0.000 A 
ATOM     17  C   UNL     1       5.723   5.769  18.832  0.00  0.00    +0.000 A 
ATOM     18 CL   UNL     1       7.132   5.454  19.779  0.00  0.00    +0.000 Cl
BRANCH  12  20
ATOM     19  C   UNL     1       6.534   5.177  14.855  0.00  0.00    +0.000 C 
ATOM     20  S   UNL     1       7.150   5.557  16.481  0.00  0.00    +0.000 S 
ATOM     21  O   UNL     1       7.810   4.395  17.039  0.00  0.00    +0.000 OA
ATOM     22  O   UNL     1       7.870   6.814  16.364  0.00  0.00    +0.000 OA
ENDBRANCH  12  20
ENDBRANCH   1  15
BRANCH   1  23
ATOM     23  C   UNL     1       1.855   5.216  20.839  0.00  0.00    +0.000 C 
BRANCH  23  24
ATOM     24  C   UNL     1       1.605   3.749  20.427  0.00  0.00    +0.000 C 
ATOM     25  C   UNL     1       2.876   2.877  20.546  0.00  0.00    +0.000 C 
ATOM     26  C   UNL     1       3.064   2.186  19.193  0.00  0.00    +0.000 C 
ATOM     27  C   UNL     1       1.689   2.210  18.552  0.00  0.00    +0.000 C 
ATOM     28  C   UNL     1       1.137   3.561  18.978  0.00  0.00    +0.000 C 
BRANCH  27  29
ATOM     29  O   UNL     1       0.883   1.147  19.044  0.00  0.00    +0.000 OA
ATOM     30  H   UNL     1       0.152   1.521  19.561  0.00  0.00    +0.000 HD
ENDBRANCH  27  29
ENDBRANCH  23  24
ENDBRANCH   1  23
TORSDOF 6
ENDMDL
MODEL 9
REMARK VINA RESULT:      -7.9      2.284      4.828
REMARK  Name = 
REMARK  7 active torsions:
REMARK  status: ('A' for Active; 'I' for Inactive)
REMARK    1  A    between atoms: C_1  and  S_2
REMARK    2  A    between atoms: S_2  and  C_5
REMARK    3  A    between atoms: C_8  and  C_9
REMARK    4  A    between atoms: C_9  and  C_10
REMARK    5  A    between atoms: C_9  and  C_17
REMARK    6  A    between atoms: C_10  and  C_11
REMARK    7  A    between atoms: C_14  and  O_15
REMARK                            x       y       z     vdW  Elec       q    Type
REMARK                         _______ _______ _______ _____ _____    ______ ____
ROOT
ATOM      1  C   UNL     1       2.530   7.259  17.994  0.00  0.00    +0.000 C 
ENDROOT
BRANCH   1   2
ATOM      2  C   UNL     1       2.590   6.080  18.986  0.00  0.00    +0.000 C 
ATOM      3  O   UNL     1       3.363   6.057  19.942  0.00  0.00    +0.000 OA
ATOM      4  N   UNL     1       1.775   4.993  18.718  0.00  0.00    +0.000 N 
ATOM      5  C   UNL     1       1.797   3.933  19.649  0.00  0.00    +0.000 A 
ATOM      6  C   UNL     1       1.592   4.155  21.016  0.00  0.00    +0.000 A 
ATOM      7  N   UNL     1       1.745   3.194  21.958  0.00  0.00    +0.000 NA
ATOM      8  C   UNL     1       2.155   2.002  21.481  0.00  0.00    +0.000 A 
ATOM      9  C   UNL     1       2.333   1.768  20.124  0.00  0.00    +0.000 A 
ATOM     10  N   UNL     1       2.116   2.713  19.171  0.00  0.00    +0.000 NA
ATOM     11  H   UNL     1       1.747   4.678  17.757  0.00  0.00    +0.000 HD
ENDBRANCH   1   2
BRANCH   1  15
ATOM     12  C   UNL     1       1.004  11.020  19.636  0.00  0.00    +0.000 A 
ATOM     13  C   UNL     1       1.543  10.967  18.342  0.00  0.00    +0.000 A 
ATOM     14  C   UNL     1       1.994   9.751  17.807  0.00  0.00    +0.000 A 
ATOM     15  C   UNL     1       1.937   8.565  18.558  0.00  0.00    +0.000 A 
ATOM     16  C   UNL     1       1.312   8.646  19.815  0.00  0.00    +0.000 A 
ATOM     17  C   UNL     1       0.846   9.848  20.359  0.00  0.00    +0.000 A 
ATOM     18 CL   UNL     1       0.100   9.737  21.913  0.00  0.00    +0.000 Cl
BRANCH  12  20
ATOM     19  C   UNL     1       0.916  13.769  19.038  0.00  0.00    +0.000 C 
ATOM     20  S   UNL     1       0.571  12.593  20.328  0.00  0.00    +0.000 S 
ATOM     21  O   UNL     1       1.440  12.837  21.460  0.00  0.00    +0.000 OA
ATOM     22  O   UNL     1      -0.871  12.592  20.508  0.00  0.00    +0.000 OA
ENDBRANCH  12  20
ENDBRANCH   1  15
BRANCH   1  23
ATOM     23  C   UNL     1       3.901   7.467  17.285  0.00  0.00    +0.000 C 
BRANCH  23  24
ATOM     24  C   UNL     1       4.802   6.223  17.122  0.00  0.00    +0.000 C 
ATOM     25  C   UNL     1       6.124   6.344  17.914  0.00  0.00    +0.000 C 
ATOM     26  C   UNL     1       7.258   6.070  16.923  0.00  0.00    +0.000 C 
ATOM     27  C   UNL     1       6.607   5.284  15.799  0.00  0.00    +0.000 C 
ATOM     28  C   UNL     1       5.236   5.931  15.680  0.00  0.00    +0.000 C 
BRANCH  27  29
ATOM     29  O   UNL     1       6.498   3.908  16.140  0.00  0.00    +0.000 OA
ATOM     30  H   UNL     1       7.390   3.541  16.252  0.00  0.00    +0.000 HD
ENDBRANCH  27  29
ENDBRANCH  23  24
ENDBRANCH   1  23
TORSDOF 6
ENDMDL
