MODEL 1
REMARK VINA RESULT:      -9.0      0.000      0.000
REMARK  Name = 
REMARK  7 active torsions:
REMARK  status: ('A' for Active; 'I' for Inactive)
REMARK    1  A    between atoms: C_1  and  C_2
REMARK    2  A    between atoms: C_2  and  C_3
REMARK    3  A    between atoms: C_2  and  C_4
REMARK    4  A    between atoms: C_7  and  C_8
REMARK    5  A    between atoms: N_20  and  C_21
REMARK    6  A    between atoms: C_21  and  C_22
REMARK    7  A    between atoms: C_22  and  O_23
REMARK                            x       y       z     vdW  Elec       q    Type
REMARK                         _______ _______ _______ _____ _____    ______ ____
ROOT
ATOM      1  C   UNL     1       3.165   3.884  18.061  0.00  0.00    +0.000 C 
ATOM      2  C   UNL     1       4.537   3.541  17.535  0.00  0.00    +0.000 C 
ATOM      3  C   UNL     1       4.944   3.929  16.149  0.00  0.00    +0.000 C 
ATOM      4  C   UNL     1       5.364   5.340  15.997  0.00  0.00    +0.000 C 
ATOM      5  C   UNL     1       5.937   5.977  17.224  0.00  0.00    +0.000 A 
ATOM      6  C   UNL     1       6.422   7.273  16.907  0.00  0.00    +0.000 A 
ATOM      7  C   UNL     1       7.511   7.738  17.588  0.00  0.00    +0.000 A 
ATOM      8  C   UNL     1       8.032   6.934  18.616  0.00  0.00    +0.000 A 
ATOM      9  C   UNL     1       7.367   5.751  19.087  0.00  0.00    +0.000 A 
ATOM     10  C   UNL     1       6.248   5.241  18.420  0.00  0.00    +0.000 A 
ATOM     11  C   UNL     1       5.303   4.017  18.725  0.00  0.00    +0.000 C 
ATOM     12  N   UNL     1       4.708   3.429  19.801  0.00  0.00    +0.000 NA
ATOM     13  N   UNL     1       3.377   2.888  19.169  0.00  0.00    +0.000 N 
ENDROOT
BRANCH   1  17
ATOM     14  C   UNL     1       1.923   7.768  19.708  0.00  0.00    +0.000 A 
ATOM     15  C   UNL     1       2.110   6.651  20.548  0.00  0.00    +0.000 A 
ATOM     16  C   UNL     1       2.630   5.434  20.071  0.00  0.00    +0.000 A 
ATOM     17  C   UNL     1       2.920   5.293  18.716  0.00  0.00    +0.000 A 
ATOM     18  C   UNL     1       2.807   6.474  17.925  0.00  0.00    +0.000 A 
ATOM     19  C   UNL     1       2.322   7.668  18.380  0.00  0.00    +0.000 A 
BRANCH  14  21
ATOM     20  C   UNL     1       0.766   9.819  19.041  0.00  0.00    +0.000 C 
ATOM     21  C   UNL     1       1.432   9.104  20.219  0.00  0.00    +0.000 C 
ATOM     22  C   UNL     1       0.446   8.989  21.396  0.00  0.00    +0.000 C 
ENDBRANCH  14  21
ENDBRANCH   1  17
BRANCH  13  23
ATOM     23  C   UNL     1       1.958   2.637  19.663  0.00  0.00    +0.000 C 
BRANCH  23  24
ATOM     24  C   UNL     1       1.475   2.543  21.122  0.00  0.00    +0.000 C 
BRANCH  24  25
ATOM     25  O   UNL     1       2.628   2.537  22.009  0.00  0.00    +0.000 OA
ATOM     26  H   UNL     1       3.332   1.990  21.616  0.00  0.00    +0.000 HD
ENDBRANCH  24  25
ENDBRANCH  23  24
ENDBRANCH  13  23
TORSDOF 5
ENDMDL
MODEL 2
REMARK VINA RESULT:      -8.1      2.890      6.685
REMARK  Name = 
REMARK  7 active torsions:
REMARK  status: ('A' for Active; 'I' for Inactive)
REMARK    1  A    between atoms: C_1  and  C_2
REMARK    2  A    between atoms: C_2  and  C_3
REMARK    3  A    between atoms: C_2  and  C_4
REMARK    4  A    between atoms: C_7  and  C_8
REMARK    5  A    between atoms: N_20  and  C_21
REMARK    6  A    between atoms: C_21  and  C_22
REMARK    7  A    between atoms: C_22  and  O_23
REMARK                            x       y       z     vdW  Elec       q    Type
REMARK                         _______ _______ _______ _____ _____    ______ ____
ROOT
ATOM      1  C   UNL     1       5.615   6.606  17.702  0.00  0.00    +0.000 C 
ATOM      2  C   UNL     1       4.756   6.216  18.880  0.00  0.00    +0.000 C 
ATOM      3  C   UNL     1       3.275   6.424  18.849  0.00  0.00    +0.000 C 
ATOM      4  C   UNL     1       2.519   5.393  18.103  0.00  0.00    +0.000 C 
ATOM      5  C   UNL     1       3.154   4.039  18.053  0.00  0.00    +0.000 A 
ATOM      6  C   UNL     1       2.269   3.119  17.431  0.00  0.00    +0.000 A 
ATOM      7  C   UNL     1       2.294   1.819  17.849  0.00  0.00    +0.000 A 
ATOM      8  C   UNL     1       3.252   1.459  18.811  0.00  0.00    +0.000 A 
ATOM      9  C   UNL     1       4.302   2.347  19.230  0.00  0.00    +0.000 A 
ATOM     10  C   UNL     1       4.316   3.686  18.824  0.00  0.00    +0.000 A 
ATOM     11  C   UNL     1       5.340   4.857  19.078  0.00  0.00    +0.000 C 
ATOM     12  N   UNL     1       6.690   5.041  19.121  0.00  0.00    +0.000 NA
ATOM     13  N   UNL     1       6.823   6.514  18.595  0.00  0.00    +0.000 N 
ENDROOT
BRANCH   1  17
ATOM     14  C   UNL     1       6.179   4.233  14.042  0.00  0.00    +0.000 A 
ATOM     15  C   UNL     1       7.242   4.434  14.946  0.00  0.00    +0.000 A 
ATOM     16  C   UNL     1       7.060   5.077  16.185  0.00  0.00    +0.000 A 
ATOM     17  C   UNL     1       5.809   5.588  16.518  0.00  0.00    +0.000 A 
ATOM     18  C   UNL     1       4.746   5.278  15.620  0.00  0.00    +0.000 A 
ATOM     19  C   UNL     1       4.904   4.637  14.423  0.00  0.00    +0.000 A 
BRANCH  14  21
ATOM     20  C   UNL     1       4.952   3.366  12.110  0.00  0.00    +0.000 C 
ATOM     21  C   UNL     1       6.343   3.483  12.740  0.00  0.00    +0.000 C 
ATOM     22  C   UNL     1       7.315   4.160  11.756  0.00  0.00    +0.000 C 
ENDBRANCH  14  21
ENDBRANCH   1  17
BRANCH  13  23
ATOM     23  C   UNL     1       7.868   7.304  17.818  0.00  0.00    +0.000 C 
BRANCH  23  24
ATOM     24  C   UNL     1       8.183   8.807  17.931  0.00  0.00    +0.000 C 
BRANCH  24  25
ATOM     25  O   UNL     1       8.977   9.042  19.127  0.00  0.00    +0.000 OA
ATOM     26  H   UNL     1       8.380   9.160  19.889  0.00  0.00    +0.000 HD
ENDBRANCH  24  25
ENDBRANCH  23  24
ENDBRANCH  13  23
TORSDOF 5
ENDMDL
MODEL 3
REMARK VINA RESULT:      -8.1      1.107      1.163
REMARK  Name = 
REMARK  7 active torsions:
REMARK  status: ('A' for Active; 'I' for Inactive)
REMARK    1  A    between atoms: C_1  and  C_2
REMARK    2  A    between atoms: C_2  and  C_3
REMARK    3  A    between atoms: C_2  and  C_4
REMARK    4  A    between atoms: C_7  and  C_8
REMARK    5  A    between atoms: N_20  and  C_21
REMARK    6  A    between atoms: C_21  and  C_22
REMARK    7  A    between atoms: C_22  and  O_23
REMARK                            x       y       z     vdW  Elec       q    Type
REMARK                         _______ _______ _______ _____ _____    ______ ____
ROOT
ATOM      1  C   UNL     1       3.035   4.191  18.027  0.00  0.00    +0.000 C 
ATOM      2  C   UNL     1       4.412   3.714  17.635  0.00  0.00    +0.000 C 
ATOM      3  C   UNL     1       4.942   3.954  16.257  0.00  0.00    +0.000 C 
ATOM      4  C   UNL     1       5.472   5.316  16.025  0.00  0.00    +0.000 C 
ATOM      5  C   UNL     1       6.004   6.016  17.236  0.00  0.00    +0.000 A 
ATOM      6  C   UNL     1       6.602   7.246  16.853  0.00  0.00    +0.000 A 
ATOM      7  C   UNL     1       7.671   7.693  17.574  0.00  0.00    +0.000 A 
ATOM      8  C   UNL     1       8.060   6.948  18.700  0.00  0.00    +0.000 A 
ATOM      9  C   UNL     1       7.280   5.856  19.214  0.00  0.00    +0.000 A 
ATOM     10  C   UNL     1       6.176   5.366  18.508  0.00  0.00    +0.000 A 
ATOM     11  C   UNL     1       5.125   4.238  18.837  0.00  0.00    +0.000 C 
ATOM     12  N   UNL     1       4.416   3.786  19.910  0.00  0.00    +0.000 NA
ATOM     13  N   UNL     1       3.097   3.282  19.225  0.00  0.00    +0.000 N 
ENDROOT
BRANCH   1  17
ATOM     14  C   UNL     1       1.960   8.270  19.274  0.00  0.00    +0.000 A 
ATOM     15  C   UNL     1       2.046   7.223  20.214  0.00  0.00    +0.000 A 
ATOM     16  C   UNL     1       2.511   5.941  19.869  0.00  0.00    +0.000 A 
ATOM     17  C   UNL     1       2.848   5.665  18.546  0.00  0.00    +0.000 A 
ATOM     18  C   UNL     1       2.838   6.775  17.652  0.00  0.00    +0.000 A 
ATOM     19  C   UNL     1       2.408   8.030  17.979  0.00  0.00    +0.000 A 
BRANCH  14  21
ATOM     20  C   UNL     1       1.603  10.515  18.370  0.00  0.00    +0.000 C 
ATOM     21  C   UNL     1       1.530   9.671  19.644  0.00  0.00    +0.000 C 
ATOM     22  C   UNL     1       0.115   9.742  20.247  0.00  0.00    +0.000 C 
ENDBRANCH  14  21
ENDBRANCH   1  17
BRANCH  13  23
ATOM     23  C   UNL     1       1.632   3.169  19.629  0.00  0.00    +0.000 C 
BRANCH  23  24
ATOM     24  C   UNL     1       0.528   2.350  18.934  0.00  0.00    +0.000 C 
BRANCH  24  25
ATOM     25  O   UNL     1       1.107   1.608  17.825  0.00  0.00    +0.000 OA
ATOM     26  H   UNL     1       1.783   2.158  17.390  0.00  0.00    +0.000 HD
ENDBRANCH  24  25
ENDBRANCH  23  24
ENDBRANCH  13  23
TORSDOF 5
ENDMDL
MODEL 4
REMARK VINA RESULT:      -7.5      0.958      1.291
REMARK  Name = 
REMARK  7 active torsions:
REMARK  status: ('A' for Active; 'I' for Inactive)
REMARK    1  A    between atoms: C_1  and  C_2
REMARK    2  A    between atoms: C_2  and  C_3
REMARK    3  A    between atoms: C_2  and  C_4
REMARK    4  A    between atoms: C_7  and  C_8
REMARK    5  A    between atoms: N_20  and  C_21
REMARK    6  A    between atoms: C_21  and  C_22
REMARK    7  A    between atoms: C_22  and  O_23
REMARK                            x       y       z     vdW  Elec       q    Type
REMARK                         _______ _______ _______ _____ _____    ______ ____
ROOT
ATOM      1  C   UNL     1       3.896   4.080  17.084  0.00  0.00    +0.000 C 
ATOM      2  C   UNL     1       5.367   3.829  16.857  0.00  0.00    +0.000 C 
ATOM      3  C   UNL     1       6.057   4.364  15.643  0.00  0.00    +0.000 C 
ATOM      4  C   UNL     1       6.429   5.794  15.721  0.00  0.00    +0.000 C 
ATOM      5  C   UNL     1       6.679   6.321  17.099  0.00  0.00    +0.000 A 
ATOM      6  C   UNL     1       7.158   7.655  17.021  0.00  0.00    +0.000 A 
ATOM      7  C   UNL     1       8.041   8.079  17.973  0.00  0.00    +0.000 A 
ATOM      8  C   UNL     1       8.356   7.191  19.015  0.00  0.00    +0.000 A 
ATOM      9  C   UNL     1       7.661   5.949  19.212  0.00  0.00    +0.000 A 
ATOM     10  C   UNL     1       6.747   5.478  18.263  0.00  0.00    +0.000 A 
ATOM     11  C   UNL     1       5.819   4.204  18.229  0.00  0.00    +0.000 C 
ATOM     12  N   UNL     1       5.026   3.496  19.083  0.00  0.00    +0.000 NA
ATOM     13  N   UNL     1       3.901   2.985  18.116  0.00  0.00    +0.000 N 
ENDROOT
BRANCH   1  17
ATOM     14  C   UNL     1       2.119   7.739  18.757  0.00  0.00    +0.000 A 
ATOM     15  C   UNL     1       2.192   6.555  19.518  0.00  0.00    +0.000 A 
ATOM     16  C   UNL     1       2.868   5.409  19.060  0.00  0.00    +0.000 A 
ATOM     17  C   UNL     1       3.440   5.410  17.790  0.00  0.00    +0.000 A 
ATOM     18  C   UNL     1       3.427   6.656  17.097  0.00  0.00    +0.000 A 
ATOM     19  C   UNL     1       2.791   7.782  17.540  0.00  0.00    +0.000 A 
BRANCH  14  21
ATOM     20  C   UNL     1       1.700   9.058  20.775  0.00  0.00    +0.000 C 
ATOM     21  C   UNL     1       1.458   9.000  19.265  0.00  0.00    +0.000 C 
ATOM     22  C   UNL     1       1.982  10.283  18.595  0.00  0.00    +0.000 C 
ENDBRANCH  14  21
ENDBRANCH   1  17
BRANCH  13  23
ATOM     23  C   UNL     1       2.421   2.647  18.246  0.00  0.00    +0.000 C 
BRANCH  23  24
ATOM     24  C   UNL     1       1.688   2.103  19.486  0.00  0.00    +0.000 C 
BRANCH  24  25
ATOM     25  O   UNL     1       2.478   2.389  20.673  0.00  0.00    +0.000 OA
ATOM     26  H   UNL     1       3.071   3.141  20.490  0.00  0.00    +0.000 HD
ENDBRANCH  24  25
ENDBRANCH  23  24
ENDBRANCH  13  23
TORSDOF 5
ENDMDL
MODEL 5
REMARK VINA RESULT:      -7.1      0.760      1.245
REMARK  Name = 
REMARK  7 active torsions:
REMARK  status: ('A' for Active; 'I' for Inactive)
REMARK    1  A    between atoms: C_1  and  C_2
REMARK    2  A    between atoms: C_2  and  C_3
REMARK    3  A    between atoms: C_2  and  C_4
REMARK    4  A    between atoms: C_7  and  C_8
REMARK    5  A    between atoms: N_20  and  C_21
REMARK    6  A    between atoms: C_21  and  C_22
REMARK    7  A    between atoms: C_22  and  O_23
REMARK                            x       y       z     vdW  Elec       q    Type
REMARK                         _______ _______ _______ _____ _____    ______ ____
ROOT
ATOM      1  C   UNL     1       2.892   3.228  18.320  0.00  0.00    +0.000 C 
ATOM      2  C   UNL     1       4.320   2.941  17.930  0.00  0.00    +0.000 C 
ATOM      3  C   UNL     1       4.754   3.015  16.500  0.00  0.00    +0.000 C 
ATOM      4  C   UNL     1       5.013   4.383  16.000  0.00  0.00    +0.000 C 
ATOM      5  C   UNL     1       5.441   5.376  17.034  0.00  0.00    +0.000 A 
ATOM      6  C   UNL     1       5.787   6.601  16.405  0.00  0.00    +0.000 A 
ATOM      7  C   UNL     1       6.777   7.356  16.968  0.00  0.00    +0.000 A 
ATOM      8  C   UNL     1       7.332   6.911  18.179  0.00  0.00    +0.000 A 
ATOM      9  C   UNL     1       6.785   5.810  18.924  0.00  0.00    +0.000 A 
ATOM     10  C   UNL     1       5.771   5.011  18.386  0.00  0.00    +0.000 A 
ATOM     11  C   UNL     1       4.960   3.794  18.974  0.00  0.00    +0.000 C 
ATOM     12  N   UNL     1       4.381   3.427  20.152  0.00  0.00    +0.000 NA
ATOM     13  N   UNL     1       3.158   2.580  19.651  0.00  0.00    +0.000 N 
ENDROOT
BRANCH   1  17
ATOM     14  C   UNL     1       2.227   7.504  19.106  0.00  0.00    +0.000 A 
ATOM     15  C   UNL     1       2.101   6.979  17.805  0.00  0.00    +0.000 A 
ATOM     16  C   UNL     1       2.180   5.599  17.543  0.00  0.00    +0.000 A 
ATOM     17  C   UNL     1       2.448   4.715  18.585  0.00  0.00    +0.000 A 
ATOM     18  C   UNL     1       2.472   5.278  19.894  0.00  0.00    +0.000 A 
ATOM     19  C   UNL     1       2.377   6.614  20.165  0.00  0.00    +0.000 A 
BRANCH  14  21
ATOM     20  C   UNL     1       1.753   9.681  18.093  0.00  0.00    +0.000 C 
ATOM     21  C   UNL     1       2.074   8.977  19.414  0.00  0.00    +0.000 C 
ATOM     22  C   UNL     1       0.980   9.278  20.455  0.00  0.00    +0.000 C 
ENDBRANCH  14  21
ENDBRANCH   1  17
BRANCH  13  23
ATOM     23  C   UNL     1       1.754   2.284  20.161  0.00  0.00    +0.000 C 
BRANCH  23  24
ATOM     24  C   UNL     1       1.198   2.528  21.576  0.00  0.00    +0.000 C 
BRANCH  24  25
ATOM     25  O   UNL     1       2.247   3.093  22.412  0.00  0.00    +0.000 OA
ATOM     26  H   UNL     1       1.845   3.682  23.076  0.00  0.00    +0.000 HD
ENDBRANCH  24  25
ENDBRANCH  23  24
ENDBRANCH  13  23
TORSDOF 5
ENDMDL
MODEL 6
REMARK VINA RESULT:      -7.0      3.035      6.587
REMARK  Name = 
REMARK  7 active torsions:
REMARK  status: ('A' for Active; 'I' for Inactive)
REMARK    1  A    between atoms: C_1  and  C_2
REMARK    2  A    between atoms: C_2  and  C_3
REMARK    3  A    between atoms: C_2  and  C_4
REMARK    4  A    between atoms: C_7  and  C_8
REMARK    5  A    between atoms: N_20  and  C_21
REMARK    6  A    between atoms: C_21  and  C_22
REMARK    7  A    between atoms: C_22  and  O_23
REMARK                            x       y       z     vdW  Elec       q    Type
REMARK                         _______ _______ _______ _____ _____    ______ ____
ROOT
ATOM      1  C   UNL     1       5.959   6.726  18.044  0.00  0.00    +0.000 C 
ATOM      2  C   UNL     1       5.115   6.103  19.129  0.00  0.00    +0.000 C 
ATOM      3  C   UNL     1       3.644   6.364  19.200  0.00  0.00    +0.000 C 
ATOM      4  C   UNL     1       2.825   5.565  18.263  0.00  0.00    +0.000 C 
ATOM      5  C   UNL     1       3.399   4.237  17.877  0.00  0.00    +0.000 A 
ATOM      6  C   UNL     1       2.459   3.521  17.091  0.00  0.00    +0.000 A 
ATOM      7  C   UNL     1       2.439   2.159  17.194  0.00  0.00    +0.000 A 
ATOM      8  C   UNL     1       3.407   1.550  18.011  0.00  0.00    +0.000 A 
ATOM      9  C   UNL     1       4.504   2.278  18.586  0.00  0.00    +0.000 A 
ATOM     10  C   UNL     1       4.565   3.673  18.503  0.00  0.00    +0.000 A 
ATOM     11  C   UNL     1       5.645   4.715  18.985  0.00  0.00    +0.000 C 
ATOM     12  N   UNL     1       7.002   4.836  19.020  0.00  0.00    +0.000 NA
ATOM     13  N   UNL     1       7.185   6.385  18.847  0.00  0.00    +0.000 N 
ENDROOT
BRANCH   1  17
ATOM     14  C   UNL     1       5.983   4.275  14.392  0.00  0.00    +0.000 A 
ATOM     15  C   UNL     1       5.122   5.384  14.515  0.00  0.00    +0.000 A 
ATOM     16  C   UNL     1       5.182   6.261  15.613  0.00  0.00    +0.000 A 
ATOM     17  C   UNL     1       6.076   6.006  16.649  0.00  0.00    +0.000 A 
ATOM     18  C   UNL     1       6.991   4.934  16.438  0.00  0.00    +0.000 A 
ATOM     19  C   UNL     1       6.958   4.086  15.366  0.00  0.00    +0.000 A 
BRANCH  14  21
ATOM     20  C   UNL     1       4.595   3.475  12.542  0.00  0.00    +0.000 C 
ATOM     21  C   UNL     1       5.980   3.365  13.184  0.00  0.00    +0.000 C 
ATOM     22  C   UNL     1       7.072   3.706  12.154  0.00  0.00    +0.000 C 
ENDBRANCH  14  21
ENDBRANCH   1  17
BRANCH  13  23
ATOM     23  C   UNL     1       8.242   7.297  18.238  0.00  0.00    +0.000 C 
BRANCH  23  24
ATOM     24  C   UNL     1       8.216   8.834  18.149  0.00  0.00    +0.000 C 
BRANCH  24  25
ATOM     25  O   UNL     1       9.066   9.389  19.191  0.00  0.00    +0.000 OA
ATOM     26  H   UNL     1       9.877   8.852  19.262  0.00  0.00    +0.000 HD
ENDBRANCH  24  25
ENDBRANCH  23  24
ENDBRANCH  13  23
TORSDOF 5
ENDMDL
MODEL 7
REMARK VINA RESULT:      -6.9      2.711      6.492
REMARK  Name = 
REMARK  7 active torsions:
REMARK  status: ('A' for Active; 'I' for Inactive)
REMARK    1  A    between atoms: C_1  and  C_2
REMARK    2  A    between atoms: C_2  and  C_3
REMARK    3  A    between atoms: C_2  and  C_4
REMARK    4  A    between atoms: C_7  and  C_8
REMARK    5  A    between atoms: N_20  and  C_21
REMARK    6  A    between atoms: C_21  and  C_22
REMARK    7  A    between atoms: C_22  and  O_23
REMARK                            x       y       z     vdW  Elec       q    Type
REMARK                         _______ _______ _______ _____ _____    ______ ____
ROOT
ATOM      1  C   UNL     1       5.637   6.206  18.427  0.00  0.00    +0.000 C 
ATOM      2  C   UNL     1       4.637   5.850  19.499  0.00  0.00    +0.000 C 
ATOM      3  C   UNL     1       3.245   6.396  19.460  0.00  0.00    +0.000 C 
ATOM      4  C   UNL     1       2.329   5.696  18.533  0.00  0.00    +0.000 C 
ATOM      5  C   UNL     1       2.647   4.256  18.279  0.00  0.00    +0.000 A 
ATOM      6  C   UNL     1       1.621   3.673  17.489  0.00  0.00    +0.000 A 
ATOM      7  C   UNL     1       1.327   2.354  17.688  0.00  0.00    +0.000 A 
ATOM      8  C   UNL     1       2.116   1.638  18.604  0.00  0.00    +0.000 A 
ATOM      9  C   UNL     1       3.307   2.184  19.193  0.00  0.00    +0.000 A 
ATOM     10  C   UNL     1       3.646   3.529  19.015  0.00  0.00    +0.000 A 
ATOM     11  C   UNL     1       4.888   4.379  19.487  0.00  0.00    +0.000 C 
ATOM     12  N   UNL     1       6.239   4.237  19.598  0.00  0.00    +0.000 NA
ATOM     13  N   UNL     1       6.732   5.702  19.326  0.00  0.00    +0.000 N 
ENDROOT
BRANCH   1  17
ATOM     14  C   UNL     1       6.121   4.263  14.511  0.00  0.00    +0.000 A 
ATOM     15  C   UNL     1       6.757   3.749  15.659  0.00  0.00    +0.000 A 
ATOM     16  C   UNL     1       6.519   4.269  16.944  0.00  0.00    +0.000 A 
ATOM     17  C   UNL     1       5.675   5.366  17.097  0.00  0.00    +0.000 A 
ATOM     18  C   UNL     1       4.981   5.791  15.926  0.00  0.00    +0.000 A 
ATOM     19  C   UNL     1       5.187   5.281  14.675  0.00  0.00    +0.000 A 
BRANCH  14  21
ATOM     20  C   UNL     1       4.926   3.577  12.488  0.00  0.00    +0.000 C 
ATOM     21  C   UNL     1       6.311   3.669  13.133  0.00  0.00    +0.000 C 
ATOM     22  C   UNL     1       7.261   4.485  12.237  0.00  0.00    +0.000 C 
ENDBRANCH  14  21
ENDBRANCH   1  17
BRANCH  13  23
ATOM     23  C   UNL     1       7.976   6.339  18.720  0.00  0.00    +0.000 C 
BRANCH  23  24
ATOM     24  C   UNL     1       8.117   7.760  18.144  0.00  0.00    +0.000 C 
BRANCH  24  25
ATOM     25  O   UNL     1       8.084   7.694  16.691  0.00  0.00    +0.000 OA
ATOM     26  H   UNL     1       7.311   8.189  16.365  0.00  0.00    +0.000 HD
ENDBRANCH  24  25
ENDBRANCH  23  24
ENDBRANCH  13  23
TORSDOF 5
ENDMDL
MODEL 8
REMARK VINA RESULT:      -6.8      1.055      1.462
REMARK  Name = 
REMARK  7 active torsions:
REMARK  status: ('A' for Active; 'I' for Inactive)
REMARK    1  A    between atoms: C_1  and  C_2
REMARK    2  A    between atoms: C_2  and  C_3
REMARK    3  A    between atoms: C_2  and  C_4
REMARK    4  A    between atoms: C_7  and  C_8
REMARK    5  A    between atoms: N_20  and  C_21
REMARK    6  A    between atoms: C_21  and  C_22
REMARK    7  A    between atoms: C_22  and  O_23
REMARK                            x       y       z     vdW  Elec       q    Type
REMARK                         _______ _______ _______ _____ _____    ______ ____
ROOT
ATOM      1  C   UNL     1       3.155   3.151  17.855  0.00  0.00    +0.000 C 
ATOM      2  C   UNL     1       4.594   3.007  17.425  0.00  0.00    +0.000 C 
ATOM      3  C   UNL     1       5.024   3.398  16.047  0.00  0.00    +0.000 C 
ATOM      4  C   UNL     1       5.229   4.849  15.849  0.00  0.00    +0.000 C 
ATOM      5  C   UNL     1       5.618   5.619  17.072  0.00  0.00    +0.000 A 
ATOM      6  C   UNL     1       5.915   6.961  16.719  0.00  0.00    +0.000 A 
ATOM      7  C   UNL     1       6.873   7.619  17.436  0.00  0.00    +0.000 A 
ATOM      8  C   UNL     1       7.445   6.950  18.531  0.00  0.00    +0.000 A 
ATOM      9  C   UNL     1       6.943   5.697  19.023  0.00  0.00    +0.000 A 
ATOM     10  C   UNL     1       5.961   4.990  18.320  0.00  0.00    +0.000 A 
ATOM     11  C   UNL     1       5.199   3.646  18.631  0.00  0.00    +0.000 C 
ATOM     12  N   UNL     1       4.634   3.017  19.701  0.00  0.00    +0.000 NA
ATOM     13  N   UNL     1       3.446   2.247  19.022  0.00  0.00    +0.000 N 
ENDROOT
BRANCH   1  17
ATOM     14  C   UNL     1       2.320   7.137  19.516  0.00  0.00    +0.000 A 
ATOM     15  C   UNL     1       2.211   6.891  18.133  0.00  0.00    +0.000 A 
ATOM     16  C   UNL     1       2.345   5.601  17.588  0.00  0.00    +0.000 A 
ATOM     17  C   UNL     1       2.653   4.530  18.423  0.00  0.00    +0.000 A 
ATOM     18  C   UNL     1       2.658   4.807  19.821  0.00  0.00    +0.000 A 
ATOM     19  C   UNL     1       2.509   6.052  20.366  0.00  0.00    +0.000 A 
BRANCH  14  21
ATOM     20  C   UNL     1       1.434   9.371  19.058  0.00  0.00    +0.000 C 
ATOM     21  C   UNL     1       2.109   8.505  20.124  0.00  0.00    +0.000 C 
ATOM     22  C   UNL     1       1.258   8.484  21.407  0.00  0.00    +0.000 C 
ENDBRANCH  14  21
ENDBRANCH   1  17
BRANCH  13  23
ATOM     23  C   UNL     1       2.055   1.796  19.446  0.00  0.00    +0.000 C 
BRANCH  23  24
ATOM     24  C   UNL     1       0.717   2.093  18.743  0.00  0.00    +0.000 C 
BRANCH  24  25
ATOM     25  O   UNL     1      -0.159   2.805  19.660  0.00  0.00    +0.000 OA
ATOM     26  H   UNL     1      -0.129   2.371  20.533  0.00  0.00    +0.000 HD
ENDBRANCH  24  25
ENDBRANCH  23  24
ENDBRANCH  13  23
TORSDOF 5
ENDMDL
MODEL 9
REMARK VINA RESULT:      -6.5      2.322      5.013
REMARK  Name = 
REMARK  7 active torsions:
REMARK  status: ('A' for Active; 'I' for Inactive)
REMARK    1  A    between atoms: C_1  and  C_2
REMARK    2  A    between atoms: C_2  and  C_3
REMARK    3  A    between atoms: C_2  and  C_4
REMARK    4  A    between atoms: C_7  and  C_8
REMARK    5  A    between atoms: N_20  and  C_21
REMARK    6  A    between atoms: C_21  and  C_22
REMARK    7  A    between atoms: C_22  and  O_23
REMARK                            x       y       z     vdW  Elec       q    Type
REMARK                         _______ _______ _______ _____ _____    ______ ____
ROOT
ATOM      1  C   UNL     1       5.404   5.121  18.571  0.00  0.00    +0.000 C 
ATOM      2  C   UNL     1       5.206   3.637  18.753  0.00  0.00    +0.000 C 
ATOM      3  C   UNL     1       5.063   3.045  20.119  0.00  0.00    +0.000 C 
ATOM      4  C   UNL     1       3.717   3.181  20.717  0.00  0.00    +0.000 C 
ATOM      5  C   UNL     1       2.584   3.265  19.742  0.00  0.00    +0.000 A 
ATOM      6  C   UNL     1       1.349   3.254  20.442  0.00  0.00    +0.000 A 
ATOM      7  C   UNL     1       0.273   2.666  19.841  0.00  0.00    +0.000 A 
ATOM      8  C   UNL     1       0.438   2.182  18.532  0.00  0.00    +0.000 A 
ATOM      9  C   UNL     1       1.619   2.438  17.754  0.00  0.00    +0.000 A 
ATOM     10  C   UNL     1       2.744   3.039  18.330  0.00  0.00    +0.000 A 
ATOM     11  C   UNL     1       4.133   3.479  17.728  0.00  0.00    +0.000 C 
ATOM     12  N   UNL     1       4.614   4.072  16.599  0.00  0.00    +0.000 NA
ATOM     13  N   UNL     1       5.852   4.856  17.159  0.00  0.00    +0.000 N 
ENDROOT
BRANCH   1  17
ATOM     14  C   UNL     1       2.212   8.144  18.714  0.00  0.00    +0.000 A 
ATOM     15  C   UNL     1       2.969   7.944  17.542  0.00  0.00    +0.000 A 
ATOM     16  C   UNL     1       3.906   6.901  17.423  0.00  0.00    +0.000 A 
ATOM     17  C   UNL     1       4.147   6.066  18.511  0.00  0.00    +0.000 A 
ATOM     18  C   UNL     1       3.293   6.243  19.639  0.00  0.00    +0.000 A 
ATOM     19  C   UNL     1       2.365   7.240  19.760  0.00  0.00    +0.000 A 
BRANCH  14  21
ATOM     20  C   UNL     1       0.748   9.287  20.307  0.00  0.00    +0.000 C 
ATOM     21  C   UNL     1       1.152   9.215  18.832  0.00  0.00    +0.000 C 
ATOM     22  C   UNL     1       1.616  10.599  18.341  0.00  0.00    +0.000 C 
ENDBRANCH  14  21
ENDBRANCH   1  17
BRANCH  13  23
ATOM     23  C   UNL     1       6.583   6.143  16.798  0.00  0.00    +0.000 C 
BRANCH  23  24
ATOM     24  C   UNL     1       7.568   6.940  17.674  0.00  0.00    +0.000 C 
BRANCH  24  25
ATOM     25  O   UNL     1       7.660   8.303  17.173  0.00  0.00    +0.000 OA
ATOM     26  H   UNL     1       6.762   8.669  17.074  0.00  0.00    +0.000 HD
ENDBRANCH  24  25
ENDBRANCH  23  24
ENDBRANCH  13  23
TORSDOF 5
ENDMDL
