MODEL 1
REMARK VINA RESULT:      -7.2      0.000      0.000
REMARK  Name = 
REMARK  20 active torsions:
REMARK  status: ('A' for Active; 'I' for Inactive)
REMARK    1  A    between atoms: C_1  and  C_2
REMARK    2  A    between atoms: C_2  and  C_3
REMARK    3  A    between atoms: C_7  and  C_8
REMARK    4  A    between atoms: C_8  and  N_9
REMARK    5  A    between atoms: N_9  and  C_10
REMARK    6  A    between atoms: C_10  and  C_11
REMARK    7  A    between atoms: C_11  and  C_12
REMARK    8  A    between atoms: C_12  and  N_13
REMARK    9  A    between atoms: N_13  and  C_14
REMARK   10  A    between atoms: C_14  and  C_15
REMARK   11  A    between atoms: C_15  and  C_16
REMARK   12  A    between atoms: C_16  and  N_17
REMARK   13  A    between atoms: N_17  and  C_18
REMARK   14  A    between atoms: C_18  and  C_19
REMARK   15  A    between atoms: C_19  and  C_20
REMARK   16  A    between atoms: C_20  and  N_21
REMARK   17  A    between atoms: N_21  and  C_22
REMARK   18  A    between atoms: C_22  and  C_23
REMARK   19  A    between atoms: C_30  and  C_31
REMARK   20  A    between atoms: C_30  and  C_32
REMARK                            x       y       z     vdW  Elec       q    Type
REMARK                         _______ _______ _______ _____ _____    ______ ____
ROOT
ATOM      1  C   UNL     1       2.159  13.224  18.577  0.00  0.00    +0.000 C 
ENDROOT
BRANCH   1   2
ATOM      2  C   UNL     1       3.115  14.422  18.784  0.00  0.00    +0.000 C 
BRANCH   2   3
ATOM      3  N   UNL     1       3.836  14.780  17.549  0.00  0.00    +0.000 NA
ATOM      4  H   UNL     1       3.475  15.660  17.183  0.00  0.00    +0.000 HD
BRANCH   3   5
ATOM      5  C   UNL     1       5.282  14.889  17.752  0.00  0.00    +0.000 C 
BRANCH   5   6
ATOM      6  C   UNL     1       5.545  16.114  18.634  0.00  0.00    +0.000 C 
BRANCH   6   7
ATOM      7  C   UNL     1       6.947  16.140  19.231  0.00  0.00    +0.000 C 
BRANCH   7   8
ATOM      8  N   UNL     1       7.702  14.995  18.716  0.00  0.00    +0.000 NA
ATOM      9  H   UNL     1       7.293  14.632  17.857  0.00  0.00    +0.000 HD
BRANCH   8  10
ATOM     10  C   UNL     1       9.092  15.361  18.450  0.00  0.00    +0.000 C 
BRANCH  10  11
ATOM     11  C   UNL     1      10.127  14.234  18.662  0.00  0.00    +0.000 C 
ATOM     12  C   UNL     1      11.055  14.454  19.851  0.00  0.00    +0.000 C 
ATOM     13  C   UNL     1      12.067  13.309  19.941  0.00  0.00    +0.000 C 
ATOM     14  C   UNL     1      11.490  11.887  19.675  0.00  0.00    +0.000 C 
ATOM     15  C   UNL     1      11.700  11.515  18.188  0.00  0.00    +0.000 C 
ATOM     16  C   UNL     1      10.466  12.081  17.455  0.00  0.00    +0.000 C 
ATOM     17  C   UNL     1       9.598  12.750  18.578  0.00  0.00    +0.000 C 
ATOM     18  C   UNL     1       9.946  11.799  19.788  0.00  0.00    +0.000 C 
ATOM     19  C   UNL     1       9.398  12.102  21.189  0.00  0.00    +0.000 C 
ATOM     20  C   UNL     1       9.451  10.333  19.545  0.00  0.00    +0.000 C 
ENDBRANCH  10  11
ENDBRANCH   8  10
ENDBRANCH   7   8
ENDBRANCH   6   7
ENDBRANCH   5   6
ENDBRANCH   3   5
ENDBRANCH   2   3
ENDBRANCH   1   2
BRANCH   1  21
ATOM     21  C   UNL     1       1.317  12.942  19.843  0.00  0.00    +0.000 C 
BRANCH  21  22
ATOM     22  N   UNL     1       0.344  11.848  19.660  0.00  0.00    +0.000 NA
ATOM     23  H   UNL     1      -0.605  12.217  19.666  0.00  0.00    +0.000 HD
BRANCH  22  24
ATOM     24  C   UNL     1       0.499  10.805  20.696  0.00  0.00    +0.000 C 
BRANCH  24  25
ATOM     25  C   UNL     1       0.851   9.434  20.096  0.00  0.00    +0.000 C 
BRANCH  25  26
ATOM     26  C   UNL     1       1.705   9.485  18.803  0.00  0.00    +0.000 C 
BRANCH  26  27
ATOM     27  N   UNL     1       1.993   8.193  18.116  0.00  0.00    +0.000 NA
ATOM     28  H   UNL     1       1.123   7.820  17.735  0.00  0.00    +0.000 HD
BRANCH  27  29
ATOM     29  C   UNL     1       2.528   7.232  19.093  0.00  0.00    +0.000 C 
BRANCH  29  36
ATOM     30  C   UNL     1       0.711   2.370  18.889  0.00  0.00    +0.000 C 
ATOM     31  C   UNL     1       2.018   3.212  18.705  0.00  0.00    +0.000 C 
ATOM     32  C   UNL     1       2.559   2.806  17.315  0.00  0.00    +0.000 C 
ATOM     33  C   UNL     1       3.118   2.954  19.760  0.00  0.00    +0.000 C 
ATOM     34  C   UNL     1       4.380   3.822  19.456  0.00  0.00    +0.000 C 
ATOM     35  C   UNL     1       4.139   5.324  19.225  0.00  0.00    +0.000 C 
ATOM     36  C   UNL     1       2.757   5.734  18.659  0.00  0.00    +0.000 C 
ATOM     37  C   UNL     1       1.690   4.711  19.105  0.00  0.00    +0.000 C 
ATOM     38  C   UNL     1       1.660   4.648  20.666  0.00  0.00    +0.000 C 
ATOM     39  C   UNL     1       2.433   3.384  21.052  0.00  0.00    +0.000 C 
ENDBRANCH  29  36
ENDBRANCH  27  29
ENDBRANCH  26  27
ENDBRANCH  25  26
ENDBRANCH  24  25
ENDBRANCH  22  24
ENDBRANCH  21  22
ENDBRANCH   1  21
TORSDOF 16
ENDMDL
MODEL 2
REMARK VINA RESULT:      -7.0      3.435     11.807
REMARK  Name = 
REMARK  20 active torsions:
REMARK  status: ('A' for Active; 'I' for Inactive)
REMARK    1  A    between atoms: C_1  and  C_2
REMARK    2  A    between atoms: C_2  and  C_3
REMARK    3  A    between atoms: C_7  and  C_8
REMARK    4  A    between atoms: C_8  and  N_9
REMARK    5  A    between atoms: N_9  and  C_10
REMARK    6  A    between atoms: C_10  and  C_11
REMARK    7  A    between atoms: C_11  and  C_12
REMARK    8  A    between atoms: C_12  and  N_13
REMARK    9  A    between atoms: N_13  and  C_14
REMARK   10  A    between atoms: C_14  and  C_15
REMARK   11  A    between atoms: C_15  and  C_16
REMARK   12  A    between atoms: C_16  and  N_17
REMARK   13  A    between atoms: N_17  and  C_18
REMARK   14  A    between atoms: C_18  and  C_19
REMARK   15  A    between atoms: C_19  and  C_20
REMARK   16  A    between atoms: C_20  and  N_21
REMARK   17  A    between atoms: N_21  and  C_22
REMARK   18  A    between atoms: C_22  and  C_23
REMARK   19  A    between atoms: C_30  and  C_31
REMARK   20  A    between atoms: C_30  and  C_32
REMARK                            x       y       z     vdW  Elec       q    Type
REMARK                         _______ _______ _______ _____ _____    ______ ____
ROOT
ATOM      1  C   UNL     1       7.963   9.473  17.948  0.00  0.00    +0.000 C 
ENDROOT
BRANCH   1   2
ATOM      2  C   UNL     1       8.690   8.341  18.711  0.00  0.00    +0.000 C 
BRANCH   2   3
ATOM      3  N   UNL     1       8.051   7.029  18.503  0.00  0.00    +0.000 NA
ATOM      4  H   UNL     1       7.689   6.678  19.389  0.00  0.00    +0.000 HD
BRANCH   3   5
ATOM      5  C   UNL     1       6.970   7.078  17.516  0.00  0.00    +0.000 C 
BRANCH   5   6
ATOM      6  C   UNL     1       7.151   5.896  16.557  0.00  0.00    +0.000 C 
BRANCH   6   7
ATOM      7  C   UNL     1       7.543   4.602  17.260  0.00  0.00    +0.000 C 
BRANCH   7   8
ATOM      8  N   UNL     1       6.724   4.452  18.465  0.00  0.00    +0.000 NA
ATOM      9  H   UNL     1       6.534   5.350  18.904  0.00  0.00    +0.000 HD
BRANCH   8  10
ATOM     10  C   UNL     1       5.449   3.807  18.155  0.00  0.00    +0.000 C 
BRANCH  10  11
ATOM     11  C   UNL     1       4.278   4.166  19.098  0.00  0.00    +0.000 C 
ATOM     12  C   UNL     1       3.780   5.598  18.956  0.00  0.00    +0.000 C 
ATOM     13  C   UNL     1       2.658   5.861  19.964  0.00  0.00    +0.000 C 
ATOM     14  C   UNL     1       1.627   4.706  20.131  0.00  0.00    +0.000 C 
ATOM     15  C   UNL     1       2.040   3.814  21.325  0.00  0.00    +0.000 C 
ATOM     16  C   UNL     1       3.011   2.773  20.729  0.00  0.00    +0.000 C 
ATOM     17  C   UNL     1       3.098   3.124  19.202  0.00  0.00    +0.000 C 
ATOM     18  C   UNL     1       1.638   3.676  18.972  0.00  0.00    +0.000 C 
ATOM     19  C   UNL     1       1.240   4.257  17.608  0.00  0.00    +0.000 C 
ATOM     20  C   UNL     1       0.550   2.572  19.195  0.00  0.00    +0.000 C 
ENDBRANCH  10  11
ENDBRANCH   8  10
ENDBRANCH   7   8
ENDBRANCH   6   7
ENDBRANCH   5   6
ENDBRANCH   3   5
ENDBRANCH   2   3
ENDBRANCH   1   2
BRANCH   1  21
ATOM     21  C   UNL     1       8.754  10.800  18.010  0.00  0.00    +0.000 C 
BRANCH  21  22
ATOM     22  N   UNL     1      10.153  10.622  18.441  0.00  0.00    +0.000 NA
ATOM     23  H   UNL     1      10.325   9.648  18.685  0.00  0.00    +0.000 HD
BRANCH  22  24
ATOM     24  C   UNL     1      10.489  11.505  19.577  0.00  0.00    +0.000 C 
BRANCH  24  25
ATOM     25  C   UNL     1      11.943  12.000  19.523  0.00  0.00    +0.000 C 
BRANCH  25  26
ATOM     26  C   UNL     1      12.250  13.007  18.384  0.00  0.00    +0.000 C 
BRANCH  26  27
ATOM     27  N   UNL     1      11.091  13.626  17.681  0.00  0.00    +0.000 NA
ATOM     28  H   UNL     1      11.223  13.525  16.674  0.00  0.00    +0.000 HD
BRANCH  27  29
ATOM     29  C   UNL     1      11.036  15.061  18.004  0.00  0.00    +0.000 C 
BRANCH  29  36
ATOM     30  C   UNL     1       9.305  17.459  22.274  0.00  0.00    +0.000 C 
ATOM     31  C   UNL     1       8.820  16.632  21.036  0.00  0.00    +0.000 C 
ATOM     32  C   UNL     1       7.701  17.488  20.400  0.00  0.00    +0.000 C 
ATOM     33  C   UNL     1       8.249  15.234  21.364  0.00  0.00    +0.000 C 
ATOM     34  C   UNL     1       7.770  14.519  20.061  0.00  0.00    +0.000 C 
ATOM     35  C   UNL     1       8.774  14.476  18.896  0.00  0.00    +0.000 C 
ATOM     36  C   UNL     1       9.810  15.624  18.819  0.00  0.00    +0.000 C 
ATOM     37  C   UNL     1      10.105  16.152  20.240  0.00  0.00    +0.000 C 
ATOM     38  C   UNL     1      10.635  14.977  21.124  0.00  0.00    +0.000 C 
ATOM     39  C   UNL     1       9.450  14.531  21.987  0.00  0.00    +0.000 C 
ENDBRANCH  29  36
ENDBRANCH  27  29
ENDBRANCH  26  27
ENDBRANCH  25  26
ENDBRANCH  24  25
ENDBRANCH  22  24
ENDBRANCH  21  22
ENDBRANCH   1  21
TORSDOF 16
ENDMDL
MODEL 3
REMARK VINA RESULT:      -7.0      5.545      9.948
REMARK  Name = 
REMARK  20 active torsions:
REMARK  status: ('A' for Active; 'I' for Inactive)
REMARK    1  A    between atoms: C_1  and  C_2
REMARK    2  A    between atoms: C_2  and  C_3
REMARK    3  A    between atoms: C_7  and  C_8
REMARK    4  A    between atoms: C_8  and  N_9
REMARK    5  A    between atoms: N_9  and  C_10
REMARK    6  A    between atoms: C_10  and  C_11
REMARK    7  A    between atoms: C_11  and  C_12
REMARK    8  A    between atoms: C_12  and  N_13
REMARK    9  A    between atoms: N_13  and  C_14
REMARK   10  A    between atoms: C_14  and  C_15
REMARK   11  A    between atoms: C_15  and  C_16
REMARK   12  A    between atoms: C_16  and  N_17
REMARK   13  A    between atoms: N_17  and  C_18
REMARK   14  A    between atoms: C_18  and  C_19
REMARK   15  A    between atoms: C_19  and  C_20
REMARK   16  A    between atoms: C_20  and  N_21
REMARK   17  A    between atoms: N_21  and  C_22
REMARK   18  A    between atoms: C_22  and  C_23
REMARK   19  A    between atoms: C_30  and  C_31
REMARK   20  A    between atoms: C_30  and  C_32
REMARK                            x       y       z     vdW  Elec       q    Type
REMARK                         _______ _______ _______ _____ _____    ______ ____
ROOT
ATOM      1  C   UNL     1      -2.698  10.960  16.375  0.00  0.00    +0.000 C 
ENDROOT
BRANCH   1   2
ATOM      2  C   UNL     1      -2.245   9.991  17.492  0.00  0.00    +0.000 C 
BRANCH   2   3
ATOM      3  N   UNL     1      -0.780   9.954  17.638  0.00  0.00    +0.000 NA
ATOM      4  H   UNL     1      -0.360  10.698  17.082  0.00  0.00    +0.000 HD
BRANCH   3   5
ATOM      5  C   UNL     1      -0.348  10.079  19.032  0.00  0.00    +0.000 C 
BRANCH   5   6
ATOM      6  C   UNL     1       1.064   9.494  19.144  0.00  0.00    +0.000 C 
BRANCH   6   7
ATOM      7  C   UNL     1       1.381   8.939  20.528  0.00  0.00    +0.000 C 
BRANCH   7   8
ATOM      8  N   UNL     1       1.811   7.545  20.392  0.00  0.00    +0.000 NA
ATOM      9  H   UNL     1       1.023   6.903  20.444  0.00  0.00    +0.000 HD
BRANCH   8  10
ATOM     10  C   UNL     1       2.501   7.332  19.121  0.00  0.00    +0.000 C 
BRANCH  10  11
ATOM     11  C   UNL     1       2.907   5.871  18.823  0.00  0.00    +0.000 C 
ATOM     12  C   UNL     1       4.173   5.417  19.539  0.00  0.00    +0.000 C 
ATOM     13  C   UNL     1       4.510   3.978  19.138  0.00  0.00    +0.000 C 
ATOM     14  C   UNL     1       3.294   3.010  19.046  0.00  0.00    +0.000 C 
ATOM     15  C   UNL     1       2.793   2.947  17.585  0.00  0.00    +0.000 C 
ATOM     16  C   UNL     1       1.789   4.113  17.456  0.00  0.00    +0.000 C 
ATOM     17  C   UNL     1       1.763   4.785  18.874  0.00  0.00    +0.000 C 
ATOM     18  C   UNL     1       2.024   3.518  19.776  0.00  0.00    +0.000 C 
ATOM     19  C   UNL     1       2.187   3.672  21.294  0.00  0.00    +0.000 C 
ATOM     20  C   UNL     1       0.863   2.472  19.669  0.00  0.00    +0.000 C 
ENDBRANCH  10  11
ENDBRANCH   8  10
ENDBRANCH   7   8
ENDBRANCH   6   7
ENDBRANCH   5   6
ENDBRANCH   3   5
ENDBRANCH   2   3
ENDBRANCH   1   2
BRANCH   1  21
ATOM     21  C   UNL     1      -4.208  11.279  16.475  0.00  0.00    +0.000 C 
BRANCH  21  22
ATOM     22  N   UNL     1      -4.714  11.260  17.860  0.00  0.00    +0.000 NA
ATOM     23  H   UNL     1      -4.984  10.313  18.124  0.00  0.00    +0.000 HD
BRANCH  22  24
ATOM     24  C   UNL     1      -5.850  12.188  18.037  0.00  0.00    +0.000 C 
BRANCH  24  25
ATOM     25  C   UNL     1      -5.798  12.925  19.385  0.00  0.00    +0.000 C 
BRANCH  25  26
ATOM     26  C   UNL     1      -4.536  12.639  20.239  0.00  0.00    +0.000 C 
BRANCH  26  27
ATOM     27  N   UNL     1      -3.218  13.060  19.684  0.00  0.00    +0.000 NA
ATOM     28  H   UNL     1      -3.041  12.542  18.823  0.00  0.00    +0.000 HD
BRANCH  27  29
ATOM     29  C   UNL     1      -2.157  12.737  20.652  0.00  0.00    +0.000 C 
BRANCH  29  36
ATOM     30  C   UNL     1       0.792  16.481  18.588  0.00  0.00    +0.000 C 
ATOM     31  C   UNL     1       0.748  15.446  19.761  0.00  0.00    +0.000 C 
ATOM     32  C   UNL     1       1.014  16.279  21.036  0.00  0.00    +0.000 C 
ATOM     33  C   UNL     1       1.799  14.316  19.679  0.00  0.00    +0.000 C 
ATOM     34  C   UNL     1       1.679  13.368  20.915  0.00  0.00    +0.000 C 
ATOM     35  C   UNL     1       0.274  12.829  21.231  0.00  0.00    +0.000 C 
ATOM     36  C   UNL     1      -0.927  13.711  20.806  0.00  0.00    +0.000 C 
ATOM     37  C   UNL     1      -0.543  14.546  19.566  0.00  0.00    +0.000 C 
ATOM     38  C   UNL     1      -0.117  13.584  18.410  0.00  0.00    +0.000 C 
ATOM     39  C   UNL     1       1.414  13.609  18.384  0.00  0.00    +0.000 C 
ENDBRANCH  29  36
ENDBRANCH  27  29
ENDBRANCH  26  27
ENDBRANCH  25  26
ENDBRANCH  24  25
ENDBRANCH  22  24
ENDBRANCH  21  22
ENDBRANCH   1  21
TORSDOF 16
ENDMDL
MODEL 4
REMARK VINA RESULT:      -6.9      6.197     11.066
REMARK  Name = 
REMARK  20 active torsions:
REMARK  status: ('A' for Active; 'I' for Inactive)
REMARK    1  A    between atoms: C_1  and  C_2
REMARK    2  A    between atoms: C_2  and  C_3
REMARK    3  A    between atoms: C_7  and  C_8
REMARK    4  A    between atoms: C_8  and  N_9
REMARK    5  A    between atoms: N_9  and  C_10
REMARK    6  A    between atoms: C_10  and  C_11
REMARK    7  A    between atoms: C_11  and  C_12
REMARK    8  A    between atoms: C_12  and  N_13
REMARK    9  A    between atoms: N_13  and  C_14
REMARK   10  A    between atoms: C_14  and  C_15
REMARK   11  A    between atoms: C_15  and  C_16
REMARK   12  A    between atoms: C_16  and  N_17
REMARK   13  A    between atoms: N_17  and  C_18
REMARK   14  A    between atoms: C_18  and  C_19
REMARK   15  A    between atoms: C_19  and  C_20
REMARK   16  A    between atoms: C_20  and  N_21
REMARK   17  A    between atoms: N_21  and  C_22
REMARK   18  A    between atoms: C_22  and  C_23
REMARK   19  A    between atoms: C_30  and  C_31
REMARK   20  A    between atoms: C_30  and  C_32
REMARK                            x       y       z     vdW  Elec       q    Type
REMARK                         _______ _______ _______ _____ _____    ______ ____
ROOT
ATOM      1  C   UNL     1      -2.588   9.712  17.032  0.00  0.00    +0.000 C 
ENDROOT
BRANCH   1   2
ATOM      2  C   UNL     1      -3.258  10.637  15.988  0.00  0.00    +0.000 C 
BRANCH   2   3
ATOM      3  N   UNL     1      -4.669  10.912  16.312  0.00  0.00    +0.000 NA
ATOM      4  H   UNL     1      -5.096  10.083  16.723  0.00  0.00    +0.000 HD
BRANCH   3   5
ATOM      5  C   UNL     1      -4.828  12.049  17.221  0.00  0.00    +0.000 C 
BRANCH   5   6
ATOM      6  C   UNL     1      -5.514  11.543  18.495  0.00  0.00    +0.000 C 
BRANCH   6   7
ATOM      7  C   UNL     1      -6.982  11.943  18.591  0.00  0.00    +0.000 C 
BRANCH   7   8
ATOM      8  N   UNL     1      -7.633  11.110  19.604  0.00  0.00    +0.000 NA
ATOM      9  H   UNL     1      -7.746  10.150  19.285  0.00  0.00    +0.000 HD
BRANCH   8  10
ATOM     10  C   UNL     1      -6.863  11.098  20.847  0.00  0.00    +0.000 C 
BRANCH  10  11
ATOM     11  C   UNL     1      -6.908  12.407  21.667  0.00  0.00    +0.000 C 
ATOM     12  C   UNL     1      -7.885  12.377  22.836  0.00  0.00    +0.000 C 
ATOM     13  C   UNL     1      -7.887  13.733  23.548  0.00  0.00    +0.000 C 
ATOM     14  C   UNL     1      -6.487  14.387  23.738  0.00  0.00    +0.000 C 
ATOM     15  C   UNL     1      -6.215  15.371  22.576  0.00  0.00    +0.000 C 
ATOM     16  C   UNL     1      -5.587  14.509  21.460  0.00  0.00    +0.000 C 
ATOM     17  C   UNL     1      -5.525  13.059  22.054  0.00  0.00    +0.000 C 
ATOM     18  C   UNL     1      -5.301  13.402  23.578  0.00  0.00    +0.000 C 
ATOM     19  C   UNL     1      -5.266  12.280  24.624  0.00  0.00    +0.000 C 
ATOM     20  C   UNL     1      -3.935  14.129  23.821  0.00  0.00    +0.000 C 
ENDBRANCH  10  11
ENDBRANCH   8  10
ENDBRANCH   7   8
ENDBRANCH   6   7
ENDBRANCH   5   6
ENDBRANCH   3   5
ENDBRANCH   2   3
ENDBRANCH   1   2
BRANCH   1  21
ATOM     21  C   UNL     1      -1.793  10.521  18.083  0.00  0.00    +0.000 C 
BRANCH  21  22
ATOM     22  N   UNL     1      -0.346  10.572  17.802  0.00  0.00    +0.000 NA
ATOM     23  H   UNL     1      -0.182  10.567  16.796  0.00  0.00    +0.000 HD
BRANCH  22  24
ATOM     24  C   UNL     1       0.373   9.453  18.447  0.00  0.00    +0.000 C 
BRANCH  24  25
ATOM     25  C   UNL     1       1.439   8.836  17.528  0.00  0.00    +0.000 C 
BRANCH  25  26
ATOM     26  C   UNL     1       2.626   8.161  18.264  0.00  0.00    +0.000 C 
BRANCH  26  27
ATOM     27  N   UNL     1       3.631   7.438  17.433  0.00  0.00    +0.000 NA
ATOM     28  H   UNL     1       3.199   7.175  16.547  0.00  0.00    +0.000 HD
BRANCH  27  29
ATOM     29  C   UNL     1       4.049   6.212  18.132  0.00  0.00    +0.000 C 
BRANCH  29  36
ATOM     30  C   UNL     1       2.124   2.875  21.616  0.00  0.00    +0.000 C 
ATOM     31  C   UNL     1       2.067   3.248  20.097  0.00  0.00    +0.000 C 
ATOM     32  C   UNL     1       0.561   3.408  19.783  0.00  0.00    +0.000 C 
ATOM     33  C   UNL     1       2.663   2.193  19.139  0.00  0.00    +0.000 C 
ATOM     34  C   UNL     1       2.522   2.659  17.655  0.00  0.00    +0.000 C 
ATOM     35  C   UNL     1       3.018   4.079  17.333  0.00  0.00    +0.000 C 
ATOM     36  C   UNL     1       2.972   5.115  18.483  0.00  0.00    +0.000 C 
ATOM     37  C   UNL     1       3.134   4.393  19.838  0.00  0.00    +0.000 C 
ATOM     38  C   UNL     1       4.485   3.607  19.844  0.00  0.00    +0.000 C 
ATOM     39  C   UNL     1       4.122   2.143  19.580  0.00  0.00    +0.000 C 
ENDBRANCH  29  36
ENDBRANCH  27  29
ENDBRANCH  26  27
ENDBRANCH  25  26
ENDBRANCH  24  25
ENDBRANCH  22  24
ENDBRANCH  21  22
ENDBRANCH   1  21
TORSDOF 16
ENDMDL
MODEL 5
REMARK VINA RESULT:      -6.8      2.954      5.485
REMARK  Name = 
REMARK  20 active torsions:
REMARK  status: ('A' for Active; 'I' for Inactive)
REMARK    1  A    between atoms: C_1  and  C_2
REMARK    2  A    between atoms: C_2  and  C_3
REMARK    3  A    between atoms: C_7  and  C_8
REMARK    4  A    between atoms: C_8  and  N_9
REMARK    5  A    between atoms: N_9  and  C_10
REMARK    6  A    between atoms: C_10  and  C_11
REMARK    7  A    between atoms: C_11  and  C_12
REMARK    8  A    between atoms: C_12  and  N_13
REMARK    9  A    between atoms: N_13  and  C_14
REMARK   10  A    between atoms: C_14  and  C_15
REMARK   11  A    between atoms: C_15  and  C_16
REMARK   12  A    between atoms: C_16  and  N_17
REMARK   13  A    between atoms: N_17  and  C_18
REMARK   14  A    between atoms: C_18  and  C_19
REMARK   15  A    between atoms: C_19  and  C_20
REMARK   16  A    between atoms: C_20  and  N_21
REMARK   17  A    between atoms: N_21  and  C_22
REMARK   18  A    between atoms: C_22  and  C_23
REMARK   19  A    between atoms: C_30  and  C_31
REMARK   20  A    between atoms: C_30  and  C_32
REMARK                            x       y       z     vdW  Elec       q    Type
REMARK                         _______ _______ _______ _____ _____    ______ ____
ROOT
ATOM      1  C   UNL     1       7.624   4.600  17.058  0.00  0.00    +0.000 C 
ENDROOT
BRANCH   1   2
ATOM      2  C   UNL     1       7.185   4.724  18.536  0.00  0.00    +0.000 C 
BRANCH   2   3
ATOM      3  N   UNL     1       7.457   6.063  19.088  0.00  0.00    +0.000 NA
ATOM      4  H   UNL     1       8.216   6.007  19.766  0.00  0.00    +0.000 HD
BRANCH   3   5
ATOM      5  C   UNL     1       7.795   7.042  18.052  0.00  0.00    +0.000 C 
BRANCH   5   6
ATOM      6  C   UNL     1       8.563   8.189  18.719  0.00  0.00    +0.000 C 
BRANCH   6   7
ATOM      7  C   UNL     1       8.465   9.505  17.956  0.00  0.00    +0.000 C 
BRANCH   7   8
ATOM      8  N   UNL     1       8.905  10.593  18.833  0.00  0.00    +0.000 NA
ATOM      9  H   UNL     1       8.946  10.298  19.805  0.00  0.00    +0.000 HD
BRANCH   8  10
ATOM     10  C   UNL     1      10.225  11.082  18.438  0.00  0.00    +0.000 C 
BRANCH  10  11
ATOM     11  C   UNL     1      10.451  12.600  18.617  0.00  0.00    +0.000 C 
ATOM     12  C   UNL     1      10.583  13.369  17.308  0.00  0.00    +0.000 C 
ATOM     13  C   UNL     1      10.851  14.848  17.598  0.00  0.00    +0.000 C 
ATOM     14  C   UNL     1      10.021  15.460  18.763  0.00  0.00    +0.000 C 
ATOM     15  C   UNL     1      10.843  15.397  20.072  0.00  0.00    +0.000 C 
ATOM     16  C   UNL     1      10.535  14.007  20.670  0.00  0.00    +0.000 C 
ATOM     17  C   UNL     1       9.533  13.343  19.662  0.00  0.00    +0.000 C 
ATOM     18  C   UNL     1       8.772  14.629  19.155  0.00  0.00    +0.000 C 
ATOM     19  C   UNL     1       7.717  14.513  18.047  0.00  0.00    +0.000 C 
ATOM     20  C   UNL     1       7.973  15.330  20.305  0.00  0.00    +0.000 C 
ENDBRANCH  10  11
ENDBRANCH   8  10
ENDBRANCH   7   8
ENDBRANCH   6   7
ENDBRANCH   5   6
ENDBRANCH   3   5
ENDBRANCH   2   3
ENDBRANCH   1   2
BRANCH   1  21
ATOM     21  C   UNL     1       6.472   4.086  16.163  0.00  0.00    +0.000 C 
BRANCH  21  22
ATOM     22  N   UNL     1       5.151   4.609  16.561  0.00  0.00    +0.000 NA
ATOM     23  H   UNL     1       4.465   3.856  16.578  0.00  0.00    +0.000 HD
BRANCH  22  24
ATOM     24  C   UNL     1       4.703   5.695  15.664  0.00  0.00    +0.000 C 
BRANCH  24  25
ATOM     25  C   UNL     1       4.981   7.088  16.249  0.00  0.00    +0.000 C 
BRANCH  25  26
ATOM     26  C   UNL     1       4.053   7.503  17.421  0.00  0.00    +0.000 C 
BRANCH  26  27
ATOM     27  N   UNL     1       2.845   6.666  17.673  0.00  0.00    +0.000 NA
ATOM     28  H   UNL     1       2.020   7.169  17.346  0.00  0.00    +0.000 HD
BRANCH  27  29
ATOM     29  C   UNL     1       2.709   6.433  19.120  0.00  0.00    +0.000 C 
BRANCH  29  36
ATOM     30  C   UNL     1       3.472   1.371  18.243  0.00  0.00    +0.000 C 
ATOM     31  C   UNL     1       3.210   2.402  19.391  0.00  0.00    +0.000 C 
ATOM     32  C   UNL     1       4.332   2.141  20.423  0.00  0.00    +0.000 C 
ATOM     33  C   UNL     1       1.844   2.264  20.100  0.00  0.00    +0.000 C 
ATOM     34  C   UNL     1       1.711   3.321  21.242  0.00  0.00    +0.000 C 
ATOM     35  C   UNL     1       2.022   4.779  20.865  0.00  0.00    +0.000 C 
ATOM     36  C   UNL     1       3.026   5.005  19.708  0.00  0.00    +0.000 C 
ATOM     37  C   UNL     1       2.958   3.818  18.723  0.00  0.00    +0.000 C 
ATOM     38  C   UNL     1       1.498   3.684  18.181  0.00  0.00    +0.000 C 
ATOM     39  C   UNL     1       0.862   2.532  18.964  0.00  0.00    +0.000 C 
ENDBRANCH  29  36
ENDBRANCH  27  29
ENDBRANCH  26  27
ENDBRANCH  25  26
ENDBRANCH  24  25
ENDBRANCH  22  24
ENDBRANCH  21  22
ENDBRANCH   1  21
TORSDOF 16
ENDMDL
MODEL 6
REMARK VINA RESULT:      -6.8      3.745      6.210
REMARK  Name = 
REMARK  20 active torsions:
REMARK  status: ('A' for Active; 'I' for Inactive)
REMARK    1  A    between atoms: C_1  and  C_2
REMARK    2  A    between atoms: C_2  and  C_3
REMARK    3  A    between atoms: C_7  and  C_8
REMARK    4  A    between atoms: C_8  and  N_9
REMARK    5  A    between atoms: N_9  and  C_10
REMARK    6  A    between atoms: C_10  and  C_11
REMARK    7  A    between atoms: C_11  and  C_12
REMARK    8  A    between atoms: C_12  and  N_13
REMARK    9  A    between atoms: N_13  and  C_14
REMARK   10  A    between atoms: C_14  and  C_15
REMARK   11  A    between atoms: C_15  and  C_16
REMARK   12  A    between atoms: C_16  and  N_17
REMARK   13  A    between atoms: N_17  and  C_18
REMARK   14  A    between atoms: C_18  and  C_19
REMARK   15  A    between atoms: C_19  and  C_20
REMARK   16  A    between atoms: C_20  and  N_21
REMARK   17  A    between atoms: N_21  and  C_22
REMARK   18  A    between atoms: C_22  and  C_23
REMARK   19  A    between atoms: C_30  and  C_31
REMARK   20  A    between atoms: C_30  and  C_32
REMARK                            x       y       z     vdW  Elec       q    Type
REMARK                         _______ _______ _______ _____ _____    ______ ____
ROOT
ATOM      1  C   UNL     1       7.772   9.236  17.913  0.00  0.00    +0.000 C 
ENDROOT
BRANCH   1   2
ATOM      2  C   UNL     1       8.763  10.008  18.815  0.00  0.00    +0.000 C 
BRANCH   2   3
ATOM      3  N   UNL     1       9.777  10.737  18.032  0.00  0.00    +0.000 NA
ATOM      4  H   UNL     1       9.434  10.893  17.085  0.00  0.00    +0.000 HD
BRANCH   3   5
ATOM      5  C   UNL     1      10.146  12.017  18.639  0.00  0.00    +0.000 C 
BRANCH   5   6
ATOM      6  C   UNL     1      10.822  11.727  19.983  0.00  0.00    +0.000 C 
BRANCH   6   7
ATOM      7  C   UNL     1      10.400  12.684  21.092  0.00  0.00    +0.000 C 
BRANCH   7   8
ATOM      8  N   UNL     1       8.938  12.690  21.180  0.00  0.00    +0.000 NA
ATOM      9  H   UNL     1       8.510  12.313  20.338  0.00  0.00    +0.000 HD
BRANCH   8  10
ATOM     10  C   UNL     1       8.480  11.904  22.325  0.00  0.00    +0.000 C 
BRANCH  10  11
ATOM     11  C   UNL     1       7.783  12.710  23.446  0.00  0.00    +0.000 C 
ATOM     12  C   UNL     1       6.357  13.130  23.117  0.00  0.00    +0.000 C 
ATOM     13  C   UNL     1       5.780  13.960  24.268  0.00  0.00    +0.000 C 
ATOM     14  C   UNL     1       6.113  13.439  25.696  0.00  0.00    +0.000 C 
ATOM     15  C   UNL     1       7.364  14.172  26.235  0.00  0.00    +0.000 C 
ATOM     16  C   UNL     1       8.563  13.345  25.725  0.00  0.00    +0.000 C 
ATOM     17  C   UNL     1       7.926  12.160  24.918  0.00  0.00    +0.000 C 
ATOM     18  C   UNL     1       6.592  11.965  25.737  0.00  0.00    +0.000 C 
ATOM     19  C   UNL     1       5.543  10.947  25.270  0.00  0.00    +0.000 C 
ATOM     20  C   UNL     1       6.869  11.508  27.209  0.00  0.00    +0.000 C 
ENDBRANCH  10  11
ENDBRANCH   8  10
ENDBRANCH   7   8
ENDBRANCH   6   7
ENDBRANCH   5   6
ENDBRANCH   3   5
ENDBRANCH   2   3
ENDBRANCH   1   2
BRANCH   1  21
ATOM     21  C   UNL     1       8.045   7.714  17.939  0.00  0.00    +0.000 C 
BRANCH  21  22
ATOM     22  N   UNL     1       7.850   7.067  16.628  0.00  0.00    +0.000 NA
ATOM     23  H   UNL     1       7.253   7.643  16.037  0.00  0.00    +0.000 HD
BRANCH  22  24
ATOM     24  C   UNL     1       7.281   5.710  16.771  0.00  0.00    +0.000 C 
BRANCH  24  25
ATOM     25  C   UNL     1       6.063   5.489  15.859  0.00  0.00    +0.000 C 
BRANCH  25  26
ATOM     26  C   UNL     1       5.691   4.004  15.614  0.00  0.00    +0.000 C 
BRANCH  26  27
ATOM     27  N   UNL     1       5.260   3.198  16.792  0.00  0.00    +0.000 NA
ATOM     28  H   UNL     1       4.306   2.871  16.638  0.00  0.00    +0.000 HD
BRANCH  27  29
ATOM     29  C   UNL     1       5.276   4.046  17.995  0.00  0.00    +0.000 C 
BRANCH  29  36
ATOM     30  C   UNL     1       1.744   2.974  21.649  0.00  0.00    +0.000 C 
ATOM     31  C   UNL     1       1.971   3.837  20.363  0.00  0.00    +0.000 C 
ATOM     32  C   UNL     1       1.608   5.280  20.784  0.00  0.00    +0.000 C 
ATOM     33  C   UNL     1       1.105   3.442  19.146  0.00  0.00    +0.000 C 
ATOM     34  C   UNL     1       1.394   4.389  17.939  0.00  0.00    +0.000 C 
ATOM     35  C   UNL     1       2.872   4.582  17.558  0.00  0.00    +0.000 C 
ATOM     36  C   UNL     1       3.914   4.425  18.693  0.00  0.00    +0.000 C 
ATOM     37  C   UNL     1       3.381   3.439  19.755  0.00  0.00    +0.000 C 
ATOM     38  C   UNL     1       3.082   2.064  19.074  0.00  0.00    +0.000 C 
ATOM     39  C   UNL     1       1.566   2.015  18.870  0.00  0.00    +0.000 C 
ENDBRANCH  29  36
ENDBRANCH  27  29
ENDBRANCH  26  27
ENDBRANCH  25  26
ENDBRANCH  24  25
ENDBRANCH  22  24
ENDBRANCH  21  22
ENDBRANCH   1  21
TORSDOF 16
ENDMDL
MODEL 7
REMARK VINA RESULT:      -6.8      2.090      9.563
REMARK  Name = 
REMARK  20 active torsions:
REMARK  status: ('A' for Active; 'I' for Inactive)
REMARK    1  A    between atoms: C_1  and  C_2
REMARK    2  A    between atoms: C_2  and  C_3
REMARK    3  A    between atoms: C_7  and  C_8
REMARK    4  A    between atoms: C_8  and  N_9
REMARK    5  A    between atoms: N_9  and  C_10
REMARK    6  A    between atoms: C_10  and  C_11
REMARK    7  A    between atoms: C_11  and  C_12
REMARK    8  A    between atoms: C_12  and  N_13
REMARK    9  A    between atoms: N_13  and  C_14
REMARK   10  A    between atoms: C_14  and  C_15
REMARK   11  A    between atoms: C_15  and  C_16
REMARK   12  A    between atoms: C_16  and  N_17
REMARK   13  A    between atoms: N_17  and  C_18
REMARK   14  A    between atoms: C_18  and  C_19
REMARK   15  A    between atoms: C_19  and  C_20
REMARK   16  A    between atoms: C_20  and  N_21
REMARK   17  A    between atoms: N_21  and  C_22
REMARK   18  A    between atoms: C_22  and  C_23
REMARK   19  A    between atoms: C_30  and  C_31
REMARK   20  A    between atoms: C_30  and  C_32
REMARK                            x       y       z     vdW  Elec       q    Type
REMARK                         _______ _______ _______ _____ _____    ______ ____
ROOT
ATOM      1  C   UNL     1       1.199  11.352  18.895  0.00  0.00    +0.000 C 
ENDROOT
BRANCH   1   2
ATOM      2  C   UNL     1       1.017  10.039  18.098  0.00  0.00    +0.000 C 
BRANCH   2   3
ATOM      3  N   UNL     1       1.674   8.894  18.753  0.00  0.00    +0.000 NA
ATOM      4  H   UNL     1       2.680   8.934  18.588  0.00  0.00    +0.000 HD
BRANCH   3   5
ATOM      5  C   UNL     1       1.414   8.841  20.193  0.00  0.00    +0.000 C 
BRANCH   5   6
ATOM      6  C   UNL     1       1.643   7.400  20.662  0.00  0.00    +0.000 C 
BRANCH   6   7
ATOM      7  C   UNL     1       2.279   6.512  19.601  0.00  0.00    +0.000 C 
BRANCH   7   8
ATOM      8  N   UNL     1       3.326   5.701  20.227  0.00  0.00    +0.000 NA
ATOM      9  H   UNL     1       3.118   5.511  21.205  0.00  0.00    +0.000 HD
BRANCH   8  10
ATOM     10  C   UNL     1       3.490   4.427  19.530  0.00  0.00    +0.000 C 
BRANCH  10  11
ATOM     11  C   UNL     1       4.653   4.371  18.514  0.00  0.00    +0.000 C 
ATOM     12  C   UNL     1       4.225   4.013  17.096  0.00  0.00    +0.000 C 
ATOM     13  C   UNL     1       5.454   3.938  16.185  0.00  0.00    +0.000 C 
ATOM     14  C   UNL     1       6.516   5.056  16.405  0.00  0.00    +0.000 C 
ATOM     15  C   UNL     1       7.612   4.544  17.370  0.00  0.00    +0.000 C 
ATOM     16  C   UNL     1       7.080   4.863  18.783  0.00  0.00    +0.000 C 
ATOM     17  C   UNL     1       5.693   5.557  18.549  0.00  0.00    +0.000 C 
ATOM     18  C   UNL     1       5.986   6.288  17.182  0.00  0.00    +0.000 C 
ATOM     19  C   UNL     1       4.869   7.055  16.463  0.00  0.00    +0.000 C 
ATOM     20  C   UNL     1       7.101   7.378  17.327  0.00  0.00    +0.000 C 
ENDBRANCH  10  11
ENDBRANCH   8  10
ENDBRANCH   7   8
ENDBRANCH   6   7
ENDBRANCH   5   6
ENDBRANCH   3   5
ENDBRANCH   2   3
ENDBRANCH   1   2
BRANCH   1  21
ATOM     21  C   UNL     1       2.343  12.216  18.316  0.00  0.00    +0.000 C 
BRANCH  21  22
ATOM     22  N   UNL     1       2.296  13.619  18.769  0.00  0.00    +0.000 NA
ATOM     23  H   UNL     1       2.437  14.248  17.980  0.00  0.00    +0.000 HD
BRANCH  22  24
ATOM     24  C   UNL     1       3.295  13.883  19.825  0.00  0.00    +0.000 C 
BRANCH  24  25
ATOM     25  C   UNL     1       4.241  15.037  19.459  0.00  0.00    +0.000 C 
BRANCH  25  26
ATOM     26  C   UNL     1       4.748  15.029  17.993  0.00  0.00    +0.000 C 
BRANCH  26  27
ATOM     27  N   UNL     1       6.182  14.693  17.762  0.00  0.00    +0.000 NA
ATOM     28  H   UNL     1       6.237  13.826  17.226  0.00  0.00    +0.000 HD
BRANCH  27  29
ATOM     29  C   UNL     1       6.849  14.486  19.058  0.00  0.00    +0.000 C 
BRANCH  29  36
ATOM     30  C   UNL     1      11.316  13.352  16.662  0.00  0.00    +0.000 C 
ATOM     31  C   UNL     1      10.714  13.677  18.071  0.00  0.00    +0.000 C 
ATOM     32  C   UNL     1      11.586  14.831  18.618  0.00  0.00    +0.000 C 
ATOM     33  C   UNL     1      10.745  12.510  19.083  0.00  0.00    +0.000 C 
ATOM     34  C   UNL     1      10.151  12.960  20.455  0.00  0.00    +0.000 C 
ATOM     35  C   UNL     1       8.779  13.653  20.413  0.00  0.00    +0.000 C 
ATOM     36  C   UNL     1       8.423  14.426  19.118  0.00  0.00    +0.000 C 
ATOM     37  C   UNL     1       9.139  13.777  17.914  0.00  0.00    +0.000 C 
ATOM     38  C   UNL     1       8.711  12.278  17.808  0.00  0.00    +0.000 C 
ATOM     39  C   UNL     1       9.867  11.467  18.400  0.00  0.00    +0.000 C 
ENDBRANCH  29  36
ENDBRANCH  27  29
ENDBRANCH  26  27
ENDBRANCH  25  26
ENDBRANCH  24  25
ENDBRANCH  22  24
ENDBRANCH  21  22
ENDBRANCH   1  21
TORSDOF 16
ENDMDL
MODEL 8
REMARK VINA RESULT:      -6.8      5.007     10.515
REMARK  Name = 
REMARK  20 active torsions:
REMARK  status: ('A' for Active; 'I' for Inactive)
REMARK    1  A    between atoms: C_1  and  C_2
REMARK    2  A    between atoms: C_2  and  C_3
REMARK    3  A    between atoms: C_7  and  C_8
REMARK    4  A    between atoms: C_8  and  N_9
REMARK    5  A    between atoms: N_9  and  C_10
REMARK    6  A    between atoms: C_10  and  C_11
REMARK    7  A    between atoms: C_11  and  C_12
REMARK    8  A    between atoms: C_12  and  N_13
REMARK    9  A    between atoms: N_13  and  C_14
REMARK   10  A    between atoms: C_14  and  C_15
REMARK   11  A    between atoms: C_15  and  C_16
REMARK   12  A    between atoms: C_16  and  N_17
REMARK   13  A    between atoms: N_17  and  C_18
REMARK   14  A    between atoms: C_18  and  C_19
REMARK   15  A    between atoms: C_19  and  C_20
REMARK   16  A    between atoms: C_20  and  N_21
REMARK   17  A    between atoms: N_21  and  C_22
REMARK   18  A    between atoms: C_22  and  C_23
REMARK   19  A    between atoms: C_30  and  C_31
REMARK   20  A    between atoms: C_30  and  C_32
REMARK                            x       y       z     vdW  Elec       q    Type
REMARK                         _______ _______ _______ _____ _____    ______ ____
ROOT
ATOM      1  C   UNL     1       1.445   9.716  17.958  0.00  0.00    +0.000 C 
ENDROOT
BRANCH   1   2
ATOM      2  C   UNL     1      -0.098   9.706  17.856  0.00  0.00    +0.000 C 
BRANCH   2   3
ATOM      3  N   UNL     1      -0.669  11.063  17.910  0.00  0.00    +0.000 NA
ATOM      4  H   UNL     1      -1.681  11.007  18.018  0.00  0.00    +0.000 HD
BRANCH   3   5
ATOM      5  C   UNL     1      -0.104  11.871  18.993  0.00  0.00    +0.000 C 
BRANCH   5   6
ATOM      6  C   UNL     1      -0.668  13.290  18.868  0.00  0.00    +0.000 C 
BRANCH   6   7
ATOM      7  C   UNL     1      -1.222  13.837  20.178  0.00  0.00    +0.000 C 
BRANCH   7   8
ATOM      8  N   UNL     1      -2.683  13.896  20.086  0.00  0.00    +0.000 NA
ATOM      9  H   UNL     1      -3.033  13.323  19.322  0.00  0.00    +0.000 HD
BRANCH   8  10
ATOM     10  C   UNL     1      -3.304  13.444  21.329  0.00  0.00    +0.000 C 
BRANCH  10  11
ATOM     11  C   UNL     1      -4.709  12.818  21.179  0.00  0.00    +0.000 C 
ATOM     12  C   UNL     1      -5.615  13.023  22.387  0.00  0.00    +0.000 C 
ATOM     13  C   UNL     1      -6.959  12.326  22.154  0.00  0.00    +0.000 C 
ATOM     14  C   UNL     1      -7.549  12.477  20.721  0.00  0.00    +0.000 C 
ATOM     15  C   UNL     1      -7.143  11.255  19.864  0.00  0.00    +0.000 C 
ATOM     16  C   UNL     1      -5.769  11.624  19.266  0.00  0.00    +0.000 C 
ATOM     17  C   UNL     1      -5.461  13.062  19.814  0.00  0.00    +0.000 C 
ATOM     18  C   UNL     1      -6.928  13.636  19.900  0.00  0.00    +0.000 C 
ATOM     19  C   UNL     1      -7.176  15.031  20.489  0.00  0.00    +0.000 C 
ATOM     20  C   UNL     1      -7.600  13.744  18.490  0.00  0.00    +0.000 C 
ENDBRANCH  10  11
ENDBRANCH   8  10
ENDBRANCH   7   8
ENDBRANCH   6   7
ENDBRANCH   5   6
ENDBRANCH   3   5
ENDBRANCH   2   3
ENDBRANCH   1   2
BRANCH   1  21
ATOM     21  C   UNL     1       1.958   8.644  18.949  0.00  0.00    +0.000 C 
BRANCH  21  22
ATOM     22  N   UNL     1       1.342   8.749  20.285  0.00  0.00    +0.000 NA
ATOM     23  H   UNL     1       1.867   9.402  20.865  0.00  0.00    +0.000 HD
BRANCH  22  24
ATOM     24  C   UNL     1       1.252   7.430  20.947  0.00  0.00    +0.000 C 
BRANCH  24  25
ATOM     25  C   UNL     1       2.005   6.336  20.174  0.00  0.00    +0.000 C 
BRANCH  25  26
ATOM     26  C   UNL     1       2.119   4.975  20.910  0.00  0.00    +0.000 C 
BRANCH  26  27
ATOM     27  N   UNL     1       3.045   3.957  20.337  0.00  0.00    +0.000 NA
ATOM     28  H   UNL     1       3.972   4.088  20.743  0.00  0.00    +0.000 HD
BRANCH  27  29
ATOM     29  C   UNL     1       3.140   4.150  18.881  0.00  0.00    +0.000 C 
BRANCH  29  36
ATOM     30  C   UNL     1       7.343   6.980  17.741  0.00  0.00    +0.000 C 
ATOM     31  C   UNL     1       6.625   5.635  17.390  0.00  0.00    +0.000 C 
ATOM     32  C   UNL     1       7.709   4.547  17.571  0.00  0.00    +0.000 C 
ATOM     33  C   UNL     1       6.067   5.544  15.952  0.00  0.00    +0.000 C 
ATOM     34  C   UNL     1       5.404   4.151  15.710  0.00  0.00    +0.000 C 
ATOM     35  C   UNL     1       4.379   3.688  16.758  0.00  0.00    +0.000 C 
ATOM     36  C   UNL     1       4.559   4.225  18.200  0.00  0.00    +0.000 C 
ATOM     37  C   UNL     1       5.236   5.611  18.156  0.00  0.00    +0.000 C 
ATOM     38  C   UNL     1       4.360   6.584  17.302  0.00  0.00    +0.000 C 
ATOM     39  C   UNL     1       5.040   6.670  15.932  0.00  0.00    +0.000 C 
ENDBRANCH  29  36
ENDBRANCH  27  29
ENDBRANCH  26  27
ENDBRANCH  25  26
ENDBRANCH  24  25
ENDBRANCH  22  24
ENDBRANCH  21  22
ENDBRANCH   1  21
TORSDOF 16
ENDMDL
MODEL 9
REMARK VINA RESULT:      -6.8      2.851      5.027
REMARK  Name = 
REMARK  20 active torsions:
REMARK  status: ('A' for Active; 'I' for Inactive)
REMARK    1  A    between atoms: C_1  and  C_2
REMARK    2  A    between atoms: C_2  and  C_3
REMARK    3  A    between atoms: C_7  and  C_8
REMARK    4  A    between atoms: C_8  and  N_9
REMARK    5  A    between atoms: N_9  and  C_10
REMARK    6  A    between atoms: C_10  and  C_11
REMARK    7  A    between atoms: C_11  and  C_12
REMARK    8  A    between atoms: C_12  and  N_13
REMARK    9  A    between atoms: N_13  and  C_14
REMARK   10  A    between atoms: C_14  and  C_15
REMARK   11  A    between atoms: C_15  and  C_16
REMARK   12  A    between atoms: C_16  and  N_17
REMARK   13  A    between atoms: N_17  and  C_18
REMARK   14  A    between atoms: C_18  and  C_19
REMARK   15  A    between atoms: C_19  and  C_20
REMARK   16  A    between atoms: C_20  and  N_21
REMARK   17  A    between atoms: N_21  and  C_22
REMARK   18  A    between atoms: C_22  and  C_23
REMARK   19  A    between atoms: C_30  and  C_31
REMARK   20  A    between atoms: C_30  and  C_32
REMARK                            x       y       z     vdW  Elec       q    Type
REMARK                         _______ _______ _______ _____ _____    ______ ____
ROOT
ATOM      1  C   UNL     1       8.480  10.464  18.418  0.00  0.00    +0.000 C 
ENDROOT
BRANCH   1   2
ATOM      2  C   UNL     1       9.532  11.115  19.346  0.00  0.00    +0.000 C 
BRANCH   2   3
ATOM      3  N   UNL     1      10.865  11.177  18.721  0.00  0.00    +0.000 NA
ATOM      4  H   UNL     1      11.137  10.249  18.398  0.00  0.00    +0.000 HD
BRANCH   3   5
ATOM      5  C   UNL     1      10.920  12.122  17.603  0.00  0.00    +0.000 C 
BRANCH   5   6
ATOM      6  C   UNL     1      11.722  13.346  18.058  0.00  0.00    +0.000 C 
BRANCH   6   7
ATOM      7  C   UNL     1      11.248  14.649  17.424  0.00  0.00    +0.000 C 
BRANCH   7   8
ATOM      8  N   UNL     1       9.788  14.615  17.308  0.00  0.00    +0.000 NA
ATOM      9  H   UNL     1       9.384  13.877  17.880  0.00  0.00    +0.000 HD
BRANCH   8  10
ATOM     10  C   UNL     1       9.202  15.891  17.713  0.00  0.00    +0.000 C 
BRANCH  10  11
ATOM     11  C   UNL     1       8.603  15.924  19.137  0.00  0.00    +0.000 C 
ATOM     12  C   UNL     1       7.776  14.696  19.494  0.00  0.00    +0.000 C 
ATOM     13  C   UNL     1       7.191  14.853  20.901  0.00  0.00    +0.000 C 
ATOM     14  C   UNL     1       8.159  15.458  21.960  0.00  0.00    +0.000 C 
ATOM     15  C   UNL     1       7.930  16.985  22.055  0.00  0.00    +0.000 C 
ATOM     16  C   UNL     1       8.843  17.594  20.970  0.00  0.00    +0.000 C 
ATOM     17  C   UNL     1       9.562  16.367  20.308  0.00  0.00    +0.000 C 
ATOM     18  C   UNL     1       9.654  15.405  21.555  0.00  0.00    +0.000 C 
ATOM     19  C   UNL     1      10.215  13.986  21.395  0.00  0.00    +0.000 C 
ATOM     20  C   UNL     1      10.560  15.997  22.687  0.00  0.00    +0.000 C 
ENDBRANCH  10  11
ENDBRANCH   8  10
ENDBRANCH   7   8
ENDBRANCH   6   7
ENDBRANCH   5   6
ENDBRANCH   3   5
ENDBRANCH   2   3
ENDBRANCH   1   2
BRANCH   1  21
ATOM     21  C   UNL     1       8.633   8.925  18.374  0.00  0.00    +0.000 C 
BRANCH  21  22
ATOM     22  N   UNL     1       7.929   8.305  17.236  0.00  0.00    +0.000 NA
ATOM     23  H   UNL     1       7.264   8.963  16.833  0.00  0.00    +0.000 HD
BRANCH  22  24
ATOM     24  C   UNL     1       7.245   7.057  17.635  0.00  0.00    +0.000 C 
BRANCH  24  25
ATOM     25  C   UNL     1       5.989   6.785  16.793  0.00  0.00    +0.000 C 
BRANCH  25  26
ATOM     26  C   UNL     1       4.767   6.258  17.590  0.00  0.00    +0.000 C 
BRANCH  26  27
ATOM     27  N   UNL     1       3.598   7.171  17.744  0.00  0.00    +0.000 NA
ATOM     28  H   UNL     1       3.904   8.022  18.217  0.00  0.00    +0.000 HD
BRANCH  27  29
ATOM     29  C   UNL     1       2.575   6.516  18.574  0.00  0.00    +0.000 C 
BRANCH  29  36
ATOM     30  C   UNL     1       3.366   1.388  18.339  0.00  0.00    +0.000 C 
ATOM     31  C   UNL     1       3.134   2.559  19.351  0.00  0.00    +0.000 C 
ATOM     32  C   UNL     1       4.296   2.444  20.365  0.00  0.00    +0.000 C 
ATOM     33  C   UNL     1       1.796   2.505  20.122  0.00  0.00    +0.000 C 
ATOM     34  C   UNL     1       1.692   3.702  21.121  0.00  0.00    +0.000 C 
ATOM     35  C   UNL     1       1.972   5.100  20.545  0.00  0.00    +0.000 C 
ATOM     36  C   UNL     1       2.930   5.180  19.331  0.00  0.00    +0.000 C 
ATOM     37  C   UNL     1       2.841   3.873  18.513  0.00  0.00    +0.000 C 
ATOM     38  C   UNL     1       1.364   3.659  18.049  0.00  0.00    +0.000 C 
ATOM     39  C   UNL     1       0.771   2.614  18.999  0.00  0.00    +0.000 C 
ENDBRANCH  29  36
ENDBRANCH  27  29
ENDBRANCH  26  27
ENDBRANCH  25  26
ENDBRANCH  24  25
ENDBRANCH  22  24
ENDBRANCH  21  22
ENDBRANCH   1  21
TORSDOF 16
ENDMDL
