MODEL 1
REMARK VINA RESULT:      -7.0      0.000      0.000
REMARK  Name = 
REMARK  10 active torsions:
REMARK  status: ('A' for Active; 'I' for Inactive)
REMARK    1  A    between atoms: C_1  and  C_2
REMARK    2  A    between atoms: C_2  and  N_3
REMARK    3  A    between atoms: N_3  and  C_4
REMARK    4  A    between atoms: N_3  and  C_6
REMARK    5  A    between atoms: C_4  and  C_5
REMARK    6  A    between atoms: C_6  and  C_7
REMARK    7  A    between atoms: C_7  and  N_8
REMARK    8  A    between atoms: N_8  and  C_9
REMARK    9  A    between atoms: C_12  and  O_13
REMARK   10  A    between atoms: O_13  and  C_14
REMARK                            x       y       z     vdW  Elec       q    Type
REMARK                         _______ _______ _______ _____ _____    ______ ____
ROOT
ATOM      1  C   UNL     1       2.466   6.723  19.226  0.00  0.00    +0.000 A 
ATOM      2  C   UNL     1       1.909   6.322  20.444  0.00  0.00    +0.000 A 
ATOM      3  C   UNL     1       2.001   5.008  20.886  0.00  0.00    +0.000 A 
ATOM      4  C   UNL     1       2.651   4.040  20.116  0.00  0.00    +0.000 A 
ATOM      5  C   UNL     1       3.306   4.427  18.915  0.00  0.00    +0.000 A 
ATOM      6  S   UNL     1       3.993   3.173  17.857  0.00  0.00    +0.000 S 
ATOM      7  C   UNL     1       4.829   4.031  16.579  0.00  0.00    +0.000 A 
ATOM      8  C   UNL     1       5.536   3.253  15.648  0.00  0.00    +0.000 A 
ATOM      9  C   UNL     1       6.235   3.846  14.599  0.00  0.00    +0.000 A 
ATOM     10  C   UNL     1       6.214   5.228  14.456  0.00  0.00    +0.000 A 
ATOM     11  C   UNL     1       5.527   6.009  15.387  0.00  0.00    +0.000 A 
ATOM     12  C   UNL     1       4.850   5.412  16.466  0.00  0.00    +0.000 A 
ATOM     13  C   UNL     1       4.271   6.279  17.510  0.00  0.00    +0.000 A 
ATOM     14  O   UNL     1       4.718   7.426  17.581  0.00  0.00    +0.000 OA
ATOM     15  C   UNL     1       3.298   5.799  18.538  0.00  0.00    +0.000 A 
ENDROOT
BRANCH   1  16
ATOM     16  N   UNL     1       2.130   8.031  18.841  0.00  0.00    +0.000 N 
ATOM     17  H   UNL     1       1.767   8.072  17.887  0.00  0.00    +0.000 HD
BRANCH  16  18
ATOM     18  C   UNL     1       1.317   8.853  19.745  0.00  0.00    +0.000 C 
BRANCH  18  19
ATOM     19  C   UNL     1       0.641  10.039  19.015  0.00  0.00    +0.000 C 
BRANCH  19  20
ATOM     20  N   UNL     1      -0.753  10.369  19.400  0.00  0.00    +0.000 NA
BRANCH  20  22
ATOM     21  C   UNL     1       0.201  12.346  20.645  0.00  0.00    +0.000 C 
ATOM     22  C   UNL     1      -0.807  11.200  20.614  0.00  0.00    +0.000 C 
ENDBRANCH  20  22
BRANCH  20  23
ATOM     23  C   UNL     1      -1.495  10.928  18.255  0.00  0.00    +0.000 C 
ATOM     24  C   UNL     1      -1.888   9.944  17.152  0.00  0.00    +0.000 C 
ENDBRANCH  20  23
ENDBRANCH  19  20
ENDBRANCH  18  19
ENDBRANCH  16  18
ENDBRANCH   1  16
BRANCH   4  25
ATOM     25  O   UNL     1       2.442   2.780  20.609  0.00  0.00    +0.000 OA
ATOM     26  C   UNL     1       1.501   2.572  21.655  0.00  0.00    +0.000 C 
ENDBRANCH   4  25
TORSDOF 7
ENDMDL
MODEL 2
REMARK VINA RESULT:      -6.9      0.587      1.514
REMARK  Name = 
REMARK  10 active torsions:
REMARK  status: ('A' for Active; 'I' for Inactive)
REMARK    1  A    between atoms: C_1  and  C_2
REMARK    2  A    between atoms: C_2  and  N_3
REMARK    3  A    between atoms: N_3  and  C_4
REMARK    4  A    between atoms: N_3  and  C_6
REMARK    5  A    between atoms: C_4  and  C_5
REMARK    6  A    between atoms: C_6  and  C_7
REMARK    7  A    between atoms: C_7  and  N_8
REMARK    8  A    between atoms: N_8  and  C_9
REMARK    9  A    between atoms: C_12  and  O_13
REMARK   10  A    between atoms: O_13  and  C_14
REMARK                            x       y       z     vdW  Elec       q    Type
REMARK                         _______ _______ _______ _____ _____    ______ ____
ROOT
ATOM      1  C   UNL     1       2.427   6.708  19.188  0.00  0.00    +0.000 A 
ATOM      2  C   UNL     1       1.863   6.309  20.403  0.00  0.00    +0.000 A 
ATOM      3  C   UNL     1       1.967   4.999  20.855  0.00  0.00    +0.000 A 
ATOM      4  C   UNL     1       2.636   4.034  20.097  0.00  0.00    +0.000 A 
ATOM      5  C   UNL     1       3.299   4.421  18.900  0.00  0.00    +0.000 A 
ATOM      6  S   UNL     1       4.011   3.169  17.857  0.00  0.00    +0.000 S 
ATOM      7  C   UNL     1       4.848   4.028  16.582  0.00  0.00    +0.000 A 
ATOM      8  C   UNL     1       5.574   3.253  15.663  0.00  0.00    +0.000 A 
ATOM      9  C   UNL     1       6.276   3.848  14.617  0.00  0.00    +0.000 A 
ATOM     10  C   UNL     1       6.240   5.228  14.464  0.00  0.00    +0.000 A 
ATOM     11  C   UNL     1       5.534   6.007  15.383  0.00  0.00    +0.000 A 
ATOM     12  C   UNL     1       4.854   5.409  16.460  0.00  0.00    +0.000 A 
ATOM     13  C   UNL     1       4.254   6.276  17.492  0.00  0.00    +0.000 A 
ATOM     14  O   UNL     1       4.686   7.428  17.560  0.00  0.00    +0.000 OA
ATOM     15  C   UNL     1       3.277   5.790  18.514  0.00  0.00    +0.000 A 
ENDROOT
BRANCH   1  16
ATOM     16  N   UNL     1       2.079   8.010  18.790  0.00  0.00    +0.000 N 
ATOM     17  H   UNL     1       1.572   8.021  17.903  0.00  0.00    +0.000 HD
BRANCH  16  18
ATOM     18  C   UNL     1       1.445   8.906  19.764  0.00  0.00    +0.000 C 
BRANCH  18  19
ATOM     19  C   UNL     1       0.734  10.103  19.088  0.00  0.00    +0.000 C 
BRANCH  19  20
ATOM     20  N   UNL     1       0.165  11.147  19.976  0.00  0.00    +0.000 NA
BRANCH  20  22
ATOM     21  C   UNL     1      -1.804  10.649  18.480  0.00  0.00    +0.000 C 
ATOM     22  C   UNL     1      -1.258  11.396  19.694  0.00  0.00    +0.000 C 
ENDBRANCH  20  22
BRANCH  20  23
ATOM     23  C   UNL     1       0.455  10.845  21.390  0.00  0.00    +0.000 C 
ATOM     24  C   UNL     1      -0.736  10.861  22.349  0.00  0.00    +0.000 C 
ENDBRANCH  20  23
ENDBRANCH  19  20
ENDBRANCH  18  19
ENDBRANCH  16  18
ENDBRANCH   1  16
BRANCH   4  25
ATOM     25  O   UNL     1       2.438   2.775  20.597  0.00  0.00    +0.000 OA
ATOM     26  C   UNL     1       1.591   2.582  21.723  0.00  0.00    +0.000 C 
ENDBRANCH   4  25
TORSDOF 7
ENDMDL
MODEL 3
REMARK VINA RESULT:      -6.9      0.893      1.329
REMARK  Name = 
REMARK  10 active torsions:
REMARK  status: ('A' for Active; 'I' for Inactive)
REMARK    1  A    between atoms: C_1  and  C_2
REMARK    2  A    between atoms: C_2  and  N_3
REMARK    3  A    between atoms: N_3  and  C_4
REMARK    4  A    between atoms: N_3  and  C_6
REMARK    5  A    between atoms: C_4  and  C_5
REMARK    6  A    between atoms: C_6  and  C_7
REMARK    7  A    between atoms: C_7  and  N_8
REMARK    8  A    between atoms: N_8  and  C_9
REMARK    9  A    between atoms: C_12  and  O_13
REMARK   10  A    between atoms: O_13  and  C_14
REMARK                            x       y       z     vdW  Elec       q    Type
REMARK                         _______ _______ _______ _____ _____    ______ ____
ROOT
ATOM      1  C   UNL     1       2.352   6.700  19.197  0.00  0.00    +0.000 A 
ATOM      2  C   UNL     1       1.833   6.323  20.440  0.00  0.00    +0.000 A 
ATOM      3  C   UNL     1       2.016   5.042  20.944  0.00  0.00    +0.000 A 
ATOM      4  C   UNL     1       2.724   4.083  20.214  0.00  0.00    +0.000 A 
ATOM      5  C   UNL     1       3.343   4.453  18.989  0.00  0.00    +0.000 A 
ATOM      6  S   UNL     1       4.104   3.198  17.985  0.00  0.00    +0.000 S 
ATOM      7  C   UNL     1       4.871   4.046  16.659  0.00  0.00    +0.000 A 
ATOM      8  C   UNL     1       5.621   3.272  15.759  0.00  0.00    +0.000 A 
ATOM      9  C   UNL     1       6.272   3.859  14.675  0.00  0.00    +0.000 A 
ATOM     10  C   UNL     1       6.157   5.227  14.465  0.00  0.00    +0.000 A 
ATOM     11  C   UNL     1       5.425   6.006  15.365  0.00  0.00    +0.000 A 
ATOM     12  C   UNL     1       4.798   5.418  16.479  0.00  0.00    +0.000 A 
ATOM     13  C   UNL     1       4.170   6.295  17.485  0.00  0.00    +0.000 A 
ATOM     14  O   UNL     1       4.539   7.470  17.496  0.00  0.00    +0.000 OA
ATOM     15  C   UNL     1       3.239   5.801  18.547  0.00  0.00    +0.000 A 
ENDROOT
BRANCH   1  16
ATOM     16  N   UNL     1       1.926   7.963  18.753  0.00  0.00    +0.000 N 
ATOM     17  H   UNL     1       1.134   7.899  18.110  0.00  0.00    +0.000 HD
BRANCH  16  18
ATOM     18  C   UNL     1       1.714   9.030  19.738  0.00  0.00    +0.000 C 
BRANCH  18  19
ATOM     19  C   UNL     1       0.422   9.837  19.464  0.00  0.00    +0.000 C 
BRANCH  19  20
ATOM     20  N   UNL     1      -0.563   9.938  20.569  0.00  0.00    +0.000 NA
BRANCH  20  22
ATOM     21  C   UNL     1      -0.359   9.760  23.077  0.00  0.00    +0.000 C 
ATOM     22  C   UNL     1      -0.195   9.092  21.715  0.00  0.00    +0.000 C 
ENDBRANCH  20  22
BRANCH  20  23
ATOM     23  C   UNL     1      -0.815  11.348  20.918  0.00  0.00    +0.000 C 
ATOM     24  C   UNL     1      -0.496  12.385  19.841  0.00  0.00    +0.000 C 
ENDBRANCH  20  23
ENDBRANCH  19  20
ENDBRANCH  18  19
ENDBRANCH  16  18
ENDBRANCH   1  16
BRANCH   4  25
ATOM     25  O   UNL     1       2.604   2.837  20.770  0.00  0.00    +0.000 OA
ATOM     26  C   UNL     1       1.551   2.565  21.686  0.00  0.00    +0.000 C 
ENDBRANCH   4  25
TORSDOF 7
ENDMDL
MODEL 4
REMARK VINA RESULT:      -6.8      2.426      7.115
REMARK  Name = 
REMARK  10 active torsions:
REMARK  status: ('A' for Active; 'I' for Inactive)
REMARK    1  A    between atoms: C_1  and  C_2
REMARK    2  A    between atoms: C_2  and  N_3
REMARK    3  A    between atoms: N_3  and  C_4
REMARK    4  A    between atoms: N_3  and  C_6
REMARK    5  A    between atoms: C_4  and  C_5
REMARK    6  A    between atoms: C_6  and  C_7
REMARK    7  A    between atoms: C_7  and  N_8
REMARK    8  A    between atoms: N_8  and  C_9
REMARK    9  A    between atoms: C_12  and  O_13
REMARK   10  A    between atoms: O_13  and  C_14
REMARK                            x       y       z     vdW  Elec       q    Type
REMARK                         _______ _______ _______ _____ _____    ______ ____
ROOT
ATOM      1  C   UNL     1       3.497   6.860  18.081  0.00  0.00    +0.000 A 
ATOM      2  C   UNL     1       3.714   5.492  18.271  0.00  0.00    +0.000 A 
ATOM      3  C   UNL     1       3.119   4.803  19.320  0.00  0.00    +0.000 A 
ATOM      4  C   UNL     1       2.286   5.463  20.227  0.00  0.00    +0.000 A 
ATOM      5  C   UNL     1       1.970   6.833  20.015  0.00  0.00    +0.000 A 
ATOM      6  S   UNL     1       1.043   7.712  21.253  0.00  0.00    +0.000 S 
ATOM      7  C   UNL     1       0.731   9.298  20.579  0.00  0.00    +0.000 A 
ATOM      8  C   UNL     1      -0.068  10.166  21.340  0.00  0.00    +0.000 A 
ATOM      9  C   UNL     1      -0.376  11.446  20.885  0.00  0.00    +0.000 A 
ATOM     10  C   UNL     1       0.137  11.883  19.670  0.00  0.00    +0.000 A 
ATOM     11  C   UNL     1       0.919  11.020  18.900  0.00  0.00    +0.000 A 
ATOM     12  C   UNL     1       1.200   9.715  19.344  0.00  0.00    +0.000 A 
ATOM     13  C   UNL     1       1.896   8.788  18.431  0.00  0.00    +0.000 A 
ATOM     14  O   UNL     1       1.864   9.070  17.232  0.00  0.00    +0.000 OA
ATOM     15  C   UNL     1       2.498   7.492  18.871  0.00  0.00    +0.000 A 
ENDROOT
BRANCH   1  16
ATOM     16  N   UNL     1       4.309   7.442  17.093  0.00  0.00    +0.000 N 
ATOM     17  H   UNL     1       4.866   8.217  17.458  0.00  0.00    +0.000 HD
BRANCH  16  18
ATOM     18  C   UNL     1       5.125   6.571  16.239  0.00  0.00    +0.000 C 
BRANCH  18  19
ATOM     19  C   UNL     1       6.637   6.686  16.552  0.00  0.00    +0.000 C 
BRANCH  19  20
ATOM     20  N   UNL     1       7.455   5.457  16.414  0.00  0.00    +0.000 NA
BRANCH  20  22
ATOM     21  C   UNL     1       7.636   5.525  18.930  0.00  0.00    +0.000 C 
ATOM     22  C   UNL     1       7.501   4.682  17.665  0.00  0.00    +0.000 C 
ENDBRANCH  20  22
BRANCH  20  23
ATOM     23  C   UNL     1       7.033   4.676  15.237  0.00  0.00    +0.000 C 
ATOM     24  C   UNL     1       6.035   3.545  15.491  0.00  0.00    +0.000 C 
ENDBRANCH  20  23
ENDBRANCH  19  20
ENDBRANCH  18  19
ENDBRANCH  16  18
ENDBRANCH   1  16
BRANCH   4  25
ATOM     25  O   UNL     1       1.982   4.671  21.301  0.00  0.00    +0.000 OA
ATOM     26  C   UNL     1       1.529   3.338  21.097  0.00  0.00    +0.000 C 
ENDBRANCH   4  25
TORSDOF 7
ENDMDL
MODEL 5
REMARK VINA RESULT:      -6.8      2.972      6.382
REMARK  Name = 
REMARK  10 active torsions:
REMARK  status: ('A' for Active; 'I' for Inactive)
REMARK    1  A    between atoms: C_1  and  C_2
REMARK    2  A    between atoms: C_2  and  N_3
REMARK    3  A    between atoms: N_3  and  C_4
REMARK    4  A    between atoms: N_3  and  C_6
REMARK    5  A    between atoms: C_4  and  C_5
REMARK    6  A    between atoms: C_6  and  C_7
REMARK    7  A    between atoms: C_7  and  N_8
REMARK    8  A    between atoms: N_8  and  C_9
REMARK    9  A    between atoms: C_12  and  O_13
REMARK   10  A    between atoms: O_13  and  C_14
REMARK                            x       y       z     vdW  Elec       q    Type
REMARK                         _______ _______ _______ _____ _____    ______ ____
ROOT
ATOM      1  C   UNL     1       4.505   3.632  18.979  0.00  0.00    +0.000 A 
ATOM      2  C   UNL     1       4.365   2.445  19.704  0.00  0.00    +0.000 A 
ATOM      3  C   UNL     1       3.467   2.341  20.759  0.00  0.00    +0.000 A 
ATOM      4  C   UNL     1       2.676   3.431  21.133  0.00  0.00    +0.000 A 
ATOM      5  C   UNL     1       2.725   4.625  20.364  0.00  0.00    +0.000 A 
ATOM      6  S   UNL     1       1.842   6.061  20.933  0.00  0.00    +0.000 S 
ATOM      7  C   UNL     1       2.018   7.262  19.670  0.00  0.00    +0.000 A 
ATOM      8  C   UNL     1       1.331   8.474  19.846  0.00  0.00    +0.000 A 
ATOM      9  C   UNL     1       1.407   9.488  18.893  0.00  0.00    +0.000 A 
ATOM     10  C   UNL     1       2.194   9.308  17.762  0.00  0.00    +0.000 A 
ATOM     11  C   UNL     1       2.867   8.100  17.573  0.00  0.00    +0.000 A 
ATOM     12  C   UNL     1       2.762   7.063  18.518  0.00  0.00    +0.000 A 
ATOM     13  C   UNL     1       3.361   5.751  18.205  0.00  0.00    +0.000 A 
ATOM     14  O   UNL     1       3.586   5.522  17.015  0.00  0.00    +0.000 OA
ATOM     15  C   UNL     1       3.567   4.673  19.219  0.00  0.00    +0.000 A 
ENDROOT
BRANCH   1  16
ATOM     16  N   UNL     1       5.577   3.631  18.071  0.00  0.00    +0.000 N 
ATOM     17  H   UNL     1       5.264   3.729  17.104  0.00  0.00    +0.000 HD
BRANCH  16  18
ATOM     18  C   UNL     1       6.734   4.495  18.335  0.00  0.00    +0.000 C 
BRANCH  18  19
ATOM     19  C   UNL     1       7.628   4.680  17.084  0.00  0.00    +0.000 C 
BRANCH  19  20
ATOM     20  N   UNL     1       7.399   5.891  16.258  0.00  0.00    +0.000 NA
BRANCH  20  22
ATOM     21  C   UNL     1       6.298   4.112  14.849  0.00  0.00    +0.000 C 
ATOM     22  C   UNL     1       6.674   5.582  15.016  0.00  0.00    +0.000 C 
ENDBRANCH  20  22
BRANCH  20  23
ATOM     23  C   UNL     1       6.787   6.965  17.062  0.00  0.00    +0.000 C 
ATOM     24  C   UNL     1       7.731   8.048  17.586  0.00  0.00    +0.000 C 
ENDBRANCH  20  23
ENDBRANCH  19  20
ENDBRANCH  18  19
ENDBRANCH  16  18
ENDBRANCH   1  16
BRANCH   4  25
ATOM     25  O   UNL     1       2.029   3.201  22.317  0.00  0.00    +0.000 OA
ATOM     26  C   UNL     1       1.038   2.183  22.400  0.00  0.00    +0.000 C 
ENDBRANCH   4  25
TORSDOF 7
ENDMDL
MODEL 6
REMARK VINA RESULT:      -6.8      2.677      7.354
REMARK  Name = 
REMARK  10 active torsions:
REMARK  status: ('A' for Active; 'I' for Inactive)
REMARK    1  A    between atoms: C_1  and  C_2
REMARK    2  A    between atoms: C_2  and  N_3
REMARK    3  A    between atoms: N_3  and  C_4
REMARK    4  A    between atoms: N_3  and  C_6
REMARK    5  A    between atoms: C_4  and  C_5
REMARK    6  A    between atoms: C_6  and  C_7
REMARK    7  A    between atoms: C_7  and  N_8
REMARK    8  A    between atoms: N_8  and  C_9
REMARK    9  A    between atoms: C_12  and  O_13
REMARK   10  A    between atoms: O_13  and  C_14
REMARK                            x       y       z     vdW  Elec       q    Type
REMARK                         _______ _______ _______ _____ _____    ______ ____
ROOT
ATOM      1  C   UNL     1       2.765   5.958  20.062  0.00  0.00    +0.000 A 
ATOM      2  C   UNL     1       3.839   5.381  19.379  0.00  0.00    +0.000 A 
ATOM      3  C   UNL     1       4.348   5.949  18.217  0.00  0.00    +0.000 A 
ATOM      4  C   UNL     1       3.791   7.118  17.691  0.00  0.00    +0.000 A 
ATOM      5  C   UNL     1       2.757   7.782  18.405  0.00  0.00    +0.000 A 
ATOM      6  S   UNL     1       1.941   9.175  17.658  0.00  0.00    +0.000 S 
ATOM      7  C   UNL     1       0.852   9.802  18.878  0.00  0.00    +0.000 A 
ATOM      8  C   UNL     1       0.144  10.971  18.557  0.00  0.00    +0.000 A 
ATOM      9  C   UNL     1      -0.742  11.547  19.465  0.00  0.00    +0.000 A 
ATOM     10  C   UNL     1      -0.947  10.943  20.700  0.00  0.00    +0.000 A 
ATOM     11  C   UNL     1      -0.234   9.790  21.032  0.00  0.00    +0.000 A 
ATOM     12  C   UNL     1       0.686   9.228  20.128  0.00  0.00    +0.000 A 
ATOM     13  C   UNL     1       1.529   8.105  20.578  0.00  0.00    +0.000 A 
ATOM     14  O   UNL     1       1.651   7.963  21.797  0.00  0.00    +0.000 OA
ATOM     15  C   UNL     1       2.328   7.246  19.651  0.00  0.00    +0.000 A 
ENDROOT
BRANCH   1  16
ATOM     16  N   UNL     1       2.255   5.169  21.107  0.00  0.00    +0.000 N 
ATOM     17  H   UNL     1       1.939   5.732  21.898  0.00  0.00    +0.000 HD
BRANCH  16  18
ATOM     18  C   UNL     1       1.282   4.116  20.794  0.00  0.00    +0.000 C 
BRANCH  18  19
ATOM     19  C   UNL     1       1.925   2.708  20.763  0.00  0.00    +0.000 C 
BRANCH  19  20
ATOM     20  N   UNL     1       2.073   2.057  19.439  0.00  0.00    +0.000 NA
BRANCH  20  22
ATOM     21  C   UNL     1       2.231   3.170  17.180  0.00  0.00    +0.000 C 
ATOM     22  C   UNL     1       1.366   2.795  18.380  0.00  0.00    +0.000 C 
ENDBRANCH  20  22
BRANCH  20  23
ATOM     23  C   UNL     1       3.492   1.789  19.141  0.00  0.00    +0.000 C 
ATOM     24  C   UNL     1       4.486   2.047  20.274  0.00  0.00    +0.000 C 
ENDBRANCH  20  23
ENDBRANCH  19  20
ENDBRANCH  18  19
ENDBRANCH  16  18
ENDBRANCH   1  16
BRANCH   4  25
ATOM     25  O   UNL     1       4.279   7.390  16.440  0.00  0.00    +0.000 OA
ATOM     26  C   UNL     1       5.183   6.485  15.817  0.00  0.00    +0.000 C 
ENDBRANCH   4  25
TORSDOF 7
ENDMDL
MODEL 7
REMARK VINA RESULT:      -6.8      4.487      8.225
REMARK  Name = 
REMARK  10 active torsions:
REMARK  status: ('A' for Active; 'I' for Inactive)
REMARK    1  A    between atoms: C_1  and  C_2
REMARK    2  A    between atoms: C_2  and  N_3
REMARK    3  A    between atoms: N_3  and  C_4
REMARK    4  A    between atoms: N_3  and  C_6
REMARK    5  A    between atoms: C_4  and  C_5
REMARK    6  A    between atoms: C_6  and  C_7
REMARK    7  A    between atoms: C_7  and  N_8
REMARK    8  A    between atoms: N_8  and  C_9
REMARK    9  A    between atoms: C_12  and  O_13
REMARK   10  A    between atoms: O_13  and  C_14
REMARK                            x       y       z     vdW  Elec       q    Type
REMARK                         _______ _______ _______ _____ _____    ______ ____
ROOT
ATOM      1  C   UNL     1       5.886   3.866  16.096  0.00  0.00    +0.000 A 
ATOM      2  C   UNL     1       7.190   4.368  16.091  0.00  0.00    +0.000 A 
ATOM      3  C   UNL     1       7.664   5.165  17.126  0.00  0.00    +0.000 A 
ATOM      4  C   UNL     1       6.840   5.497  18.205  0.00  0.00    +0.000 A 
ATOM      5  C   UNL     1       5.538   4.933  18.289  0.00  0.00    +0.000 A 
ATOM      6  S   UNL     1       4.435   5.479  19.574  0.00  0.00    +0.000 S 
ATOM      7  C   UNL     1       3.011   4.469  19.443  0.00  0.00    +0.000 A 
ATOM      8  C   UNL     1       2.013   4.650  20.414  0.00  0.00    +0.000 A 
ATOM      9  C   UNL     1       0.845   3.889  20.395  0.00  0.00    +0.000 A 
ATOM     10  C   UNL     1       0.653   2.954  19.385  0.00  0.00    +0.000 A 
ATOM     11  C   UNL     1       1.648   2.757  18.426  0.00  0.00    +0.000 A 
ATOM     12  C   UNL     1       2.842   3.500  18.467  0.00  0.00    +0.000 A 
ATOM     13  C   UNL     1       3.928   3.153  17.531  0.00  0.00    +0.000 A 
ATOM     14  O   UNL     1       3.884   2.026  17.034  0.00  0.00    +0.000 OA
ATOM     15  C   UNL     1       5.114   4.028  17.278  0.00  0.00    +0.000 A 
ENDROOT
BRANCH   1  16
ATOM     16  N   UNL     1       5.507   3.235  14.899  0.00  0.00    +0.000 N 
ATOM     17  H   UNL     1       4.705   2.615  15.026  0.00  0.00    +0.000 HD
BRANCH  16  18
ATOM     18  C   UNL     1       5.352   4.045  13.685  0.00  0.00    +0.000 C 
BRANCH  18  19
ATOM     19  C   UNL     1       6.172   3.488  12.496  0.00  0.00    +0.000 C 
BRANCH  19  20
ATOM     20  N   UNL     1       5.414   2.914  11.357  0.00  0.00    +0.000 NA
BRANCH  20  22
ATOM     21  C   UNL     1       7.202   1.154  11.086  0.00  0.00    +0.000 C 
ATOM     22  C   UNL     1       5.714   1.487  11.159  0.00  0.00    +0.000 C 
ENDBRANCH  20  22
BRANCH  20  23
ATOM     23  C   UNL     1       3.976   3.216  11.480  0.00  0.00    +0.000 C 
ATOM     24  C   UNL     1       3.280   3.741  10.224  0.00  0.00    +0.000 C 
ENDBRANCH  20  23
ENDBRANCH  19  20
ENDBRANCH  18  19
ENDBRANCH  16  18
ENDBRANCH   1  16
BRANCH   4  25
ATOM     25  O   UNL     1       7.409   6.459  18.996  0.00  0.00    +0.000 OA
ATOM     26  C   UNL     1       8.166   7.509  18.406  0.00  0.00    +0.000 C 
ENDBRANCH   4  25
TORSDOF 7
ENDMDL
MODEL 8
REMARK VINA RESULT:      -6.7      1.035      1.467
REMARK  Name = 
REMARK  10 active torsions:
REMARK  status: ('A' for Active; 'I' for Inactive)
REMARK    1  A    between atoms: C_1  and  C_2
REMARK    2  A    between atoms: C_2  and  N_3
REMARK    3  A    between atoms: N_3  and  C_4
REMARK    4  A    between atoms: N_3  and  C_6
REMARK    5  A    between atoms: C_4  and  C_5
REMARK    6  A    between atoms: C_6  and  C_7
REMARK    7  A    between atoms: C_7  and  N_8
REMARK    8  A    between atoms: N_8  and  C_9
REMARK    9  A    between atoms: C_12  and  O_13
REMARK   10  A    between atoms: O_13  and  C_14
REMARK                            x       y       z     vdW  Elec       q    Type
REMARK                         _______ _______ _______ _____ _____    ______ ____
ROOT
ATOM      1  C   UNL     1       2.576   7.148  18.989  0.00  0.00    +0.000 A 
ATOM      2  C   UNL     1       1.876   6.836  20.159  0.00  0.00    +0.000 A 
ATOM      3  C   UNL     1       1.743   5.525  20.596  0.00  0.00    +0.000 A 
ATOM      4  C   UNL     1       2.304   4.470  19.871  0.00  0.00    +0.000 A 
ATOM      5  C   UNL     1       3.099   4.754  18.727  0.00  0.00    +0.000 A 
ATOM      6  S   UNL     1       3.676   3.410  17.715  0.00  0.00    +0.000 S 
ATOM      7  C   UNL     1       4.723   4.134  16.511  0.00  0.00    +0.000 A 
ATOM      8  C   UNL     1       5.380   3.259  15.632  0.00  0.00    +0.000 A 
ATOM      9  C   UNL     1       6.236   3.740  14.644  0.00  0.00    +0.000 A 
ATOM     10  C   UNL     1       6.425   5.111  14.509  0.00  0.00    +0.000 A 
ATOM     11  C   UNL     1       5.788   5.986  15.391  0.00  0.00    +0.000 A 
ATOM     12  C   UNL     1       4.952   5.497  16.410  0.00  0.00    +0.000 A 
ATOM     13  C   UNL     1       4.425   6.442  17.413  0.00  0.00    +0.000 A 
ATOM     14  O   UNL     1       5.026   7.513  17.527  0.00  0.00    +0.000 OA
ATOM     15  C   UNL     1       3.317   6.111  18.361  0.00  0.00    +0.000 A 
ENDROOT
BRANCH   1  16
ATOM     16  N   UNL     1       2.463   8.490  18.589  0.00  0.00    +0.000 N 
ATOM     17  H   UNL     1       3.295   8.817  18.095  0.00  0.00    +0.000 HD
BRANCH  16  18
ATOM     18  C   UNL     1       1.242   8.928  17.903  0.00  0.00    +0.000 C 
BRANCH  18  19
ATOM     19  C   UNL     1       0.601  10.167  18.573  0.00  0.00    +0.000 C 
BRANCH  19  20
ATOM     20  N   UNL     1       0.801  10.329  20.035  0.00  0.00    +0.000 NA
BRANCH  20  22
ATOM     21  C   UNL     1      -0.085  12.689  20.150  0.00  0.00    +0.000 C 
ATOM     22  C   UNL     1       1.074  11.728  20.401  0.00  0.00    +0.000 C 
ENDBRANCH  20  22
BRANCH  20  23
ATOM     23  C   UNL     1      -0.309   9.716  20.786  0.00  0.00    +0.000 C 
ATOM     24  C   UNL     1      -0.018   9.326  22.236  0.00  0.00    +0.000 C 
ENDBRANCH  20  23
ENDBRANCH  19  20
ENDBRANCH  18  19
ENDBRANCH  16  18
ENDBRANCH   1  16
BRANCH   4  25
ATOM     25  O   UNL     1       1.879   3.255  20.337  0.00  0.00    +0.000 OA
ATOM     26  C   UNL     1       2.394   2.743  21.560  0.00  0.00    +0.000 C 
ENDBRANCH   4  25
TORSDOF 7
ENDMDL
MODEL 9
REMARK VINA RESULT:      -6.7      2.647      6.816
REMARK  Name = 
REMARK  10 active torsions:
REMARK  status: ('A' for Active; 'I' for Inactive)
REMARK    1  A    between atoms: C_1  and  C_2
REMARK    2  A    between atoms: C_2  and  N_3
REMARK    3  A    between atoms: N_3  and  C_4
REMARK    4  A    between atoms: N_3  and  C_6
REMARK    5  A    between atoms: C_4  and  C_5
REMARK    6  A    between atoms: C_6  and  C_7
REMARK    7  A    between atoms: C_7  and  N_8
REMARK    8  A    between atoms: N_8  and  C_9
REMARK    9  A    between atoms: C_12  and  O_13
REMARK   10  A    between atoms: O_13  and  C_14
REMARK                            x       y       z     vdW  Elec       q    Type
REMARK                         _______ _______ _______ _____ _____    ______ ____
ROOT
ATOM      1  C   UNL     1       3.516   6.567  17.969  0.00  0.00    +0.000 A 
ATOM      2  C   UNL     1       3.611   5.183  18.142  0.00  0.00    +0.000 A 
ATOM      3  C   UNL     1       2.955   4.536  19.182  0.00  0.00    +0.000 A 
ATOM      4  C   UNL     1       2.183   5.257  20.097  0.00  0.00    +0.000 A 
ATOM      5  C   UNL     1       1.991   6.652  19.903  0.00  0.00    +0.000 A 
ATOM      6  S   UNL     1       1.146   7.595  21.152  0.00  0.00    +0.000 S 
ATOM      7  C   UNL     1       0.977   9.211  20.498  0.00  0.00    +0.000 A 
ATOM      8  C   UNL     1       0.258  10.137  21.270  0.00  0.00    +0.000 A 
ATOM      9  C   UNL     1       0.067  11.446  20.831  0.00  0.00    +0.000 A 
ATOM     10  C   UNL     1       0.617  11.850  19.620  0.00  0.00    +0.000 A 
ATOM     11  C   UNL     1       1.321  10.930  18.840  0.00  0.00    +0.000 A 
ATOM     12  C   UNL     1       1.482   9.600  19.267  0.00  0.00    +0.000 A 
ATOM     13  C   UNL     1       2.094   8.625  18.344  0.00  0.00    +0.000 A 
ATOM     14  O   UNL     1       2.088   8.924  17.148  0.00  0.00    +0.000 OA
ATOM     15  C   UNL     1       2.577   7.275  18.767  0.00  0.00    +0.000 A 
ENDROOT
BRANCH   1  16
ATOM     16  N   UNL     1       4.379   7.086  16.989  0.00  0.00    +0.000 N 
ATOM     17  H   UNL     1       4.917   7.884  17.331  0.00  0.00    +0.000 HD
BRANCH  16  18
ATOM     18  C   UNL     1       5.235   6.164  16.234  0.00  0.00    +0.000 C 
BRANCH  18  19
ATOM     19  C   UNL     1       6.740   6.391  16.517  0.00  0.00    +0.000 C 
BRANCH  19  20
ATOM     20  N   UNL     1       7.095   7.126  17.755  0.00  0.00    +0.000 NA
BRANCH  20  22
ATOM     21  C   UNL     1       6.951   5.446  19.632  0.00  0.00    +0.000 C 
ATOM     22  C   UNL     1       7.833   6.278  18.706  0.00  0.00    +0.000 C 
ENDBRANCH  20  22
BRANCH  20  23
ATOM     23  C   UNL     1       7.768   8.398  17.435  0.00  0.00    +0.000 C 
ATOM     24  C   UNL     1       8.615   9.020  18.546  0.00  0.00    +0.000 C 
ENDBRANCH  20  23
ENDBRANCH  19  20
ENDBRANCH  18  19
ENDBRANCH  16  18
ENDBRANCH   1  16
BRANCH   4  25
ATOM     25  O   UNL     1       1.808   4.482  21.162  0.00  0.00    +0.000 OA
ATOM     26  C   UNL     1       2.333   3.167  21.304  0.00  0.00    +0.000 C 
ENDBRANCH   4  25
TORSDOF 7
ENDMDL
