MODEL 1
REMARK VINA RESULT:     -10.0      0.000      0.000
REMARK  Name = 
REMARK  3 active torsions:
REMARK  status: ('A' for Active; 'I' for Inactive)
REMARK    1  A    between atoms: C_2  and  C_27
REMARK    2  A    between atoms: N_3  and  C_4
REMARK    3  A    between atoms: C_8  and  C_9
REMARK                            x       y       z     vdW  Elec       q    Type
REMARK                         _______ _______ _______ _____ _____    ______ ____
ROOT
ATOM      1  C   UNL     1       1.671   8.052  19.995  0.00  0.00    +0.000 C 
ATOM      2  N   UNL     1       0.869   8.011  21.215  0.00  0.00    +0.000 N 
ATOM      3  C   UNL     1       0.200   9.201  21.553  0.00  0.00    +0.000 A 
ATOM      4  C   UNL     1      -0.220   9.344  22.875  0.00  0.00    +0.000 A 
ATOM      5  C   UNL     1      -0.847  10.512  23.302  0.00  0.00    +0.000 A 
ATOM      6  C   UNL     1      -1.151  11.530  22.396  0.00  0.00    +0.000 A 
ATOM      7  C   UNL     1      -1.723  12.728  22.858  0.00  0.00    +0.000 A 
ATOM      8  C   UNL     1      -2.121  13.724  21.969  0.00  0.00    +0.000 A 
ATOM      9  C   UNL     1      -2.012  13.502  20.605  0.00  0.00    +0.000 A 
ATOM     10  C   UNL     1      -1.393  12.337  20.138  0.00  0.00    +0.000 A 
ATOM     11  C   UNL     1      -0.878  11.354  21.020  0.00  0.00    +0.000 A 
ATOM     12  C   UNL     1      -0.123  10.203  20.612  0.00  0.00    +0.000 A 
ATOM     13  C   UNL     1       0.376  10.060  19.194  0.00  0.00    +0.000 C 
ATOM     14  C   UNL     1       1.623  10.851  18.854  0.00  0.00    +0.000 C 
ATOM     15  C   UNL     1       2.361  10.202  17.940  0.00  0.00    +0.000 C 
ATOM     16  C   UNL     1       1.717   8.899  17.579  0.00  0.00    +0.000 C 
ATOM     17  C   UNL     1       0.845   8.639  18.821  0.00  0.00    +0.000 C 
ATOM     18  H   UNL     1       0.221   7.225  21.232  0.00  0.00    +0.000 HD
ENDROOT
BRANCH   1  23
ATOM     19  C   UNL     1       3.492   5.162  18.244  0.00  0.00    +0.000 A 
ATOM     20  C   UNL     1       3.269   4.117  19.143  0.00  0.00    +0.000 A 
ATOM     21  C   UNL     1       2.562   4.337  20.328  0.00  0.00    +0.000 A 
ATOM     22  C   UNL     1       2.057   5.603  20.627  0.00  0.00    +0.000 A 
ATOM     23  C   UNL     1       2.252   6.667  19.742  0.00  0.00    +0.000 A 
ATOM     24  C   UNL     1       3.005   6.437  18.568  0.00  0.00    +0.000 A 
BRANCH  19  27
ATOM     25  O   UNL     1       6.325   4.462  17.783  0.00  0.00    +0.000 OA
ATOM     26  C   UNL     1       5.526   4.687  16.881  0.00  0.00    +0.000 C 
ATOM     27  N   UNL     1       4.182   4.998  17.021  0.00  0.00    +0.000 N 
ATOM     28  H   UNL     1       3.606   4.954  16.190  0.00  0.00    +0.000 HD
BRANCH  26  29
ATOM     29  C   UNL     1       6.014   4.544  15.482  0.00  0.00    +0.000 A 
ATOM     30  C   UNL     1       7.164   5.255  15.100  0.00  0.00    +0.000 A 
ATOM     31  C   UNL     1       7.641   5.173  13.793  0.00  0.00    +0.000 A 
ATOM     32  C   UNL     1       6.955   4.386  12.869  0.00  0.00    +0.000 A 
ATOM     33  F   UNL     1       7.404   4.309  11.610  0.00  0.00    +0.000 F 
ATOM     34  C   UNL     1       5.808   3.685  13.230  0.00  0.00    +0.000 A 
ATOM     35  C   UNL     1       5.330   3.763  14.539  0.00  0.00    +0.000 A 
ENDBRANCH  26  29
ENDBRANCH  19  27
ENDBRANCH   1  23
TORSDOF 3
ENDMDL
MODEL 2
REMARK VINA RESULT:      -9.8      0.594      1.026
REMARK  Name = 
REMARK  3 active torsions:
REMARK  status: ('A' for Active; 'I' for Inactive)
REMARK    1  A    between atoms: C_2  and  C_27
REMARK    2  A    between atoms: N_3  and  C_4
REMARK    3  A    between atoms: C_8  and  C_9
REMARK                            x       y       z     vdW  Elec       q    Type
REMARK                         _______ _______ _______ _____ _____    ______ ____
ROOT
ATOM      1  C   UNL     1       1.364   8.480  20.169  0.00  0.00    +0.000 C 
ATOM      2  N   UNL     1       0.501   8.486  21.348  0.00  0.00    +0.000 N 
ATOM      3  C   UNL     1      -0.159   9.698  21.622  0.00  0.00    +0.000 A 
ATOM      4  C   UNL     1      -0.641   9.884  22.917  0.00  0.00    +0.000 A 
ATOM      5  C   UNL     1      -1.264  11.074  23.283  0.00  0.00    +0.000 A 
ATOM      6  C   UNL     1      -1.499  12.076  22.338  0.00  0.00    +0.000 A 
ATOM      7  C   UNL     1      -2.067  13.296  22.741  0.00  0.00    +0.000 A 
ATOM      8  C   UNL     1      -2.398  14.277  21.810  0.00  0.00    +0.000 A 
ATOM      9  C   UNL     1      -2.225  14.018  20.458  0.00  0.00    +0.000 A 
ATOM     10  C   UNL     1      -1.609  12.830  20.052  0.00  0.00    +0.000 A 
ATOM     11  C   UNL     1      -1.160  11.859  20.983  0.00  0.00    +0.000 A 
ATOM     12  C   UNL     1      -0.411  10.683  20.642  0.00  0.00    +0.000 A 
ATOM     13  C   UNL     1       0.155  10.494  19.255  0.00  0.00    +0.000 C 
ATOM     14  C   UNL     1       1.435  11.250  18.960  0.00  0.00    +0.000 C 
ATOM     15  C   UNL     1       2.204  10.563  18.101  0.00  0.00    +0.000 C 
ATOM     16  C   UNL     1       1.551   9.265  17.740  0.00  0.00    +0.000 C 
ATOM     17  C   UNL     1       0.612   9.055  18.941  0.00  0.00    +0.000 C 
ATOM     18  H   UNL     1      -0.165   7.715  21.350  0.00  0.00    +0.000 HD
ENDROOT
BRANCH   1  23
ATOM     19  C   UNL     1       3.182   5.501  18.571  0.00  0.00    +0.000 A 
ATOM     20  C   UNL     1       2.914   4.492  19.497  0.00  0.00    +0.000 A 
ATOM     21  C   UNL     1       2.177   4.764  20.652  0.00  0.00    +0.000 A 
ATOM     22  C   UNL     1       1.687   6.048  20.894  0.00  0.00    +0.000 A 
ATOM     23  C   UNL     1       1.927   7.078  19.980  0.00  0.00    +0.000 A 
ATOM     24  C   UNL     1       2.708   6.795  18.837  0.00  0.00    +0.000 A 
BRANCH  19  27
ATOM     25  O   UNL     1       6.095   5.206  18.181  0.00  0.00    +0.000 OA
ATOM     26  C   UNL     1       5.281   5.175  17.264  0.00  0.00    +0.000 C 
ATOM     27  N   UNL     1       3.904   5.284  17.374  0.00  0.00    +0.000 N 
ATOM     28  H   UNL     1       3.352   5.035  16.563  0.00  0.00    +0.000 HD
BRANCH  26  29
ATOM     29  C   UNL     1       5.803   4.922  15.894  0.00  0.00    +0.000 A 
ATOM     30  C   UNL     1       4.985   4.227  14.986  0.00  0.00    +0.000 A 
ATOM     31  C   UNL     1       5.443   3.942  13.701  0.00  0.00    +0.000 A 
ATOM     32  C   UNL     1       6.726   4.345  13.333  0.00  0.00    +0.000 A 
ATOM     33  F   UNL     1       7.174   4.068  12.103  0.00  0.00    +0.000 F 
ATOM     34  C   UNL     1       7.551   5.023  14.226  0.00  0.00    +0.000 A 
ATOM     35  C   UNL     1       7.094   5.312  15.512  0.00  0.00    +0.000 A 
ENDBRANCH  26  29
ENDBRANCH  19  27
ENDBRANCH   1  23
TORSDOF 3
ENDMDL
MODEL 3
REMARK VINA RESULT:      -9.3      3.146      5.605
REMARK  Name = 
REMARK  3 active torsions:
REMARK  status: ('A' for Active; 'I' for Inactive)
REMARK    1  A    between atoms: C_2  and  C_27
REMARK    2  A    between atoms: N_3  and  C_4
REMARK    3  A    between atoms: C_8  and  C_9
REMARK                            x       y       z     vdW  Elec       q    Type
REMARK                         _______ _______ _______ _____ _____    ______ ____
ROOT
ATOM      1  C   UNL     1      -1.256  11.603  19.770  0.00  0.00    +0.000 C 
ATOM      2  N   UNL     1      -2.326  11.684  18.779  0.00  0.00    +0.000 N 
ATOM      3  C   UNL     1      -3.619  11.908  19.285  0.00  0.00    +0.000 A 
ATOM      4  C   UNL     1      -4.694  11.584  18.458  0.00  0.00    +0.000 A 
ATOM      5  C   UNL     1      -6.005  11.731  18.901  0.00  0.00    +0.000 A 
ATOM      6  C   UNL     1      -6.277  12.289  20.152  0.00  0.00    +0.000 A 
ATOM      7  C   UNL     1      -7.604  12.366  20.609  0.00  0.00    +0.000 A 
ATOM      8  C   UNL     1      -7.915  12.998  21.810  0.00  0.00    +0.000 A 
ATOM      9  C   UNL     1      -6.908  13.620  22.532  0.00  0.00    +0.000 A 
ATOM     10  C   UNL     1      -5.578  13.500  22.114  0.00  0.00    +0.000 A 
ATOM     11  C   UNL     1      -5.217  12.768  20.954  0.00  0.00    +0.000 A 
ATOM     12  C   UNL     1      -3.868  12.501  20.542  0.00  0.00    +0.000 A 
ATOM     13  C   UNL     1      -2.700  12.805  21.450  0.00  0.00    +0.000 C 
ATOM     14  C   UNL     1      -2.440  11.790  22.546  0.00  0.00    +0.000 C 
ATOM     15  C   UNL     1      -1.128  11.715  22.819  0.00  0.00    +0.000 C 
ATOM     16  C   UNL     1      -0.356  12.641  21.930  0.00  0.00    +0.000 C 
ATOM     17  C   UNL     1      -1.327  12.805  20.748  0.00  0.00    +0.000 C 
ATOM     18  H   UNL     1      -2.120  12.348  18.033  0.00  0.00    +0.000 HD
ENDROOT
BRANCH   1  23
ATOM     19  C   UNL     1       1.785   9.934  18.128  0.00  0.00    +0.000 A 
ATOM     20  C   UNL     1       2.565  11.046  17.808  0.00  0.00    +0.000 A 
ATOM     21  C   UNL     1       2.110  12.337  18.087  0.00  0.00    +0.000 A 
ATOM     22  C   UNL     1       0.873  12.536  18.701  0.00  0.00    +0.000 A 
ATOM     23  C   UNL     1       0.074  11.442  19.046  0.00  0.00    +0.000 A 
ATOM     24  C   UNL     1       0.531  10.145  18.719  0.00  0.00    +0.000 A 
BRANCH  19  27
ATOM     25  O   UNL     1       2.040   7.692  20.035  0.00  0.00    +0.000 OA
ATOM     26  C   UNL     1       2.315   7.603  18.844  0.00  0.00    +0.000 C 
ATOM     27  N   UNL     1       2.199   8.602  17.890  0.00  0.00    +0.000 N 
ATOM     28  H   UNL     1       2.265   8.326  16.918  0.00  0.00    +0.000 HD
BRANCH  26  29
ATOM     29  C   UNL     1       2.748   6.273  18.338  0.00  0.00    +0.000 A 
ATOM     30  C   UNL     1       4.087   6.113  17.940  0.00  0.00    +0.000 A 
ATOM     31  C   UNL     1       4.529   4.892  17.434  0.00  0.00    +0.000 A 
ATOM     32  C   UNL     1       3.625   3.838  17.316  0.00  0.00    +0.000 A 
ATOM     33  F   UNL     1       4.042   2.666  16.823  0.00  0.00    +0.000 F 
ATOM     34  C   UNL     1       2.293   3.986  17.695  0.00  0.00    +0.000 A 
ATOM     35  C   UNL     1       1.848   5.206  18.205  0.00  0.00    +0.000 A 
ENDBRANCH  26  29
ENDBRANCH  19  27
ENDBRANCH   1  23
TORSDOF 3
ENDMDL
MODEL 4
REMARK VINA RESULT:      -9.2      2.812      4.169
REMARK  Name = 
REMARK  3 active torsions:
REMARK  status: ('A' for Active; 'I' for Inactive)
REMARK    1  A    between atoms: C_2  and  C_27
REMARK    2  A    between atoms: N_3  and  C_4
REMARK    3  A    between atoms: C_8  and  C_9
REMARK                            x       y       z     vdW  Elec       q    Type
REMARK                         _______ _______ _______ _____ _____    ______ ____
ROOT
ATOM      1  C   UNL     1       0.991  11.058  18.961  0.00  0.00    +0.000 C 
ATOM      2  N   UNL     1       2.146  11.932  19.153  0.00  0.00    +0.000 N 
ATOM      3  C   UNL     1       1.934  13.297  18.889  0.00  0.00    +0.000 A 
ATOM      4  C   UNL     1       3.062  14.084  18.653  0.00  0.00    +0.000 A 
ATOM      5  C   UNL     1       2.936  15.434  18.338  0.00  0.00    +0.000 A 
ATOM      6  C   UNL     1       1.684  16.054  18.338  0.00  0.00    +0.000 A 
ATOM      7  C   UNL     1       1.571  17.400  17.951  0.00  0.00    +0.000 A 
ATOM      8  C   UNL     1       0.353  18.069  18.028  0.00  0.00    +0.000 A 
ATOM      9  C   UNL     1      -0.750  17.417  18.557  0.00  0.00    +0.000 A 
ATOM     10  C   UNL     1      -0.661  16.061  18.891  0.00  0.00    +0.000 A 
ATOM     11  C   UNL     1       0.537  15.322  18.721  0.00  0.00    +0.000 A 
ATOM     12  C   UNL     1       0.661  13.906  18.924  0.00  0.00    +0.000 A 
ATOM     13  C   UNL     1      -0.557  13.038  19.133  0.00  0.00    +0.000 C 
ATOM     14  C   UNL     1      -1.325  12.672  17.879  0.00  0.00    +0.000 C 
ATOM     15  C   UNL     1      -1.880  11.456  18.003  0.00  0.00    +0.000 C 
ATOM     16  C   UNL     1      -1.534  10.857  19.331  0.00  0.00    +0.000 C 
ATOM     17  C   UNL     1      -0.253  11.632  19.687  0.00  0.00    +0.000 C 
ATOM     18  H   UNL     1       2.580  11.813  20.067  0.00  0.00    +0.000 HD
ENDROOT
BRANCH   1  23
ATOM     19  C   UNL     1       2.479   7.524  18.779  0.00  0.00    +0.000 A 
ATOM     20  C   UNL     1       2.038   6.982  19.988  0.00  0.00    +0.000 A 
ATOM     21  C   UNL     1       1.290   7.752  20.881  0.00  0.00    +0.000 A 
ATOM     22  C   UNL     1       0.960   9.073  20.575  0.00  0.00    +0.000 A 
ATOM     23  C   UNL     1       1.375   9.641  19.367  0.00  0.00    +0.000 A 
ATOM     24  C   UNL     1       2.166   8.861  18.493  0.00  0.00    +0.000 A 
BRANCH  19  27
ATOM     25  O   UNL     1       4.757   5.692  19.202  0.00  0.00    +0.000 OA
ATOM     26  C   UNL     1       4.299   5.960  18.097  0.00  0.00    +0.000 C 
ATOM     27  N   UNL     1       3.221   6.790  17.825  0.00  0.00    +0.000 N 
ATOM     28  H   UNL     1       2.831   6.753  16.892  0.00  0.00    +0.000 HD
BRANCH  26  29
ATOM     29  C   UNL     1       4.901   5.276  16.920  0.00  0.00    +0.000 A 
ATOM     30  C   UNL     1       5.263   6.054  15.808  0.00  0.00    +0.000 A 
ATOM     31  C   UNL     1       5.804   5.452  14.674  0.00  0.00    +0.000 A 
ATOM     32  C   UNL     1       5.969   4.068  14.653  0.00  0.00    +0.000 A 
ATOM     33  F   UNL     1       6.481   3.483  13.563  0.00  0.00    +0.000 F 
ATOM     34  C   UNL     1       5.603   3.283  15.743  0.00  0.00    +0.000 A 
ATOM     35  C   UNL     1       5.064   3.884  16.881  0.00  0.00    +0.000 A 
ENDBRANCH  26  29
ENDBRANCH  19  27
ENDBRANCH   1  23
TORSDOF 3
ENDMDL
MODEL 5
REMARK VINA RESULT:      -8.7      3.574      5.725
REMARK  Name = 
REMARK  3 active torsions:
REMARK  status: ('A' for Active; 'I' for Inactive)
REMARK    1  A    between atoms: C_2  and  C_27
REMARK    2  A    between atoms: N_3  and  C_4
REMARK    3  A    between atoms: C_8  and  C_9
REMARK                            x       y       z     vdW  Elec       q    Type
REMARK                         _______ _______ _______ _____ _____    ______ ____
ROOT
ATOM      1  C   UNL     1      -1.420  11.600  18.354  0.00  0.00    +0.000 C 
ATOM      2  N   UNL     1      -1.603  12.231  19.658  0.00  0.00    +0.000 N 
ATOM      3  C   UNL     1      -2.918  12.614  19.978  0.00  0.00    +0.000 A 
ATOM      4  C   UNL     1      -3.079  13.565  20.986  0.00  0.00    +0.000 A 
ATOM      5  C   UNL     1      -4.344  14.033  21.330  0.00  0.00    +0.000 A 
ATOM      6  C   UNL     1      -5.489  13.497  20.736  0.00  0.00    +0.000 A 
ATOM      7  C   UNL     1      -6.752  14.029  21.048  0.00  0.00    +0.000 A 
ATOM      8  C   UNL     1      -7.916  13.458  20.543  0.00  0.00    +0.000 A 
ATOM      9  C   UNL     1      -7.832  12.306  19.776  0.00  0.00    +0.000 A 
ATOM     10  C   UNL     1      -6.578  11.802  19.414  0.00  0.00    +0.000 A 
ATOM     11  C   UNL     1      -5.371  12.426  19.822  0.00  0.00    +0.000 A 
ATOM     12  C   UNL     1      -4.061  12.036  19.384  0.00  0.00    +0.000 A 
ATOM     13  C   UNL     1      -3.876  11.042  18.262  0.00  0.00    +0.000 C 
ATOM     14  C   UNL     1      -4.050  11.595  16.861  0.00  0.00    +0.000 C 
ATOM     15  C   UNL     1      -3.250  10.952  15.997  0.00  0.00    +0.000 C 
ATOM     16  C   UNL     1      -2.433   9.919  16.710  0.00  0.00    +0.000 C 
ATOM     17  C   UNL     1      -2.453  10.461  18.150  0.00  0.00    +0.000 C 
ATOM     18  H   UNL     1      -1.201  11.684  20.418  0.00  0.00    +0.000 HD
ENDROOT
BRANCH   1  23
ATOM     19  C   UNL     1       1.696   9.366  18.172  0.00  0.00    +0.000 A 
ATOM     20  C   UNL     1       2.708  10.321  18.061  0.00  0.00    +0.000 A 
ATOM     21  C   UNL     1       2.398  11.683  18.012  0.00  0.00    +0.000 A 
ATOM     22  C   UNL     1       1.072  12.111  18.086  0.00  0.00    +0.000 A 
ATOM     23  C   UNL     1       0.037  11.181  18.210  0.00  0.00    +0.000 A 
ATOM     24  C   UNL     1       0.364   9.806  18.217  0.00  0.00    +0.000 A 
BRANCH  19  27
ATOM     25  O   UNL     1       2.044   7.662  20.559  0.00  0.00    +0.000 OA
ATOM     26  C   UNL     1       2.120   7.242  19.410  0.00  0.00    +0.000 C 
ATOM     27  N   UNL     1       1.947   7.976  18.246  0.00  0.00    +0.000 N 
ATOM     28  H   UNL     1       1.835   7.459  17.383  0.00  0.00    +0.000 HD
BRANCH  26  29
ATOM     29  C   UNL     1       2.348   5.783  19.226  0.00  0.00    +0.000 A 
ATOM     30  C   UNL     1       2.488   5.289  17.918  0.00  0.00    +0.000 A 
ATOM     31  C   UNL     1       2.674   3.925  17.697  0.00  0.00    +0.000 A 
ATOM     32  C   UNL     1       2.708   3.060  18.789  0.00  0.00    +0.000 A 
ATOM     33  F   UNL     1       2.880   1.748  18.583  0.00  0.00    +0.000 F 
ATOM     34  C   UNL     1       2.559   3.534  20.089  0.00  0.00    +0.000 A 
ATOM     35  C   UNL     1       2.375   4.899  20.314  0.00  0.00    +0.000 A 
ENDBRANCH  26  29
ENDBRANCH  19  27
ENDBRANCH   1  23
TORSDOF 3
ENDMDL
MODEL 6
REMARK VINA RESULT:      -8.6      3.185      5.927
REMARK  Name = 
REMARK  3 active torsions:
REMARK  status: ('A' for Active; 'I' for Inactive)
REMARK    1  A    between atoms: C_2  and  C_27
REMARK    2  A    between atoms: N_3  and  C_4
REMARK    3  A    between atoms: C_8  and  C_9
REMARK                            x       y       z     vdW  Elec       q    Type
REMARK                         _______ _______ _______ _____ _____    ______ ____
ROOT
ATOM      1  C   UNL     1      -1.571  11.642  20.108  0.00  0.00    +0.000 C 
ATOM      2  N   UNL     1      -2.598  11.849  19.090  0.00  0.00    +0.000 N 
ATOM      3  C   UNL     1      -3.839  12.320  19.555  0.00  0.00    +0.000 A 
ATOM      4  C   UNL     1      -4.943  12.139  18.722  0.00  0.00    +0.000 A 
ATOM      5  C   UNL     1      -6.215  12.534  19.128  0.00  0.00    +0.000 A 
ATOM      6  C   UNL     1      -6.402  13.201  20.340  0.00  0.00    +0.000 A 
ATOM      7  C   UNL     1      -7.701  13.531  20.763  0.00  0.00    +0.000 A 
ATOM      8  C   UNL     1      -7.913  14.275  21.920  0.00  0.00    +0.000 A 
ATOM      9  C   UNL     1      -6.823  14.754  22.630  0.00  0.00    +0.000 A 
ATOM     10  C   UNL     1      -5.529  14.384  22.249  0.00  0.00    +0.000 A 
ATOM     11  C   UNL     1      -5.285  13.536  21.139  0.00  0.00    +0.000 A 
ATOM     12  C   UNL     1      -3.998  13.018  20.772  0.00  0.00    +0.000 A 
ATOM     13  C   UNL     1      -2.806  13.168  21.688  0.00  0.00    +0.000 C 
ATOM     14  C   UNL     1      -2.739  12.188  22.842  0.00  0.00    +0.000 C 
ATOM     15  C   UNL     1      -1.463  11.904  23.148  0.00  0.00    +0.000 C 
ATOM     16  C   UNL     1      -0.532  12.631  22.228  0.00  0.00    +0.000 C 
ATOM     17  C   UNL     1      -1.445  12.892  21.017  0.00  0.00    +0.000 C 
ATOM     18  H   UNL     1      -2.271  12.423  18.315  0.00  0.00    +0.000 HD
ENDROOT
BRANCH   1  23
ATOM     19  C   UNL     1       1.315   9.414  18.905  0.00  0.00    +0.000 A 
ATOM     20  C   UNL     1       2.138  10.352  18.280  0.00  0.00    +0.000 A 
ATOM     21  C   UNL     1       1.762  11.696  18.213  0.00  0.00    +0.000 A 
ATOM     22  C   UNL     1       0.561  12.125  18.779  0.00  0.00    +0.000 A 
ATOM     23  C   UNL     1      -0.280  11.213  19.423  0.00  0.00    +0.000 A 
ATOM     24  C   UNL     1       0.096   9.851  19.447  0.00  0.00    +0.000 A 
BRANCH  19  27
ATOM     25  O   UNL     1       3.419   7.884  17.507  0.00  0.00    +0.000 OA
ATOM     26  C   UNL     1       2.643   7.387  18.315  0.00  0.00    +0.000 C 
ATOM     27  N   UNL     1       1.649   8.045  19.023  0.00  0.00    +0.000 N 
ATOM     28  H   UNL     1       1.228   7.551  19.800  0.00  0.00    +0.000 HD
BRANCH  26  29
ATOM     29  C   UNL     1       2.819   5.944  18.637  0.00  0.00    +0.000 A 
ATOM     30  C   UNL     1       3.545   5.143  17.739  0.00  0.00    +0.000 A 
ATOM     31  C   UNL     1       3.710   3.782  17.986  0.00  0.00    +0.000 A 
ATOM     32  C   UNL     1       3.137   3.224  19.127  0.00  0.00    +0.000 A 
ATOM     33  F   UNL     1       3.286   1.915  19.365  0.00  0.00    +0.000 F 
ATOM     34  C   UNL     1       2.405   4.003  20.019  0.00  0.00    +0.000 A 
ATOM     35  C   UNL     1       2.239   5.367  19.776  0.00  0.00    +0.000 A 
ENDBRANCH  26  29
ENDBRANCH  19  27
ENDBRANCH   1  23
TORSDOF 3
ENDMDL
MODEL 7
REMARK VINA RESULT:      -8.5      3.364      4.903
REMARK  Name = 
REMARK  3 active torsions:
REMARK  status: ('A' for Active; 'I' for Inactive)
REMARK    1  A    between atoms: C_2  and  C_27
REMARK    2  A    between atoms: N_3  and  C_4
REMARK    3  A    between atoms: C_8  and  C_9
REMARK                            x       y       z     vdW  Elec       q    Type
REMARK                         _______ _______ _______ _____ _____    ______ ____
ROOT
ATOM      1  C   UNL     1      -0.236  10.441  20.242  0.00  0.00    +0.000 C 
ATOM      2  N   UNL     1      -1.161  11.343  19.561  0.00  0.00    +0.000 N 
ATOM      3  C   UNL     1      -2.176  11.901  20.360  0.00  0.00    +0.000 A 
ATOM      4  C   UNL     1      -3.295  12.413  19.704  0.00  0.00    +0.000 A 
ATOM      5  C   UNL     1      -4.364  12.940  20.423  0.00  0.00    +0.000 A 
ATOM      6  C   UNL     1      -4.304  13.050  21.814  0.00  0.00    +0.000 A 
ATOM      7  C   UNL     1      -5.419  13.522  22.527  0.00  0.00    +0.000 A 
ATOM      8  C   UNL     1      -5.358  13.729  23.902  0.00  0.00    +0.000 A 
ATOM      9  C   UNL     1      -4.157  13.530  24.568  0.00  0.00    +0.000 A 
ATOM     10  C   UNL     1      -3.059  13.007  23.877  0.00  0.00    +0.000 A 
ATOM     11  C   UNL     1      -3.122  12.682  22.498  0.00  0.00    +0.000 A 
ATOM     12  C   UNL     1      -2.077  12.028  21.763  0.00  0.00    +0.000 A 
ATOM     13  C   UNL     1      -0.884  11.430  22.467  0.00  0.00    +0.000 C 
ATOM     14  C   UNL     1      -1.113  10.077  23.112  0.00  0.00    +0.000 C 
ATOM     15  C   UNL     1       0.009   9.342  23.080  0.00  0.00    +0.000 C 
ATOM     16  C   UNL     1       1.107  10.094  22.394  0.00  0.00    +0.000 C 
ATOM     17  C   UNL     1       0.303  11.092  21.542  0.00  0.00    +0.000 C 
ATOM     18  H   UNL     1      -0.682  12.074  19.038  0.00  0.00    +0.000 HD
ENDROOT
BRANCH   1  23
ATOM     19  C   UNL     1       2.177   8.169  18.305  0.00  0.00    +0.000 A 
ATOM     20  C   UNL     1       2.871   9.104  17.536  0.00  0.00    +0.000 A 
ATOM     21  C   UNL     1       2.551  10.462  17.609  0.00  0.00    +0.000 A 
ATOM     22  C   UNL     1       1.540  10.908  18.461  0.00  0.00    +0.000 A 
ATOM     23  C   UNL     1       0.835   9.998  19.254  0.00  0.00    +0.000 A 
ATOM     24  C   UNL     1       1.143   8.624  19.138  0.00  0.00    +0.000 A 
BRANCH  19  27
ATOM     25  O   UNL     1       1.894   6.184  20.475  0.00  0.00    +0.000 OA
ATOM     26  C   UNL     1       2.328   5.913  19.361  0.00  0.00    +0.000 C 
ATOM     27  N   UNL     1       2.467   6.785  18.291  0.00  0.00    +0.000 N 
ATOM     28  H   UNL     1       2.642   6.378  17.381  0.00  0.00    +0.000 HD
BRANCH  26  29
ATOM     29  C   UNL     1       2.677   4.493  19.087  0.00  0.00    +0.000 A 
ATOM     30  C   UNL     1       3.719   3.906  19.826  0.00  0.00    +0.000 A 
ATOM     31  C   UNL     1       4.097   2.587  19.583  0.00  0.00    +0.000 A 
ATOM     32  C   UNL     1       3.438   1.863  18.592  0.00  0.00    +0.000 A 
ATOM     33  F   UNL     1       3.802   0.598  18.349  0.00  0.00    +0.000 F 
ATOM     34  C   UNL     1       2.412   2.435  17.844  0.00  0.00    +0.000 A 
ATOM     35  C   UNL     1       2.029   3.754  18.087  0.00  0.00    +0.000 A 
ENDBRANCH  26  29
ENDBRANCH  19  27
ENDBRANCH   1  23
TORSDOF 3
ENDMDL
MODEL 8
REMARK VINA RESULT:      -8.5      3.450      5.533
REMARK  Name = 
REMARK  3 active torsions:
REMARK  status: ('A' for Active; 'I' for Inactive)
REMARK    1  A    between atoms: C_2  and  C_27
REMARK    2  A    between atoms: N_3  and  C_4
REMARK    3  A    between atoms: C_8  and  C_9
REMARK                            x       y       z     vdW  Elec       q    Type
REMARK                         _______ _______ _______ _____ _____    ______ ____
ROOT
ATOM      1  C   UNL     1       0.579  11.850  20.086  0.00  0.00    +0.000 C 
ATOM      2  N   UNL     1       1.673  12.741  20.462  0.00  0.00    +0.000 N 
ATOM      3  C   UNL     1       1.715  13.980  19.797  0.00  0.00    +0.000 A 
ATOM      4  C   UNL     1       2.927  14.669  19.804  0.00  0.00    +0.000 A 
ATOM      5  C   UNL     1       3.065  15.878  19.129  0.00  0.00    +0.000 A 
ATOM      6  C   UNL     1       1.969  16.475  18.503  0.00  0.00    +0.000 A 
ATOM      7  C   UNL     1       2.143  17.661  17.770  0.00  0.00    +0.000 A 
ATOM      8  C   UNL     1       1.055  18.327  17.212  0.00  0.00    +0.000 A 
ATOM      9  C   UNL     1      -0.226  17.849  17.440  0.00  0.00    +0.000 A 
ATOM     10  C   UNL     1      -0.405  16.639  18.120  0.00  0.00    +0.000 A 
ATOM     11  C   UNL     1       0.690  15.880  18.605  0.00  0.00    +0.000 A 
ATOM     12  C   UNL     1       0.584  14.576  19.196  0.00  0.00    +0.000 A 
ATOM     13  C   UNL     1      -0.712  13.802  19.152  0.00  0.00    +0.000 C 
ATOM     14  C   UNL     1      -1.014  13.103  17.842  0.00  0.00    +0.000 C 
ATOM     15  C   UNL     1      -1.701  11.970  18.058  0.00  0.00    +0.000 C 
ATOM     16  C   UNL     1      -1.918  11.763  19.525  0.00  0.00    +0.000 C 
ATOM     17  C   UNL     1      -0.775  12.605  20.121  0.00  0.00    +0.000 C 
ATOM     18  H   UNL     1       1.737  12.880  21.469  0.00  0.00    +0.000 HD
ENDROOT
BRANCH   1  23
ATOM     19  C   UNL     1       1.167   8.206  21.140  0.00  0.00    +0.000 A 
ATOM     20  C   UNL     1       0.694   8.224  22.453  0.00  0.00    +0.000 A 
ATOM     21  C   UNL     1       0.212   9.408  23.019  0.00  0.00    +0.000 A 
ATOM     22  C   UNL     1       0.186  10.589  22.277  0.00  0.00    +0.000 A 
ATOM     23  C   UNL     1       0.642  10.601  20.955  0.00  0.00    +0.000 A 
ATOM     24  C   UNL     1       1.163   9.406  20.412  0.00  0.00    +0.000 A 
BRANCH  19  27
ATOM     25  O   UNL     1       2.682   7.946  18.618  0.00  0.00    +0.000 OA
ATOM     26  C   UNL     1       2.338   6.990  19.304  0.00  0.00    +0.000 C 
ATOM     27  N   UNL     1       1.648   7.037  20.506  0.00  0.00    +0.000 N 
ATOM     28  H   UNL     1       1.616   6.189  21.057  0.00  0.00    +0.000 HD
BRANCH  26  29
ATOM     29  C   UNL     1       2.761   5.636  18.855  0.00  0.00    +0.000 A 
ATOM     30  C   UNL     1       4.018   5.158  19.266  0.00  0.00    +0.000 A 
ATOM     31  C   UNL     1       4.466   3.907  18.845  0.00  0.00    +0.000 A 
ATOM     32  C   UNL     1       3.659   3.144  18.004  0.00  0.00    +0.000 A 
ATOM     33  F   UNL     1       4.089   1.945  17.591  0.00  0.00    +0.000 F 
ATOM     34  C   UNL     1       2.418   3.609  17.579  0.00  0.00    +0.000 A 
ATOM     35  C   UNL     1       1.965   4.860  18.000  0.00  0.00    +0.000 A 
ENDBRANCH  26  29
ENDBRANCH  19  27
ENDBRANCH   1  23
TORSDOF 3
ENDMDL
MODEL 9
REMARK VINA RESULT:      -8.4      4.504      6.569
REMARK  Name = 
REMARK  3 active torsions:
REMARK  status: ('A' for Active; 'I' for Inactive)
REMARK    1  A    between atoms: C_2  and  C_27
REMARK    2  A    between atoms: N_3  and  C_4
REMARK    3  A    between atoms: C_8  and  C_9
REMARK                            x       y       z     vdW  Elec       q    Type
REMARK                         _______ _______ _______ _____ _____    ______ ____
ROOT
ATOM      1  C   UNL     1       1.535  13.268  19.302  0.00  0.00    +0.000 C 
ATOM      2  N   UNL     1       2.821  13.325  18.611  0.00  0.00    +0.000 N 
ATOM      3  C   UNL     1       3.672  14.382  18.981  0.00  0.00    +0.000 A 
ATOM      4  C   UNL     1       4.690  14.722  18.091  0.00  0.00    +0.000 A 
ATOM      5  C   UNL     1       5.546  15.787  18.359  0.00  0.00    +0.000 A 
ATOM      6  C   UNL     1       5.461  16.484  19.567  0.00  0.00    +0.000 A 
ATOM      7  C   UNL     1       6.289  17.597  19.791  0.00  0.00    +0.000 A 
ATOM      8  C   UNL     1       6.291  18.255  21.017  0.00  0.00    +0.000 A 
ATOM      9  C   UNL     1       5.516  17.763  22.056  0.00  0.00    +0.000 A 
ATOM     10  C   UNL     1       4.648  16.690  21.826  0.00  0.00    +0.000 A 
ATOM     11  C   UNL     1       4.541  16.068  20.556  0.00  0.00    +0.000 A 
ATOM     12  C   UNL     1       3.584  15.051  20.221  0.00  0.00    +0.000 A 
ATOM     13  C   UNL     1       2.450  14.708  21.157  0.00  0.00    +0.000 C 
ATOM     14  C   UNL     1       1.270  15.658  21.134  0.00  0.00    +0.000 C 
ATOM     15  C   UNL     1       0.128  15.000  21.385  0.00  0.00    +0.000 C 
ATOM     16  C   UNL     1       0.398  13.540  21.580  0.00  0.00    +0.000 C 
ATOM     17  C   UNL     1       1.736  13.379  20.836  0.00  0.00    +0.000 C 
ATOM     18  H   UNL     1       3.324  12.439  18.645  0.00  0.00    +0.000 HD
ENDROOT
BRANCH   1  23
ATOM     19  C   UNL     1       0.879   9.706  18.029  0.00  0.00    +0.000 A 
ATOM     20  C   UNL     1      -0.509   9.723  17.881  0.00  0.00    +0.000 A 
ATOM     21  C   UNL     1      -1.246  10.862  18.215  0.00  0.00    +0.000 A 
ATOM     22  C   UNL     1      -0.605  12.006  18.693  0.00  0.00    +0.000 A 
ATOM     23  C   UNL     1       0.784  12.025  18.841  0.00  0.00    +0.000 A 
ATOM     24  C   UNL     1       1.510  10.852  18.537  0.00  0.00    +0.000 A 
BRANCH  19  27
ATOM     25  O   UNL     1       2.127   7.700  19.802  0.00  0.00    +0.000 OA
ATOM     26  C   UNL     1       2.254   7.700  18.582  0.00  0.00    +0.000 C 
ATOM     27  N   UNL     1       1.681   8.592  17.689  0.00  0.00    +0.000 N 
ATOM     28  H   UNL     1       1.705   8.347  16.707  0.00  0.00    +0.000 HD
BRANCH  26  29
ATOM     29  C   UNL     1       3.038   6.591  17.975  0.00  0.00    +0.000 A 
ATOM     30  C   UNL     1       2.514   5.288  18.040  0.00  0.00    +0.000 A 
ATOM     31  C   UNL     1       3.228   4.216  17.509  0.00  0.00    +0.000 A 
ATOM     32  C   UNL     1       4.471   4.450  16.925  0.00  0.00    +0.000 A 
ATOM     33  F   UNL     1       5.165   3.422  16.421  0.00  0.00    +0.000 F 
ATOM     34  C   UNL     1       5.009   5.732  16.865  0.00  0.00    +0.000 A 
ATOM     35  C   UNL     1       4.295   6.810  17.393  0.00  0.00    +0.000 A 
ENDBRANCH  26  29
ENDBRANCH  19  27
ENDBRANCH   1  23
TORSDOF 3
ENDMDL
