MODEL 1
REMARK VINA RESULT:      -8.3      0.000      0.000
REMARK  Name = 
REMARK  5 active torsions:
REMARK  status: ('A' for Active; 'I' for Inactive)
REMARK    1  A    between atoms: C_2  and  C_3
REMARK    2  A    between atoms: C_3  and  C_4
REMARK    3  A    between atoms: C_4  and  N_5
REMARK    4  A    between atoms: N_11  and  C_12
REMARK    5  A    between atoms: N_20  and  C_21
REMARK                            x       y       z     vdW  Elec       q    Type
REMARK                         _______ _______ _______ _____ _____    ______ ____
ROOT
ATOM      1  C   UNL     1       2.069   7.073  19.605  0.00  0.00    +0.000 A 
ATOM      2  C   UNL     1       1.757   6.199  20.637  0.00  0.00    +0.000 A 
ATOM      3  C   UNL     1       2.273   4.893  20.634  0.00  0.00    +0.000 A 
ATOM      4  C   UNL     1       3.122   4.430  19.638  0.00  0.00    +0.000 A 
ATOM      5  N   UNL     1       3.596   3.178  19.723  0.00  0.00    +0.000 NA
ATOM      6  C   UNL     1       4.419   2.784  18.749  0.00  0.00    +0.000 A 
ATOM      7  N   UNL     1       4.801   3.514  17.701  0.00  0.00    +0.000 NA
ATOM      8  C   UNL     1       4.329   4.771  17.623  0.00  0.00    +0.000 A 
ATOM      9  N   UNL     1       4.763   5.590  16.542  0.00  0.00    +0.000 N 
ATOM     10  C   UNL     1       3.446   5.301  18.589  0.00  0.00    +0.000 A 
ATOM     11  C   UNL     1       2.890   6.605  18.568  0.00  0.00    +0.000 A 
ATOM     12  H   UNL     1       5.211   6.417  16.930  0.00  0.00    +0.000 HD
ENDROOT
BRANCH   9  13
ATOM     13  C   UNL     1       5.458   5.092  15.413  0.00  0.00    +0.000 A 
ATOM     14  C   UNL     1       6.846   5.268  15.296  0.00  0.00    +0.000 A 
ATOM     15  C   UNL     1       7.533   4.837  14.161  0.00  0.00    +0.000 A 
ATOM     16  C   UNL     1       6.832   4.216  13.137  0.00  0.00    +0.000 A 
ATOM     17  F   UNL     1       7.501   3.833  12.039  0.00  0.00    +0.000 F 
ATOM     18  C   UNL     1       5.459   4.002  13.247  0.00  0.00    +0.000 A 
ATOM     19 CL   UNL     1       4.590   3.233  11.974  0.00  0.00    +0.000 Cl
ATOM     20  C   UNL     1       4.772   4.428  14.388  0.00  0.00    +0.000 A 
ENDBRANCH   9  13
BRANCH   1  23
ATOM     21  O   UNL     1       2.180   9.025  17.348  0.00  0.00    +0.000 OA
ATOM     22  C   UNL     1       1.679   9.272  18.440  0.00  0.00    +0.000 C 
ATOM     23  N   UNL     1       1.634   8.413  19.532  0.00  0.00    +0.000 N 
ATOM     24  H   UNL     1       1.133   8.755  20.345  0.00  0.00    +0.000 HD
BRANCH  22  25
ATOM     25  C   UNL     1       1.029  10.619  18.755  0.00  0.00    +0.000 C 
BRANCH  25  26
ATOM     26  C   UNL     1       0.103  10.681  19.985  0.00  0.00    +0.000 C 
BRANCH  26  27
ATOM     27  N   UNL     1       0.755  11.120  21.238  0.00  0.00    +0.000 NA
ATOM     28  C   UNL     1       0.846  10.044  22.251  0.00  0.00    +0.000 C 
ATOM     29  C   UNL     1      -0.531   9.610  22.771  0.00  0.00    +0.000 C 
ATOM     30  O   UNL     1      -1.137  10.702  23.474  0.00  0.00    +0.000 OA
ATOM     31  C   UNL     1      -1.287  11.845  22.621  0.00  0.00    +0.000 C 
ATOM     32  C   UNL     1       0.017  12.238  21.889  0.00  0.00    +0.000 C 
ENDBRANCH  26  27
ENDBRANCH  25  26
ENDBRANCH  22  25
ENDBRANCH   1  23
TORSDOF 5
ENDMDL
MODEL 2
REMARK VINA RESULT:      -8.2      1.658      2.344
REMARK  Name = 
REMARK  5 active torsions:
REMARK  status: ('A' for Active; 'I' for Inactive)
REMARK    1  A    between atoms: C_2  and  C_3
REMARK    2  A    between atoms: C_3  and  C_4
REMARK    3  A    between atoms: C_4  and  N_5
REMARK    4  A    between atoms: N_11  and  C_12
REMARK    5  A    between atoms: N_20  and  C_21
REMARK                            x       y       z     vdW  Elec       q    Type
REMARK                         _______ _______ _______ _____ _____    ______ ____
ROOT
ATOM      1  C   UNL     1       2.059   6.384  20.149  0.00  0.00    +0.000 A 
ATOM      2  C   UNL     1       1.442   5.360  20.852  0.00  0.00    +0.000 A 
ATOM      3  C   UNL     1       1.659   4.022  20.485  0.00  0.00    +0.000 A 
ATOM      4  C   UNL     1       2.504   3.664  19.442  0.00  0.00    +0.000 A 
ATOM      5  N   UNL     1       2.683   2.362  19.173  0.00  0.00    +0.000 NA
ATOM      6  C   UNL     1       3.514   2.068  18.172  0.00  0.00    +0.000 A 
ATOM      7  N   UNL     1       4.171   2.947  17.414  0.00  0.00    +0.000 NA
ATOM      8  C   UNL     1       3.994   4.251  17.691  0.00  0.00    +0.000 A 
ATOM      9  N   UNL     1       4.724   5.208  16.930  0.00  0.00    +0.000 N 
ATOM     10  C   UNL     1       3.135   4.688  18.723  0.00  0.00    +0.000 A 
ATOM     11  C   UNL     1       2.880   6.040  19.064  0.00  0.00    +0.000 A 
ATOM     12  H   UNL     1       5.289   5.759  17.572  0.00  0.00    +0.000 HD
ENDROOT
BRANCH   9  13
ATOM     13  C   UNL     1       5.427   4.892  15.743  0.00  0.00    +0.000 A 
ATOM     14  C   UNL     1       6.803   5.154  15.639  0.00  0.00    +0.000 A 
ATOM     15  C   UNL     1       7.495   4.905  14.454  0.00  0.00    +0.000 A 
ATOM     16  C   UNL     1       6.814   4.379  13.365  0.00  0.00    +0.000 A 
ATOM     17  F   UNL     1       7.486   4.172  12.223  0.00  0.00    +0.000 F 
ATOM     18  C   UNL     1       5.456   4.081  13.458  0.00  0.00    +0.000 A 
ATOM     19 CL   UNL     1       4.610   3.430  12.105  0.00  0.00    +0.000 Cl
ATOM     20  C   UNL     1       4.763   4.324  14.648  0.00  0.00    +0.000 A 
ENDBRANCH   9  13
BRANCH   1  23
ATOM     21  O   UNL     1      -0.185   7.888  21.421  0.00  0.00    +0.000 OA
ATOM     22  C   UNL     1       0.877   8.402  21.084  0.00  0.00    +0.000 C 
ATOM     23  N   UNL     1       1.936   7.755  20.458  0.00  0.00    +0.000 N 
ATOM     24  H   UNL     1       2.765   8.316  20.296  0.00  0.00    +0.000 HD
BRANCH  22  25
ATOM     25  C   UNL     1       1.173   9.885  21.305  0.00  0.00    +0.000 C 
BRANCH  25  26
ATOM     26  C   UNL     1       0.169  10.896  20.720  0.00  0.00    +0.000 C 
BRANCH  26  27
ATOM     27  N   UNL     1       0.217  11.045  19.249  0.00  0.00    +0.000 NA
ATOM     28  C   UNL     1       1.518  11.559  18.762  0.00  0.00    +0.000 C 
ATOM     29  C   UNL     1       1.785  13.002  19.214  0.00  0.00    +0.000 C 
ATOM     30  O   UNL     1       0.818  13.873  18.614  0.00  0.00    +0.000 OA
ATOM     31  C   UNL     1      -0.516  13.496  18.984  0.00  0.00    +0.000 C 
ATOM     32  C   UNL     1      -0.815  11.996  18.751  0.00  0.00    +0.000 C 
ENDBRANCH  26  27
ENDBRANCH  25  26
ENDBRANCH  22  25
ENDBRANCH   1  23
TORSDOF 5
ENDMDL
MODEL 3
REMARK VINA RESULT:      -8.1      0.832      1.191
REMARK  Name = 
REMARK  5 active torsions:
REMARK  status: ('A' for Active; 'I' for Inactive)
REMARK    1  A    between atoms: C_2  and  C_3
REMARK    2  A    between atoms: C_3  and  C_4
REMARK    3  A    between atoms: C_4  and  N_5
REMARK    4  A    between atoms: N_11  and  C_12
REMARK    5  A    between atoms: N_20  and  C_21
REMARK                            x       y       z     vdW  Elec       q    Type
REMARK                         _______ _______ _______ _____ _____    ______ ____
ROOT
ATOM      1  C   UNL     1       2.230   7.236  19.504  0.00  0.00    +0.000 A 
ATOM      2  C   UNL     1       1.732   6.348  20.447  0.00  0.00    +0.000 A 
ATOM      3  C   UNL     1       2.040   4.981  20.360  0.00  0.00    +0.000 A 
ATOM      4  C   UNL     1       2.861   4.465  19.366  0.00  0.00    +0.000 A 
ATOM      5  N   UNL     1       3.133   3.151  19.369  0.00  0.00    +0.000 NA
ATOM      6  C   UNL     1       3.938   2.705  18.402  0.00  0.00    +0.000 A 
ATOM      7  N   UNL     1       4.484   3.442  17.434  0.00  0.00    +0.000 NA
ATOM      8  C   UNL     1       4.214   4.760  17.438  0.00  0.00    +0.000 A 
ATOM      9  N   UNL     1       4.827   5.578  16.447  0.00  0.00    +0.000 N 
ATOM     10  C   UNL     1       3.372   5.349  18.406  0.00  0.00    +0.000 A 
ATOM     11  C   UNL     1       3.024   6.722  18.468  0.00  0.00    +0.000 A 
ATOM     12  H   UNL     1       5.375   6.293  16.920  0.00  0.00    +0.000 HD
ENDROOT
BRANCH   9  13
ATOM     13  C   UNL     1       5.498   5.062  15.312  0.00  0.00    +0.000 A 
ATOM     14  C   UNL     1       6.888   5.210  15.177  0.00  0.00    +0.000 A 
ATOM     15  C   UNL     1       7.552   4.761  14.035  0.00  0.00    +0.000 A 
ATOM     16  C   UNL     1       6.826   4.148  13.023  0.00  0.00    +0.000 A 
ATOM     17  F   UNL     1       7.474   3.748  11.919  0.00  0.00    +0.000 F 
ATOM     18  C   UNL     1       5.452   3.961  13.151  0.00  0.00    +0.000 A 
ATOM     19 CL   UNL     1       4.552   3.203  11.893  0.00  0.00    +0.000 Cl
ATOM     20  C   UNL     1       4.787   4.405  14.299  0.00  0.00    +0.000 A 
ENDBRANCH   9  13
BRANCH   1  23
ATOM     21  O   UNL     1       1.470   9.104  17.302  0.00  0.00    +0.000 OA
ATOM     22  C   UNL     1       1.622   9.450  18.469  0.00  0.00    +0.000 C 
ATOM     23  N   UNL     1       2.010   8.629  19.522  0.00  0.00    +0.000 N 
ATOM     24  H   UNL     1       2.036   9.064  20.437  0.00  0.00    +0.000 HD
BRANCH  22  25
ATOM     25  C   UNL     1       1.414  10.894  18.927  0.00  0.00    +0.000 C 
BRANCH  25  26
ATOM     26  C   UNL     1       0.914  11.107  20.368  0.00  0.00    +0.000 C 
BRANCH  26  27
ATOM     27  N   UNL     1      -0.398  10.496  20.672  0.00  0.00    +0.000 NA
ATOM     28  C   UNL     1      -1.531  11.224  20.054  0.00  0.00    +0.000 C 
ATOM     29  C   UNL     1      -1.716  12.629  20.642  0.00  0.00    +0.000 C 
ATOM     30  O   UNL     1      -2.082  12.520  22.023  0.00  0.00    +0.000 OA
ATOM     31  C   UNL     1      -1.078  11.819  22.769  0.00  0.00    +0.000 C 
ATOM     32  C   UNL     1      -0.676  10.467  22.135  0.00  0.00    +0.000 C 
ENDBRANCH  26  27
ENDBRANCH  25  26
ENDBRANCH  22  25
ENDBRANCH   1  23
TORSDOF 5
ENDMDL
MODEL 4
REMARK VINA RESULT:      -8.0      1.890      2.542
REMARK  Name = 
REMARK  5 active torsions:
REMARK  status: ('A' for Active; 'I' for Inactive)
REMARK    1  A    between atoms: C_2  and  C_3
REMARK    2  A    between atoms: C_3  and  C_4
REMARK    3  A    between atoms: C_4  and  N_5
REMARK    4  A    between atoms: N_11  and  C_12
REMARK    5  A    between atoms: N_20  and  C_21
REMARK                            x       y       z     vdW  Elec       q    Type
REMARK                         _______ _______ _______ _____ _____    ______ ____
ROOT
ATOM      1  C   UNL     1       1.880   6.814  19.931  0.00  0.00    +0.000 A 
ATOM      2  C   UNL     1       1.568   5.885  20.913  0.00  0.00    +0.000 A 
ATOM      3  C   UNL     1       2.119   4.594  20.862  0.00  0.00    +0.000 A 
ATOM      4  C   UNL     1       3.003   4.200  19.866  0.00  0.00    +0.000 A 
ATOM      5  N   UNL     1       3.509   2.959  19.904  0.00  0.00    +0.000 NA
ATOM      6  C   UNL     1       4.364   2.632  18.933  0.00  0.00    +0.000 A 
ATOM      7  N   UNL     1       4.750   3.421  17.929  0.00  0.00    +0.000 NA
ATOM      8  C   UNL     1       4.245   4.667  17.898  0.00  0.00    +0.000 A 
ATOM      9  N   UNL     1       4.681   5.547  16.867  0.00  0.00    +0.000 N 
ATOM     10  C   UNL     1       3.327   5.128  18.866  0.00  0.00    +0.000 A 
ATOM     11  C   UNL     1       2.736   6.416  18.892  0.00  0.00    +0.000 A 
ATOM     12  H   UNL     1       5.098   6.366  17.303  0.00  0.00    +0.000 HD
ENDROOT
BRANCH   9  13
ATOM     13  C   UNL     1       5.414   5.121  15.733  0.00  0.00    +0.000 A 
ATOM     14  C   UNL     1       6.801   5.329  15.661  0.00  0.00    +0.000 A 
ATOM     15  C   UNL     1       7.525   4.970  14.525  0.00  0.00    +0.000 A 
ATOM     16  C   UNL     1       6.864   4.388  13.452  0.00  0.00    +0.000 A 
ATOM     17  F   UNL     1       7.568   4.075  12.354  0.00  0.00    +0.000 F 
ATOM     18  C   UNL     1       5.494   4.142  13.516  0.00  0.00    +0.000 A 
ATOM     19 CL   UNL     1       4.673   3.420  12.183  0.00  0.00    +0.000 Cl
ATOM     20  C   UNL     1       4.769   4.495  14.658  0.00  0.00    +0.000 A 
ENDBRANCH   9  13
BRANCH   1  23
ATOM     21  O   UNL     1       1.488   8.765  22.157  0.00  0.00    +0.000 OA
ATOM     22  C   UNL     1       1.278   9.025  20.976  0.00  0.00    +0.000 C 
ATOM     23  N   UNL     1       1.410   8.144  19.909  0.00  0.00    +0.000 N 
ATOM     24  H   UNL     1       1.249   8.536  18.988  0.00  0.00    +0.000 HD
BRANCH  22  25
ATOM     25  C   UNL     1       0.807  10.404  20.514  0.00  0.00    +0.000 C 
BRANCH  25  26
ATOM     26  C   UNL     1      -0.620  10.502  19.943  0.00  0.00    +0.000 C 
BRANCH  26  27
ATOM     27  N   UNL     1      -0.705  11.001  18.553  0.00  0.00    +0.000 NA
ATOM     28  C   UNL     1      -1.577  12.191  18.417  0.00  0.00    +0.000 C 
ATOM     29  C   UNL     1      -3.050  11.875  18.708  0.00  0.00    +0.000 C 
ATOM     30  O   UNL     1      -3.544  10.965  17.717  0.00  0.00    +0.000 OA
ATOM     31  C   UNL     1      -2.787   9.747  17.712  0.00  0.00    +0.000 C 
ATOM     32  C   UNL     1      -1.260   9.976  17.625  0.00  0.00    +0.000 C 
ENDBRANCH  26  27
ENDBRANCH  25  26
ENDBRANCH  22  25
ENDBRANCH   1  23
TORSDOF 5
ENDMDL
MODEL 5
REMARK VINA RESULT:      -8.0      1.557      1.898
REMARK  Name = 
REMARK  5 active torsions:
REMARK  status: ('A' for Active; 'I' for Inactive)
REMARK    1  A    between atoms: C_2  and  C_3
REMARK    2  A    between atoms: C_3  and  C_4
REMARK    3  A    between atoms: C_4  and  N_5
REMARK    4  A    between atoms: N_11  and  C_12
REMARK    5  A    between atoms: N_20  and  C_21
REMARK                            x       y       z     vdW  Elec       q    Type
REMARK                         _______ _______ _______ _____ _____    ______ ____
ROOT
ATOM      1  C   UNL     1       2.126   7.044  19.541  0.00  0.00    +0.000 A 
ATOM      2  C   UNL     1       1.689   6.140  20.499  0.00  0.00    +0.000 A 
ATOM      3  C   UNL     1       2.071   4.791  20.421  0.00  0.00    +0.000 A 
ATOM      4  C   UNL     1       2.907   4.311  19.422  0.00  0.00    +0.000 A 
ATOM      5  N   UNL     1       3.252   3.015  19.434  0.00  0.00    +0.000 NA
ATOM      6  C   UNL     1       4.068   2.604  18.461  0.00  0.00    +0.000 A 
ATOM      7  N   UNL     1       4.560   3.359  17.480  0.00  0.00    +0.000 NA
ATOM      8  C   UNL     1       4.219   4.660  17.474  0.00  0.00    +0.000 A 
ATOM      9  N   UNL     1       4.773   5.500  16.467  0.00  0.00    +0.000 N 
ATOM     10  C   UNL     1       3.357   5.212  18.447  0.00  0.00    +0.000 A 
ATOM     11  C   UNL     1       2.935   6.564  18.500  0.00  0.00    +0.000 A 
ATOM     12  H   UNL     1       5.286   6.249  16.926  0.00  0.00    +0.000 HD
ENDROOT
BRANCH   9  13
ATOM     13  C   UNL     1       5.457   5.010  15.329  0.00  0.00    +0.000 A 
ATOM     14  C   UNL     1       6.851   5.142  15.224  0.00  0.00    +0.000 A 
ATOM     15  C   UNL     1       7.530   4.719  14.081  0.00  0.00    +0.000 A 
ATOM     16  C   UNL     1       6.815   4.149  13.036  0.00  0.00    +0.000 A 
ATOM     17  F   UNL     1       7.477   3.774  11.932  0.00  0.00    +0.000 F 
ATOM     18  C   UNL     1       5.435   3.980  13.134  0.00  0.00    +0.000 A 
ATOM     19 CL   UNL     1       4.548   3.275  11.835  0.00  0.00    +0.000 Cl
ATOM     20  C   UNL     1       4.755   4.397  14.282  0.00  0.00    +0.000 A 
ENDBRANCH   9  13
BRANCH   1  23
ATOM     21  O   UNL     1       1.759   8.957  17.278  0.00  0.00    +0.000 OA
ATOM     22  C   UNL     1       1.634   9.265  18.459  0.00  0.00    +0.000 C 
ATOM     23  N   UNL     1       1.829   8.423  19.548  0.00  0.00    +0.000 N 
ATOM     24  H   UNL     1       1.632   8.823  20.458  0.00  0.00    +0.000 HD
BRANCH  22  25
ATOM     25  C   UNL     1       1.251  10.678  18.900  0.00  0.00    +0.000 C 
BRANCH  25  26
ATOM     26  C   UNL     1      -0.200  10.897  19.367  0.00  0.00    +0.000 C 
BRANCH  26  27
ATOM     27  N   UNL     1      -0.987  11.840  18.542  0.00  0.00    +0.000 NA
ATOM     28  C   UNL     1      -0.465  13.226  18.590  0.00  0.00    +0.000 C 
ATOM     29  C   UNL     1      -0.610  13.859  19.981  0.00  0.00    +0.000 C 
ATOM     30  O   UNL     1      -2.001  13.997  20.296  0.00  0.00    +0.000 OA
ATOM     31  C   UNL     1      -2.663  12.725  20.279  0.00  0.00    +0.000 C 
ATOM     32  C   UNL     1      -2.407  11.918  18.985  0.00  0.00    +0.000 C 
ENDBRANCH  26  27
ENDBRANCH  25  26
ENDBRANCH  22  25
ENDBRANCH   1  23
TORSDOF 5
ENDMDL
MODEL 6
REMARK VINA RESULT:      -7.9      1.305      1.510
REMARK  Name = 
REMARK  5 active torsions:
REMARK  status: ('A' for Active; 'I' for Inactive)
REMARK    1  A    between atoms: C_2  and  C_3
REMARK    2  A    between atoms: C_3  and  C_4
REMARK    3  A    between atoms: C_4  and  N_5
REMARK    4  A    between atoms: N_11  and  C_12
REMARK    5  A    between atoms: N_20  and  C_21
REMARK                            x       y       z     vdW  Elec       q    Type
REMARK                         _______ _______ _______ _____ _____    ______ ____
ROOT
ATOM      1  C   UNL     1       2.102   7.126  19.664  0.00  0.00    +0.000 A 
ATOM      2  C   UNL     1       1.693   6.229  20.640  0.00  0.00    +0.000 A 
ATOM      3  C   UNL     1       2.106   4.888  20.583  0.00  0.00    +0.000 A 
ATOM      4  C   UNL     1       2.947   4.410  19.586  0.00  0.00    +0.000 A 
ATOM      5  N   UNL     1       3.321   3.123  19.618  0.00  0.00    +0.000 NA
ATOM      6  C   UNL     1       4.140   2.714  18.647  0.00  0.00    +0.000 A 
ATOM      7  N   UNL     1       4.609   3.464  17.649  0.00  0.00    +0.000 NA
ATOM      8  C   UNL     1       4.236   4.756  17.624  0.00  0.00    +0.000 A 
ATOM      9  N   UNL     1       4.764   5.591  16.599  0.00  0.00    +0.000 N 
ATOM     10  C   UNL     1       3.368   5.305  18.593  0.00  0.00    +0.000 A 
ATOM     11  C   UNL     1       2.915   6.647  18.625  0.00  0.00    +0.000 A 
ATOM     12  H   UNL     1       5.263   6.360  17.040  0.00  0.00    +0.000 HD
ENDROOT
BRANCH   9  13
ATOM     13  C   UNL     1       5.453   5.097  15.464  0.00  0.00    +0.000 A 
ATOM     14  C   UNL     1       6.843   5.255  15.349  0.00  0.00    +0.000 A 
ATOM     15  C   UNL     1       7.524   4.828  14.209  0.00  0.00    +0.000 A 
ATOM     16  C   UNL     1       6.815   4.229  13.177  0.00  0.00    +0.000 A 
ATOM     17  F   UNL     1       7.479   3.850  12.075  0.00  0.00    +0.000 F 
ATOM     18  C   UNL     1       5.440   4.033  13.285  0.00  0.00    +0.000 A 
ATOM     19 CL   UNL     1       4.560   3.290  12.002  0.00  0.00    +0.000 Cl
ATOM     20  C   UNL     1       4.758   4.454  14.431  0.00  0.00    +0.000 A 
ENDBRANCH   9  13
BRANCH   1  23
ATOM     21  O   UNL     1       0.108   8.657  21.275  0.00  0.00    +0.000 OA
ATOM     22  C   UNL     1       0.855   9.169  20.448  0.00  0.00    +0.000 C 
ATOM     23  N   UNL     1       1.773   8.498  19.649  0.00  0.00    +0.000 N 
ATOM     24  H   UNL     1       2.353   9.080  19.055  0.00  0.00    +0.000 HD
BRANCH  22  25
ATOM     25  C   UNL     1       0.857  10.672  20.169  0.00  0.00    +0.000 C 
BRANCH  25  26
ATOM     26  C   UNL     1      -0.338  11.486  20.699  0.00  0.00    +0.000 C 
BRANCH  26  27
ATOM     27  N   UNL     1      -0.163  12.041  22.058  0.00  0.00    +0.000 NA
ATOM     28  C   UNL     1      -1.238  11.634  22.992  0.00  0.00    +0.000 C 
ATOM     29  C   UNL     1      -2.604  12.220  22.607  0.00  0.00    +0.000 C 
ATOM     30  O   UNL     1      -2.557  13.647  22.729  0.00  0.00    +0.000 OA
ATOM     31  C   UNL     1      -1.542  14.205  21.883  0.00  0.00    +0.000 C 
ATOM     32  C   UNL     1      -0.161  13.531  22.057  0.00  0.00    +0.000 C 
ENDBRANCH  26  27
ENDBRANCH  25  26
ENDBRANCH  22  25
ENDBRANCH   1  23
TORSDOF 5
ENDMDL
MODEL 7
REMARK VINA RESULT:      -7.8      1.482      1.780
REMARK  Name = 
REMARK  5 active torsions:
REMARK  status: ('A' for Active; 'I' for Inactive)
REMARK    1  A    between atoms: C_2  and  C_3
REMARK    2  A    between atoms: C_3  and  C_4
REMARK    3  A    between atoms: C_4  and  N_5
REMARK    4  A    between atoms: N_11  and  C_12
REMARK    5  A    between atoms: N_20  and  C_21
REMARK                            x       y       z     vdW  Elec       q    Type
REMARK                         _______ _______ _______ _____ _____    ______ ____
ROOT
ATOM      1  C   UNL     1       1.804   5.871  20.421  0.00  0.00    +0.000 A 
ATOM      2  C   UNL     1       1.110   4.776  20.916  0.00  0.00    +0.000 A 
ATOM      3  C   UNL     1       1.326   3.500  20.370  0.00  0.00    +0.000 A 
ATOM      4  C   UNL     1       2.241   3.271  19.350  0.00  0.00    +0.000 A 
ATOM      5  N   UNL     1       2.411   2.018  18.904  0.00  0.00    +0.000 NA
ATOM      6  C   UNL     1       3.311   1.847  17.933  0.00  0.00    +0.000 A 
ATOM      7  N   UNL     1       4.044   2.805  17.366  0.00  0.00    +0.000 NA
ATOM      8  C   UNL     1       3.875   4.059  17.821  0.00  0.00    +0.000 A 
ATOM      9  N   UNL     1       4.684   5.093  17.268  0.00  0.00    +0.000 N 
ATOM     10  C   UNL     1       2.949   4.368  18.840  0.00  0.00    +0.000 A 
ATOM     11  C   UNL     1       2.699   5.663  19.360  0.00  0.00    +0.000 A 
ATOM     12  H   UNL     1       5.209   5.524  18.025  0.00  0.00    +0.000 HD
ENDROOT
BRANCH   9  13
ATOM     13  C   UNL     1       5.471   4.931  16.102  0.00  0.00    +0.000 A 
ATOM     14  C   UNL     1       6.802   5.375  16.074  0.00  0.00    +0.000 A 
ATOM     15  C   UNL     1       7.569   5.279  14.913  0.00  0.00    +0.000 A 
ATOM     16  C   UNL     1       7.007   4.724  13.770  0.00  0.00    +0.000 A 
ATOM     17  F   UNL     1       7.747   4.664  12.653  0.00  0.00    +0.000 F 
ATOM     18  C   UNL     1       5.698   4.247  13.786  0.00  0.00    +0.000 A 
ATOM     19 CL   UNL     1       5.001   3.561  12.368  0.00  0.00    +0.000 Cl
ATOM     20  C   UNL     1       4.932   4.338  14.952  0.00  0.00    +0.000 A 
ENDBRANCH   9  13
BRANCH   1  23
ATOM     21  O   UNL     1       1.400   8.460  18.989  0.00  0.00    +0.000 OA
ATOM     22  C   UNL     1       1.465   8.358  20.209  0.00  0.00    +0.000 C 
ATOM     23  N   UNL     1       1.688   7.185  20.921  0.00  0.00    +0.000 N 
ATOM     24  H   UNL     1       1.659   7.267  21.931  0.00  0.00    +0.000 HD
BRANCH  22  25
ATOM     25  C   UNL     1       1.323   9.563  21.140  0.00  0.00    +0.000 C 
BRANCH  25  26
ATOM     26  C   UNL     1       1.097  10.936  20.479  0.00  0.00    +0.000 C 
BRANCH  26  27
ATOM     27  N   UNL     1       0.735  12.027  21.410  0.00  0.00    +0.000 NA
ATOM     28  C   UNL     1      -0.630  11.882  21.968  0.00  0.00    +0.000 C 
ATOM     29  C   UNL     1      -1.719  12.034  20.898  0.00  0.00    +0.000 C 
ATOM     30  O   UNL     1      -1.693  13.370  20.381  0.00  0.00    +0.000 OA
ATOM     31  C   UNL     1      -0.414  13.676  19.807  0.00  0.00    +0.000 C 
ATOM     32  C   UNL     1       0.771  13.361  20.749  0.00  0.00    +0.000 C 
ENDBRANCH  26  27
ENDBRANCH  25  26
ENDBRANCH  22  25
ENDBRANCH   1  23
TORSDOF 5
ENDMDL
MODEL 8
REMARK VINA RESULT:      -7.8      5.259      9.913
REMARK  Name = 
REMARK  5 active torsions:
REMARK  status: ('A' for Active; 'I' for Inactive)
REMARK    1  A    between atoms: C_2  and  C_3
REMARK    2  A    between atoms: C_3  and  C_4
REMARK    3  A    between atoms: C_4  and  N_5
REMARK    4  A    between atoms: N_11  and  C_12
REMARK    5  A    between atoms: N_20  and  C_21
REMARK                            x       y       z     vdW  Elec       q    Type
REMARK                         _______ _______ _______ _____ _____    ______ ____
ROOT
ATOM      1  C   UNL     1       1.101   8.848  20.753  0.00  0.00    +0.000 A 
ATOM      2  C   UNL     1       0.374   8.374  21.836  0.00  0.00    +0.000 A 
ATOM      3  C   UNL     1      -0.347   9.267  22.645  0.00  0.00    +0.000 A 
ATOM      4  C   UNL     1      -0.391  10.632  22.391  0.00  0.00    +0.000 A 
ATOM      5  N   UNL     1      -1.129  11.415  23.193  0.00  0.00    +0.000 NA
ATOM      6  C   UNL     1      -1.151  12.717  22.901  0.00  0.00    +0.000 A 
ATOM      7  N   UNL     1      -0.502  13.306  21.896  0.00  0.00    +0.000 NA
ATOM      8  C   UNL     1       0.231  12.517  21.091  0.00  0.00    +0.000 A 
ATOM      9  N   UNL     1       0.891  13.113  19.979  0.00  0.00    +0.000 N 
ATOM     10  C   UNL     1       0.338  11.125  21.301  0.00  0.00    +0.000 A 
ATOM     11  C   UNL     1       1.102  10.230  20.511  0.00  0.00    +0.000 A 
ATOM     12  H   UNL     1       0.559  12.660  19.132  0.00  0.00    +0.000 HD
ENDROOT
BRANCH   9  13
ATOM     13  C   UNL     1       1.032  14.512  19.811  0.00  0.00    +0.000 A 
ATOM     14  C   UNL     1       2.040  15.214  20.491  0.00  0.00    +0.000 A 
ATOM     15  C   UNL     1       2.151  16.600  20.382  0.00  0.00    +0.000 A 
ATOM     16  C   UNL     1       1.255  17.294  19.580  0.00  0.00    +0.000 A 
ATOM     17  F   UNL     1       1.355  18.630  19.509  0.00  0.00    +0.000 F 
ATOM     18  C   UNL     1       0.267  16.613  18.872  0.00  0.00    +0.000 A 
ATOM     19 CL   UNL     1      -0.847  17.475  17.879  0.00  0.00    +0.000 Cl
ATOM     20  C   UNL     1       0.160  15.223  18.975  0.00  0.00    +0.000 A 
ENDBRANCH   9  13
BRANCH   1  23
ATOM     21  O   UNL     1       1.718   9.222  17.855  0.00  0.00    +0.000 OA
ATOM     22  C   UNL     1       2.117   8.272  18.521  0.00  0.00    +0.000 C 
ATOM     23  N   UNL     1       1.829   8.033  19.859  0.00  0.00    +0.000 N 
ATOM     24  H   UNL     1       2.284   7.228  20.274  0.00  0.00    +0.000 HD
BRANCH  22  25
ATOM     25  C   UNL     1       3.003   7.175  17.930  0.00  0.00    +0.000 C 
BRANCH  25  26
ATOM     26  C   UNL     1       3.432   6.036  18.875  0.00  0.00    +0.000 C 
BRANCH  26  27
ATOM     27  N   UNL     1       2.375   5.048  19.184  0.00  0.00    +0.000 NA
ATOM     28  C   UNL     1       2.849   3.949  20.056  0.00  0.00    +0.000 C 
ATOM     29  C   UNL     1       3.892   3.059  19.365  0.00  0.00    +0.000 C 
ATOM     30  O   UNL     1       3.281   2.388  18.257  0.00  0.00    +0.000 OA
ATOM     31  C   UNL     1       2.753   3.328  17.311  0.00  0.00    +0.000 C 
ATOM     32  C   UNL     1       1.841   4.398  17.955  0.00  0.00    +0.000 C 
ENDBRANCH  26  27
ENDBRANCH  25  26
ENDBRANCH  22  25
ENDBRANCH   1  23
TORSDOF 5
ENDMDL
MODEL 9
REMARK VINA RESULT:      -7.7      1.588      1.937
REMARK  Name = 
REMARK  5 active torsions:
REMARK  status: ('A' for Active; 'I' for Inactive)
REMARK    1  A    between atoms: C_2  and  C_3
REMARK    2  A    between atoms: C_3  and  C_4
REMARK    3  A    between atoms: C_4  and  N_5
REMARK    4  A    between atoms: N_11  and  C_12
REMARK    5  A    between atoms: N_20  and  C_21
REMARK                            x       y       z     vdW  Elec       q    Type
REMARK                         _______ _______ _______ _____ _____    ______ ____
ROOT
ATOM      1  C   UNL     1       2.034   6.270  20.017  0.00  0.00    +0.000 A 
ATOM      2  C   UNL     1       1.447   5.230  20.725  0.00  0.00    +0.000 A 
ATOM      3  C   UNL     1       1.705   3.898  20.365  0.00  0.00    +0.000 A 
ATOM      4  C   UNL     1       2.562   3.561  19.325  0.00  0.00    +0.000 A 
ATOM      5  N   UNL     1       2.781   2.264  19.062  0.00  0.00    +0.000 NA
ATOM      6  C   UNL     1       3.622   1.991  18.063  0.00  0.00    +0.000 A 
ATOM      7  N   UNL     1       4.252   2.885  17.301  0.00  0.00    +0.000 NA
ATOM      8  C   UNL     1       4.036   4.184  17.572  0.00  0.00    +0.000 A 
ATOM      9  N   UNL     1       4.737   5.160  16.808  0.00  0.00    +0.000 N 
ATOM     10  C   UNL     1       3.162   4.600  18.601  0.00  0.00    +0.000 A 
ATOM     11  C   UNL     1       2.866   5.945  18.935  0.00  0.00    +0.000 A 
ATOM     12  H   UNL     1       5.284   5.731  17.447  0.00  0.00    +0.000 HD
ENDROOT
BRANCH   9  13
ATOM     13  C   UNL     1       5.452   4.860  15.623  0.00  0.00    +0.000 A 
ATOM     14  C   UNL     1       6.821   5.154  15.523  0.00  0.00    +0.000 A 
ATOM     15  C   UNL     1       7.522   4.921  14.340  0.00  0.00    +0.000 A 
ATOM     16  C   UNL     1       6.857   4.379  13.249  0.00  0.00    +0.000 A 
ATOM     17  F   UNL     1       7.538   4.187  12.110  0.00  0.00    +0.000 F 
ATOM     18  C   UNL     1       5.506   4.049  13.338  0.00  0.00    +0.000 A 
ATOM     19 CL   UNL     1       4.679   3.377  11.983  0.00  0.00    +0.000 Cl
ATOM     20  C   UNL     1       4.804   4.276  14.526  0.00  0.00    +0.000 A 
ENDBRANCH   9  13
BRANCH   1  23
ATOM     21  O   UNL     1       1.479   8.594  18.228  0.00  0.00    +0.000 OA
ATOM     22  C   UNL     1       1.576   8.680  19.448  0.00  0.00    +0.000 C 
ATOM     23  N   UNL     1       1.868   7.638  20.320  0.00  0.00    +0.000 N 
ATOM     24  H   UNL     1       1.858   7.869  21.307  0.00  0.00    +0.000 HD
BRANCH  22  25
ATOM     25  C   UNL     1       1.399  10.004  20.191  0.00  0.00    +0.000 C 
BRANCH  25  26
ATOM     26  C   UNL     1       0.679  11.140  19.440  0.00  0.00    +0.000 C 
BRANCH  26  27
ATOM     27  N   UNL     1       1.469  12.380  19.275  0.00  0.00    +0.000 NA
ATOM     28  C   UNL     1       1.813  13.022  20.565  0.00  0.00    +0.000 C 
ATOM     29  C   UNL     1       0.577  13.555  21.303  0.00  0.00    +0.000 C 
ATOM     30  O   UNL     1      -0.016  14.610  20.533  0.00  0.00    +0.000 OA
ATOM     31  C   UNL     1      -0.400  14.146  19.232  0.00  0.00    +0.000 C 
ATOM     32  C   UNL     1       0.736  13.408  18.485  0.00  0.00    +0.000 C 
ENDBRANCH  26  27
ENDBRANCH  25  26
ENDBRANCH  22  25
ENDBRANCH   1  23
TORSDOF 5
ENDMDL
