MODEL 1
REMARK VINA RESULT:      -7.3      0.000      0.000
REMARK  Name = 
REMARK  7 active torsions:
REMARK  status: ('A' for Active; 'I' for Inactive)
REMARK    1  A    between atoms: C_2  and  C_3
REMARK    2  A    between atoms: C_3  and  O_4
REMARK    3  A    between atoms: O_4  and  C_5
REMARK    4  A    between atoms: C_5  and  C_7
REMARK    5  A    between atoms: N_14  and  C_15
REMARK    6  A    between atoms: C_15  and  C_16
REMARK    7  A    between atoms: C_16  and  C_17
REMARK                            x       y       z     vdW  Elec       q    Type
REMARK                         _______ _______ _______ _____ _____    ______ ____
ROOT
ATOM      1  O   UNL     1       1.209   2.831  21.205  0.00  0.00    +0.000 OA
ATOM      2  C   UNL     1       1.203   3.204  20.035  0.00  0.00    +0.000 C 
ATOM      3  N   UNL     1       1.376   4.520  19.657  0.00  0.00    +0.000 N 
ATOM      4  H   UNL     1       1.590   4.698  18.682  0.00  0.00    +0.000 HD
ENDROOT
BRANCH   2   5
ATOM      5  C   UNL     1       1.070   2.225  18.864  0.00  0.00    +0.000 C 
BRANCH   5   6
ATOM      6  O   UNL     1       1.997   2.462  17.802  0.00  0.00    +0.000 OA
BRANCH   6   7
ATOM      7  C   UNL     1       3.279   2.139  18.101  0.00  0.00    +0.000 C 
ATOM      8  O   UNL     1       3.713   1.030  18.358  0.00  0.00    +0.000 OA
BRANCH   7   9
ATOM      9  C   UNL     1       4.133   3.346  17.986  0.00  0.00    +0.000 A 
ATOM     10  C   UNL     1       4.186   4.008  16.756  0.00  0.00    +0.000 A 
ATOM     11  C   UNL     1       4.966   5.159  16.634  0.00  0.00    +0.000 A 
ATOM     12  N   UNL     1       5.700   5.654  17.700  0.00  0.00    +0.000 N 
ATOM     13  O   UNL     1       6.397   6.702  17.578  0.00  0.00    +0.000 OA
ATOM     14  C   UNL     1       5.650   4.975  18.906  0.00  0.00    +0.000 A 
ATOM     15  C   UNL     1       4.874   3.825  19.067  0.00  0.00    +0.000 A 
ENDBRANCH   7   9
ENDBRANCH   6   7
ENDBRANCH   5   6
ENDBRANCH   2   5
BRANCH   3  16
ATOM     16  C   UNL     1       1.613   5.572  20.632  0.00  0.00    +0.000 C 
BRANCH  16  17
ATOM     17  C   UNL     1       2.267   6.788  19.976  0.00  0.00    +0.000 C 
BRANCH  17  18
ATOM     18  C   UNL     1       1.592   8.092  20.332  0.00  0.00    +0.000 A 
ATOM     19  C   UNL     1       1.141   8.277  21.651  0.00  0.00    +0.000 A 
ATOM     20  C   UNL     1       0.488   9.453  22.026  0.00  0.00    +0.000 A 
ATOM     21  C   UNL     1       0.284  10.459  21.087  0.00  0.00    +0.000 A 
ATOM     22 CL   UNL     1      -0.534  11.901  21.544  0.00  0.00    +0.000 Cl
ATOM     23  C   UNL     1       0.739  10.307  19.780  0.00  0.00    +0.000 A 
ATOM     24  C   UNL     1       1.396   9.131  19.406  0.00  0.00    +0.000 A 
ATOM     25 CL   UNL     1       1.948   9.010  17.774  0.00  0.00    +0.000 Cl
ENDBRANCH  17  18
ENDBRANCH  16  17
ENDBRANCH   3  16
TORSDOF 7
ENDMDL
MODEL 2
REMARK VINA RESULT:      -7.2      5.515      7.456
REMARK  Name = 
REMARK  7 active torsions:
REMARK  status: ('A' for Active; 'I' for Inactive)
REMARK    1  A    between atoms: C_2  and  C_3
REMARK    2  A    between atoms: C_3  and  O_4
REMARK    3  A    between atoms: O_4  and  C_5
REMARK    4  A    between atoms: C_5  and  C_7
REMARK    5  A    between atoms: N_14  and  C_15
REMARK    6  A    between atoms: C_15  and  C_16
REMARK    7  A    between atoms: C_16  and  C_17
REMARK                            x       y       z     vdW  Elec       q    Type
REMARK                         _______ _______ _______ _____ _____    ______ ____
ROOT
ATOM      1  O   UNL     1       5.644   7.531  17.315  0.00  0.00    +0.000 OA
ATOM      2  C   UNL     1       6.754   7.012  17.228  0.00  0.00    +0.000 C 
ATOM      3  N   UNL     1       7.933   7.702  17.429  0.00  0.00    +0.000 N 
ATOM      4  H   UNL     1       8.773   7.152  17.567  0.00  0.00    +0.000 HD
ENDROOT
BRANCH   2   5
ATOM      5  C   UNL     1       6.939   5.517  16.950  0.00  0.00    +0.000 C 
BRANCH   5   6
ATOM      6  O   UNL     1       5.736   4.753  17.062  0.00  0.00    +0.000 OA
BRANCH   6   7
ATOM      7  C   UNL     1       5.506   4.258  18.303  0.00  0.00    +0.000 C 
ATOM      8  O   UNL     1       6.258   4.305  19.260  0.00  0.00    +0.000 OA
BRANCH   7   9
ATOM      9  C   UNL     1       4.131   3.706  18.369  0.00  0.00    +0.000 A 
ATOM     10  C   UNL     1       3.089   4.451  17.811  0.00  0.00    +0.000 A 
ATOM     11  C   UNL     1       1.790   3.937  17.843  0.00  0.00    +0.000 A 
ATOM     12  N   UNL     1       1.510   2.713  18.427  0.00  0.00    +0.000 N 
ATOM     13  O   UNL     1       0.330   2.256  18.442  0.00  0.00    +0.000 OA
ATOM     14  C   UNL     1       2.553   1.997  18.991  0.00  0.00    +0.000 A 
ATOM     15  C   UNL     1       3.864   2.475  18.970  0.00  0.00    +0.000 A 
ENDBRANCH   7   9
ENDBRANCH   6   7
ENDBRANCH   5   6
ENDBRANCH   2   5
BRANCH   3  16
ATOM     16  C   UNL     1       7.944   9.108  17.797  0.00  0.00    +0.000 C 
BRANCH  16  17
ATOM     17  C   UNL     1       8.897   9.360  18.965  0.00  0.00    +0.000 C 
BRANCH  17  18
ATOM     18  C   UNL     1       9.551  10.720  18.917  0.00  0.00    +0.000 A 
ATOM     19  C   UNL     1      10.159  11.132  17.717  0.00  0.00    +0.000 A 
ATOM     20  C   UNL     1      10.800  12.369  17.627  0.00  0.00    +0.000 A 
ATOM     21  C   UNL     1      10.836  13.210  18.735  0.00  0.00    +0.000 A 
ATOM     22 CL   UNL     1      11.639  14.728  18.629  0.00  0.00    +0.000 Cl
ATOM     23  C   UNL     1      10.226  12.833  19.928  0.00  0.00    +0.000 A 
ATOM     24  C   UNL     1       9.581  11.596  20.017  0.00  0.00    +0.000 A 
ATOM     25 CL   UNL     1       8.831  11.193  21.519  0.00  0.00    +0.000 Cl
ENDBRANCH  17  18
ENDBRANCH  16  17
ENDBRANCH   3  16
TORSDOF 7
ENDMDL
MODEL 3
REMARK VINA RESULT:      -6.9      5.518      7.213
REMARK  Name = 
REMARK  7 active torsions:
REMARK  status: ('A' for Active; 'I' for Inactive)
REMARK    1  A    between atoms: C_2  and  C_3
REMARK    2  A    between atoms: C_3  and  O_4
REMARK    3  A    between atoms: O_4  and  C_5
REMARK    4  A    between atoms: C_5  and  C_7
REMARK    5  A    between atoms: N_14  and  C_15
REMARK    6  A    between atoms: C_15  and  C_16
REMARK    7  A    between atoms: C_16  and  C_17
REMARK                            x       y       z     vdW  Elec       q    Type
REMARK                         _______ _______ _______ _____ _____    ______ ____
ROOT
ATOM      1  O   UNL     1       6.278   7.419  16.542  0.00  0.00    +0.000 OA
ATOM      2  C   UNL     1       7.194   7.013  17.253  0.00  0.00    +0.000 C 
ATOM      3  N   UNL     1       8.072   7.850  17.913  0.00  0.00    +0.000 N 
ATOM      4  H   UNL     1       8.636   7.442  18.650  0.00  0.00    +0.000 HD
ENDROOT
BRANCH   2   5
ATOM      5  C   UNL     1       7.414   5.523  17.534  0.00  0.00    +0.000 C 
BRANCH   5   6
ATOM      6  O   UNL     1       6.206   4.759  17.588  0.00  0.00    +0.000 OA
BRANCH   6   7
ATOM      7  C   UNL     1       5.696   4.613  18.836  0.00  0.00    +0.000 C 
ATOM      8  O   UNL     1       6.213   4.961  19.882  0.00  0.00    +0.000 OA
BRANCH   7   9
ATOM      9  C   UNL     1       4.336   4.028  18.749  0.00  0.00    +0.000 A 
ATOM     10  C   UNL     1       3.606   4.215  17.572  0.00  0.00    +0.000 A 
ATOM     11  C   UNL     1       2.333   3.653  17.462  0.00  0.00    +0.000 A 
ATOM     12  N   UNL     1       1.770   2.926  18.498  0.00  0.00    +0.000 N 
ATOM     13  O   UNL     1       0.618   2.416  18.382  0.00  0.00    +0.000 OA
ATOM     14  C   UNL     1       2.500   2.766  19.664  0.00  0.00    +0.000 A 
ATOM     15  C   UNL     1       3.780   3.307  19.806  0.00  0.00    +0.000 A 
ENDBRANCH   7   9
ENDBRANCH   6   7
ENDBRANCH   5   6
ENDBRANCH   2   5
BRANCH   3  16
ATOM     16  C   UNL     1       7.953   9.296  17.837  0.00  0.00    +0.000 C 
BRANCH  16  17
ATOM     17  C   UNL     1       9.068   9.978  18.629  0.00  0.00    +0.000 C 
BRANCH  17  18
ATOM     18  C   UNL     1       9.021  11.486  18.548  0.00  0.00    +0.000 A 
ATOM     19  C   UNL     1       8.185  12.081  17.586  0.00  0.00    +0.000 A 
ATOM     20  C   UNL     1       8.123  13.470  17.452  0.00  0.00    +0.000 A 
ATOM     21  C   UNL     1       8.893  14.278  18.283  0.00  0.00    +0.000 A 
ATOM     22 CL   UNL     1       8.829  15.988  18.108  0.00  0.00    +0.000 Cl
ATOM     23  C   UNL     1       9.714  13.713  19.255  0.00  0.00    +0.000 A 
ATOM     24  C   UNL     1       9.772  12.323  19.392  0.00  0.00    +0.000 A 
ATOM     25 CL   UNL     1      10.798  11.685  20.626  0.00  0.00    +0.000 Cl
ENDBRANCH  17  18
ENDBRANCH  16  17
ENDBRANCH   3  16
TORSDOF 7
ENDMDL
MODEL 4
REMARK VINA RESULT:      -6.8      1.567      1.932
REMARK  Name = 
REMARK  7 active torsions:
REMARK  status: ('A' for Active; 'I' for Inactive)
REMARK    1  A    between atoms: C_2  and  C_3
REMARK    2  A    between atoms: C_3  and  O_4
REMARK    3  A    between atoms: O_4  and  C_5
REMARK    4  A    between atoms: C_5  and  C_7
REMARK    5  A    between atoms: N_14  and  C_15
REMARK    6  A    between atoms: C_15  and  C_16
REMARK    7  A    between atoms: C_16  and  C_17
REMARK                            x       y       z     vdW  Elec       q    Type
REMARK                         _______ _______ _______ _____ _____    ______ ____
ROOT
ATOM      1  O   UNL     1       1.302   4.727  17.688  0.00  0.00    +0.000 OA
ATOM      2  C   UNL     1       2.173   4.247  18.410  0.00  0.00    +0.000 C 
ATOM      3  N   UNL     1       2.450   4.716  19.678  0.00  0.00    +0.000 N 
ATOM      4  H   UNL     1       3.010   4.122  20.279  0.00  0.00    +0.000 HD
ENDROOT
BRANCH   2   5
ATOM      5  C   UNL     1       2.999   3.026  17.995  0.00  0.00    +0.000 C 
BRANCH   5   6
ATOM      6  O   UNL     1       4.351   3.333  17.643  0.00  0.00    +0.000 OA
BRANCH   6   7
ATOM      7  C   UNL     1       5.117   3.742  18.684  0.00  0.00    +0.000 C 
ATOM      8  O   UNL     1       5.249   3.182  19.758  0.00  0.00    +0.000 OA
BRANCH   7   9
ATOM      9  C   UNL     1       5.867   4.961  18.298  0.00  0.00    +0.000 A 
ATOM     10  C   UNL     1       5.326   5.789  17.310  0.00  0.00    +0.000 A 
ATOM     11  C   UNL     1       6.007   6.954  16.949  0.00  0.00    +0.000 A 
ATOM     12  N   UNL     1       7.213   7.299  17.536  0.00  0.00    +0.000 N 
ATOM     13  O   UNL     1       7.815   8.361  17.204  0.00  0.00    +0.000 OA
ATOM     14  C   UNL     1       7.743   6.457  18.499  0.00  0.00    +0.000 A 
ATOM     15  C   UNL     1       7.086   5.290  18.892  0.00  0.00    +0.000 A 
ENDBRANCH   7   9
ENDBRANCH   6   7
ENDBRANCH   5   6
ENDBRANCH   2   5
BRANCH   3  16
ATOM     16  C   UNL     1       1.698   5.808  20.272  0.00  0.00    +0.000 C 
BRANCH  16  17
ATOM     17  C   UNL     1       2.244   7.160  19.814  0.00  0.00    +0.000 C 
BRANCH  17  18
ATOM     18  C   UNL     1       1.464   8.333  20.360  0.00  0.00    +0.000 A 
ATOM     19  C   UNL     1       1.136   8.345  21.728  0.00  0.00    +0.000 A 
ATOM     20  C   UNL     1       0.395   9.392  22.278  0.00  0.00    +0.000 A 
ATOM     21  C   UNL     1      -0.022  10.443  21.467  0.00  0.00    +0.000 A 
ATOM     22 CL   UNL     1      -0.948  11.727  22.141  0.00  0.00    +0.000 Cl
ATOM     23  C   UNL     1       0.306  10.464  20.114  0.00  0.00    +0.000 A 
ATOM     24  C   UNL     1       1.052   9.417  19.564  0.00  0.00    +0.000 A 
ATOM     25 CL   UNL     1       1.439   9.509  17.884  0.00  0.00    +0.000 Cl
ENDBRANCH  17  18
ENDBRANCH  16  17
ENDBRANCH   3  16
TORSDOF 7
ENDMDL
MODEL 5
REMARK VINA RESULT:      -6.8      5.669      7.607
REMARK  Name = 
REMARK  7 active torsions:
REMARK  status: ('A' for Active; 'I' for Inactive)
REMARK    1  A    between atoms: C_2  and  C_3
REMARK    2  A    between atoms: C_3  and  O_4
REMARK    3  A    between atoms: O_4  and  C_5
REMARK    4  A    between atoms: C_5  and  C_7
REMARK    5  A    between atoms: N_14  and  C_15
REMARK    6  A    between atoms: C_15  and  C_16
REMARK    7  A    between atoms: C_16  and  C_17
REMARK                            x       y       z     vdW  Elec       q    Type
REMARK                         _______ _______ _______ _____ _____    ______ ____
ROOT
ATOM      1  O   UNL     1       7.389   7.114  16.587  0.00  0.00    +0.000 OA
ATOM      2  C   UNL     1       7.546   6.888  17.785  0.00  0.00    +0.000 C 
ATOM      3  N   UNL     1       8.088   7.803  18.665  0.00  0.00    +0.000 N 
ATOM      4  H   UNL     1       7.964   7.623  19.655  0.00  0.00    +0.000 HD
ENDROOT
BRANCH   2   5
ATOM      5  C   UNL     1       7.090   5.580  18.438  0.00  0.00    +0.000 C 
BRANCH   5   6
ATOM      6  O   UNL     1       5.932   5.001  17.831  0.00  0.00    +0.000 OA
BRANCH   6   7
ATOM      7  C   UNL     1       4.767   5.607  18.167  0.00  0.00    +0.000 C 
ATOM      8  O   UNL     1       4.311   6.631  17.689  0.00  0.00    +0.000 OA
BRANCH   7   9
ATOM      9  C   UNL     1       4.051   4.782  19.170  0.00  0.00    +0.000 A 
ATOM     10  C   UNL     1       4.432   3.446  19.325  0.00  0.00    +0.000 A 
ATOM     11  C   UNL     1       3.785   2.659  20.280  0.00  0.00    +0.000 A 
ATOM     12  N   UNL     1       2.765   3.168  21.068  0.00  0.00    +0.000 N 
ATOM     13  O   UNL     1       2.193   2.446  21.935  0.00  0.00    +0.000 OA
ATOM     14  C   UNL     1       2.389   4.489  20.887  0.00  0.00    +0.000 A 
ATOM     15  C   UNL     1       3.019   5.307  19.948  0.00  0.00    +0.000 A 
ENDBRANCH   7   9
ENDBRANCH   6   7
ENDBRANCH   5   6
ENDBRANCH   2   5
BRANCH   3  16
ATOM     16  C   UNL     1       8.489   9.133  18.237  0.00  0.00    +0.000 C 
BRANCH  16  17
ATOM     17  C   UNL     1       9.395   9.791  19.276  0.00  0.00    +0.000 C 
BRANCH  17  18
ATOM     18  C   UNL     1       9.656  11.253  18.999  0.00  0.00    +0.000 A 
ATOM     19  C   UNL     1      10.139  11.621  17.730  0.00  0.00    +0.000 A 
ATOM     20  C   UNL     1      10.421  12.955  17.430  0.00  0.00    +0.000 A 
ATOM     21  C   UNL     1      10.217  13.937  18.394  0.00  0.00    +0.000 A 
ATOM     22 CL   UNL     1      10.578  15.579  18.030  0.00  0.00    +0.000 Cl
ATOM     23  C   UNL     1       9.722  13.601  19.651  0.00  0.00    +0.000 A 
ATOM     24  C   UNL     1       9.436  12.266  19.950  0.00  0.00    +0.000 A 
ATOM     25 CL   UNL     1       8.811  11.916  21.521  0.00  0.00    +0.000 Cl
ENDBRANCH  17  18
ENDBRANCH  16  17
ENDBRANCH   3  16
TORSDOF 7
ENDMDL
MODEL 6
REMARK VINA RESULT:      -6.8      5.990      7.719
REMARK  Name = 
REMARK  7 active torsions:
REMARK  status: ('A' for Active; 'I' for Inactive)
REMARK    1  A    between atoms: C_2  and  C_3
REMARK    2  A    between atoms: C_3  and  O_4
REMARK    3  A    between atoms: O_4  and  C_5
REMARK    4  A    between atoms: C_5  and  C_7
REMARK    5  A    between atoms: N_14  and  C_15
REMARK    6  A    between atoms: C_15  and  C_16
REMARK    7  A    between atoms: C_16  and  C_17
REMARK                            x       y       z     vdW  Elec       q    Type
REMARK                         _______ _______ _______ _____ _____    ______ ____
ROOT
ATOM      1  O   UNL     1       7.599   7.160  16.648  0.00  0.00    +0.000 OA
ATOM      2  C   UNL     1       7.859   6.915  17.823  0.00  0.00    +0.000 C 
ATOM      3  N   UNL     1       8.356   7.855  18.703  0.00  0.00    +0.000 N 
ATOM      4  H   UNL     1       8.318   7.630  19.691  0.00  0.00    +0.000 HD
ENDROOT
BRANCH   2   5
ATOM      5  C   UNL     1       7.591   5.544  18.452  0.00  0.00    +0.000 C 
BRANCH   5   6
ATOM      6  O   UNL     1       6.300   5.425  19.055  0.00  0.00    +0.000 OA
BRANCH   6   7
ATOM      7  C   UNL     1       5.296   5.185  18.177  0.00  0.00    +0.000 C 
ATOM      8  O   UNL     1       5.240   4.283  17.359  0.00  0.00    +0.000 OA
BRANCH   7   9
ATOM      9  C   UNL     1       4.194   6.149  18.409  0.00  0.00    +0.000 A 
ATOM     10  C   UNL     1       4.018   7.191  17.493  0.00  0.00    +0.000 A 
ATOM     11  C   UNL     1       2.972   8.096  17.682  0.00  0.00    +0.000 A 
ATOM     12  N   UNL     1       2.113   7.994  18.764  0.00  0.00    +0.000 N 
ATOM     13  O   UNL     1       1.164   8.817  18.919  0.00  0.00    +0.000 OA
ATOM     14  C   UNL     1       2.313   6.967  19.671  0.00  0.00    +0.000 A 
ATOM     15  C   UNL     1       3.343   6.039  19.510  0.00  0.00    +0.000 A 
ENDBRANCH   7   9
ENDBRANCH   6   7
ENDBRANCH   5   6
ENDBRANCH   2   5
BRANCH   3  16
ATOM     16  C   UNL     1       8.582   9.234  18.303  0.00  0.00    +0.000 C 
BRANCH  16  17
ATOM     17  C   UNL     1       9.300  10.012  19.406  0.00  0.00    +0.000 C 
BRANCH  17  18
ATOM     18  C   UNL     1       9.770  11.377  18.962  0.00  0.00    +0.000 A 
ATOM     19  C   UNL     1      10.449  11.488  17.735  0.00  0.00    +0.000 A 
ATOM     20  C   UNL     1      10.927  12.722  17.291  0.00  0.00    +0.000 A 
ATOM     21  C   UNL     1      10.727  13.860  18.067  0.00  0.00    +0.000 A 
ATOM     22 CL   UNL     1      11.329  15.378  17.526  0.00  0.00    +0.000 Cl
ATOM     23  C   UNL     1      10.042  13.779  19.275  0.00  0.00    +0.000 A 
ATOM     24  C   UNL     1       9.560  12.544  19.718  0.00  0.00    +0.000 A 
ATOM     25 CL   UNL     1       8.705  12.512  21.219  0.00  0.00    +0.000 Cl
ENDBRANCH  17  18
ENDBRANCH  16  17
ENDBRANCH   3  16
TORSDOF 7
ENDMDL
MODEL 7
REMARK VINA RESULT:      -6.8      1.830      2.575
REMARK  Name = 
REMARK  7 active torsions:
REMARK  status: ('A' for Active; 'I' for Inactive)
REMARK    1  A    between atoms: C_2  and  C_3
REMARK    2  A    between atoms: C_3  and  O_4
REMARK    3  A    between atoms: O_4  and  C_5
REMARK    4  A    between atoms: C_5  and  C_7
REMARK    5  A    between atoms: N_14  and  C_15
REMARK    6  A    between atoms: C_15  and  C_16
REMARK    7  A    between atoms: C_16  and  C_17
REMARK                            x       y       z     vdW  Elec       q    Type
REMARK                         _______ _______ _______ _____ _____    ______ ____
ROOT
ATOM      1  O   UNL     1       1.232   4.682  19.092  0.00  0.00    +0.000 OA
ATOM      2  C   UNL     1       2.220   4.773  19.817  0.00  0.00    +0.000 C 
ATOM      3  N   UNL     1       2.755   5.979  20.224  0.00  0.00    +0.000 N 
ATOM      4  H   UNL     1       3.412   5.958  20.996  0.00  0.00    +0.000 HD
ENDROOT
BRANCH   2   5
ATOM      5  C   UNL     1       2.922   3.544  20.403  0.00  0.00    +0.000 C 
BRANCH   5   6
ATOM      6  O   UNL     1       4.242   3.334  19.896  0.00  0.00    +0.000 OA
BRANCH   6   7
ATOM      7  C   UNL     1       4.305   3.196  18.549  0.00  0.00    +0.000 C 
ATOM      8  O   UNL     1       3.675   2.410  17.865  0.00  0.00    +0.000 OA
BRANCH   7   9
ATOM      9  C   UNL     1       5.214   4.225  17.987  0.00  0.00    +0.000 A 
ATOM     10  C   UNL     1       6.007   4.963  18.870  0.00  0.00    +0.000 A 
ATOM     11  C   UNL     1       6.885   5.921  18.359  0.00  0.00    +0.000 A 
ATOM     12  N   UNL     1       6.979   6.166  16.999  0.00  0.00    +0.000 N 
ATOM     13  O   UNL     1       7.784   7.031  16.549  0.00  0.00    +0.000 OA
ATOM     14  C   UNL     1       6.172   5.437  16.141  0.00  0.00    +0.000 A 
ATOM     15  C   UNL     1       5.288   4.466  16.615  0.00  0.00    +0.000 A 
ENDBRANCH   7   9
ENDBRANCH   6   7
ENDBRANCH   5   6
ENDBRANCH   2   5
BRANCH   3  16
ATOM     16  C   UNL     1       2.159   7.249  19.842  0.00  0.00    +0.000 C 
BRANCH  16  17
ATOM     17  C   UNL     1       1.332   7.830  20.988  0.00  0.00    +0.000 C 
BRANCH  17  18
ATOM     18  C   UNL     1       0.702   9.162  20.652  0.00  0.00    +0.000 A 
ATOM     19  C   UNL     1       0.757   9.615  19.322  0.00  0.00    +0.000 A 
ATOM     20  C   UNL     1       0.213  10.850  18.963  0.00  0.00    +0.000 A 
ATOM     21  C   UNL     1      -0.397  11.643  19.930  0.00  0.00    +0.000 A 
ATOM     22 CL   UNL     1      -1.054  13.171  19.491  0.00  0.00    +0.000 Cl
ATOM     23  C   UNL     1      -0.480  11.208  21.250  0.00  0.00    +0.000 A 
ATOM     24  C   UNL     1       0.061   9.970  21.608  0.00  0.00    +0.000 A 
ATOM     25 CL   UNL     1      -0.088   9.481  23.258  0.00  0.00    +0.000 Cl
ENDBRANCH  17  18
ENDBRANCH  16  17
ENDBRANCH   3  16
TORSDOF 7
ENDMDL
MODEL 8
REMARK VINA RESULT:      -6.7      1.264      1.534
REMARK  Name = 
REMARK  7 active torsions:
REMARK  status: ('A' for Active; 'I' for Inactive)
REMARK    1  A    between atoms: C_2  and  C_3
REMARK    2  A    between atoms: C_3  and  O_4
REMARK    3  A    between atoms: O_4  and  C_5
REMARK    4  A    between atoms: C_5  and  C_7
REMARK    5  A    between atoms: N_14  and  C_15
REMARK    6  A    between atoms: C_15  and  C_16
REMARK    7  A    between atoms: C_16  and  C_17
REMARK                            x       y       z     vdW  Elec       q    Type
REMARK                         _______ _______ _______ _____ _____    ______ ____
ROOT
ATOM      1  O   UNL     1       3.796   3.236  20.731  0.00  0.00    +0.000 OA
ATOM      2  C   UNL     1       2.905   3.049  19.906  0.00  0.00    +0.000 C 
ATOM      3  N   UNL     1       1.803   3.870  19.779  0.00  0.00    +0.000 N 
ATOM      4  H   UNL     1       1.251   3.778  18.933  0.00  0.00    +0.000 HD
ENDROOT
BRANCH   2   5
ATOM      5  C   UNL     1       2.963   1.911  18.882  0.00  0.00    +0.000 C 
BRANCH   5   6
ATOM      6  O   UNL     1       3.845   2.162  17.785  0.00  0.00    +0.000 OA
BRANCH   6   7
ATOM      7  C   UNL     1       3.487   3.220  17.015  0.00  0.00    +0.000 C 
ATOM      8  O   UNL     1       2.383   3.447  16.553  0.00  0.00    +0.000 OA
BRANCH   7   9
ATOM      9  C   UNL     1       4.639   4.143  16.877  0.00  0.00    +0.000 A 
ATOM     10  C   UNL     1       5.138   4.395  15.596  0.00  0.00    +0.000 A 
ATOM     11  C   UNL     1       6.208   5.280  15.442  0.00  0.00    +0.000 A 
ATOM     12  N   UNL     1       6.795   5.902  16.532  0.00  0.00    +0.000 N 
ATOM     13  O   UNL     1       7.759   6.707  16.378  0.00  0.00    +0.000 OA
ATOM     14  C   UNL     1       6.299   5.626  17.795  0.00  0.00    +0.000 A 
ATOM     15  C   UNL     1       5.226   4.755  17.985  0.00  0.00    +0.000 A 
ENDBRANCH   7   9
ENDBRANCH   6   7
ENDBRANCH   5   6
ENDBRANCH   2   5
BRANCH   3  16
ATOM     16  C   UNL     1       1.632   5.054  20.604  0.00  0.00    +0.000 C 
BRANCH  16  17
ATOM     17  C   UNL     1       2.490   6.209  20.089  0.00  0.00    +0.000 C 
BRANCH  17  18
ATOM     18  C   UNL     1       1.779   7.542  20.125  0.00  0.00    +0.000 A 
ATOM     19  C   UNL     1       0.992   7.853  21.248  0.00  0.00    +0.000 A 
ATOM     20  C   UNL     1       0.294   9.060  21.321  0.00  0.00    +0.000 A 
ATOM     21  C   UNL     1       0.380   9.972  20.273  0.00  0.00    +0.000 A 
ATOM     22 CL   UNL     1      -0.492  11.452  20.355  0.00  0.00    +0.000 Cl
ATOM     23  C   UNL     1       1.167   9.694  19.159  0.00  0.00    +0.000 A 
ATOM     24  C   UNL     1       1.869   8.487  19.088  0.00  0.00    +0.000 A 
ATOM     25 CL   UNL     1       2.839   8.209  17.687  0.00  0.00    +0.000 Cl
ENDBRANCH  17  18
ENDBRANCH  16  17
ENDBRANCH   3  16
TORSDOF 7
ENDMDL
MODEL 9
REMARK VINA RESULT:      -6.7      2.841      4.163
REMARK  Name = 
REMARK  7 active torsions:
REMARK  status: ('A' for Active; 'I' for Inactive)
REMARK    1  A    between atoms: C_2  and  C_3
REMARK    2  A    between atoms: C_3  and  O_4
REMARK    3  A    between atoms: O_4  and  C_5
REMARK    4  A    between atoms: C_5  and  C_7
REMARK    5  A    between atoms: N_14  and  C_15
REMARK    6  A    between atoms: C_15  and  C_16
REMARK    7  A    between atoms: C_16  and  C_17
REMARK                            x       y       z     vdW  Elec       q    Type
REMARK                         _______ _______ _______ _____ _____    ______ ____
ROOT
ATOM      1  O   UNL     1       3.413   7.701  17.581  0.00  0.00    +0.000 OA
ATOM      2  C   UNL     1       2.702   7.505  18.564  0.00  0.00    +0.000 C 
ATOM      3  N   UNL     1       1.768   8.414  19.018  0.00  0.00    +0.000 N 
ATOM      4  H   UNL     1       1.077   8.076  19.679  0.00  0.00    +0.000 HD
ENDROOT
BRANCH   2   5
ATOM      5  C   UNL     1       2.738   6.191  19.350  0.00  0.00    +0.000 C 
BRANCH   5   6
ATOM      6  O   UNL     1       2.922   5.032  18.534  0.00  0.00    +0.000 OA
BRANCH   6   7
ATOM      7  C   UNL     1       4.078   4.364  18.770  0.00  0.00    +0.000 C 
ATOM      8  O   UNL     1       4.311   3.611  19.698  0.00  0.00    +0.000 OA
BRANCH   7   9
ATOM      9  C   UNL     1       5.029   4.614  17.659  0.00  0.00    +0.000 A 
ATOM     10  C   UNL     1       6.176   5.367  17.924  0.00  0.00    +0.000 A 
ATOM     11  C   UNL     1       7.095   5.594  16.897  0.00  0.00    +0.000 A 
ATOM     12  N   UNL     1       6.888   5.103  15.618  0.00  0.00    +0.000 N 
ATOM     13  O   UNL     1       7.732   5.309  14.699  0.00  0.00    +0.000 OA
ATOM     14  C   UNL     1       5.736   4.374  15.370  0.00  0.00    +0.000 A 
ATOM     15  C   UNL     1       4.800   4.121  16.374  0.00  0.00    +0.000 A 
ENDBRANCH   7   9
ENDBRANCH   6   7
ENDBRANCH   5   6
ENDBRANCH   2   5
BRANCH   3  16
ATOM     16  C   UNL     1       1.531   9.675  18.336  0.00  0.00    +0.000 C 
BRANCH  16  17
ATOM     17  C   UNL     1       0.703  10.620  19.205  0.00  0.00    +0.000 C 
BRANCH  17  18
ATOM     18  C   UNL     1      -0.719  10.782  18.721  0.00  0.00    +0.000 A 
ATOM     19  C   UNL     1      -1.133  10.049  17.594  0.00  0.00    +0.000 A 
ATOM     20  C   UNL     1      -2.429  10.182  17.090  0.00  0.00    +0.000 A 
ATOM     21  C   UNL     1      -3.326  11.046  17.711  0.00  0.00    +0.000 A 
ATOM     22 CL   UNL     1      -4.917  11.221  17.081  0.00  0.00    +0.000 Cl
ATOM     23  C   UNL     1      -2.945  11.768  18.839  0.00  0.00    +0.000 A 
ATOM     24  C   UNL     1      -1.650  11.632  19.345  0.00  0.00    +0.000 A 
ATOM     25 CL   UNL     1      -1.244  12.543  20.755  0.00  0.00    +0.000 Cl
ENDBRANCH  17  18
ENDBRANCH  16  17
ENDBRANCH   3  16
TORSDOF 7
ENDMDL
