MODEL 1
REMARK VINA RESULT:      -8.3      0.000      0.000
REMARK  Name = 
REMARK  12 active torsions:
REMARK  status: ('A' for Active; 'I' for Inactive)
REMARK    1  A    between atoms: C_1  and  C_2
REMARK    2  A    between atoms: C_5  and  N_6
REMARK    3  A    between atoms: N_6  and  C_7
REMARK    4  A    between atoms: C_14  and  N_15
REMARK    5  A    between atoms: C_16  and  C_18
REMARK    6  A    between atoms: C_18  and  C_19
REMARK    7  A    between atoms: C_19  and  C_20
REMARK    8  A    between atoms: C_20  and  C_21
REMARK    9  A    between atoms: C_21  and  C_22
REMARK   10  A    between atoms: C_22  and  C_23
REMARK   11  A    between atoms: C_23  and  C_24
REMARK   12  A    between atoms: N_26  and  O_27
REMARK                            x       y       z     vdW  Elec       q    Type
REMARK                         _______ _______ _______ _____ _____    ______ ____
ROOT
ATOM      1  C   UNL     1       1.923   5.484  20.353  0.00  0.00    +0.000 A 
ATOM      2  N   UNL     1       0.785   4.762  20.475  0.00  0.00    +0.000 NA
ATOM      3  C   UNL     1       0.730   3.507  20.006  0.00  0.00    +0.000 A 
ATOM      4  C   UNL     1       1.784   2.895  19.383  0.00  0.00    +0.000 A 
ATOM      5  C   UNL     1       2.963   3.615  19.229  0.00  0.00    +0.000 A 
ATOM      6  C   UNL     1       4.042   3.000  18.597  0.00  0.00    +0.000 A 
ATOM      7  C   UNL     1       5.247   3.670  18.426  0.00  0.00    +0.000 A 
ATOM      8  C   UNL     1       5.406   4.976  18.887  0.00  0.00    +0.000 A 
ATOM      9  C   UNL     1       4.325   5.604  19.523  0.00  0.00    +0.000 A 
ATOM     10  C   UNL     1       3.073   4.944  19.709  0.00  0.00    +0.000 A 
ENDROOT
BRANCH   8  11
ATOM     11  N   UNL     1       6.608   5.702  18.730  0.00  0.00    +0.000 N 
ATOM     12  C   UNL     1       6.775   6.840  17.963  0.00  0.00    +0.000 C 
ATOM     13  O   UNL     1       5.931   7.378  17.252  0.00  0.00    +0.000 OA
ATOM     14  H   UNL     1       7.413   5.360  19.240  0.00  0.00    +0.000 HD
BRANCH  12  15
ATOM     15  C   UNL     1       8.156   7.448  18.063  0.00  0.00    +0.000 C 
BRANCH  15  16
ATOM     16  C   UNL     1       8.062   8.937  17.737  0.00  0.00    +0.000 C 
BRANCH  16  17
ATOM     17  C   UNL     1       8.795   9.827  18.736  0.00  0.00    +0.000 C 
BRANCH  17  18
ATOM     18  C   UNL     1       9.702  10.855  18.056  0.00  0.00    +0.000 C 
BRANCH  18  19
ATOM     19  C   UNL     1      10.720  11.414  19.040  0.00  0.00    +0.000 C 
BRANCH  19  20
ATOM     20  C   UNL     1      11.737  12.310  18.340  0.00  0.00    +0.000 C 
BRANCH  20  21
ATOM     21  C   UNL     1      11.067  13.507  17.705  0.00  0.00    +0.000 C 
ATOM     22  O   UNL     1      10.100  14.096  18.180  0.00  0.00    +0.000 OA
ATOM     23  N   UNL     1      11.649  13.908  16.528  0.00  0.00    +0.000 N 
ATOM     24  H   UNL     1      12.368  13.399  16.027  0.00  0.00    +0.000 HD
BRANCH  23  25
ATOM     25  O   UNL     1      11.032  14.994  15.871  0.00  0.00    +0.000 OA
ATOM     26  H   UNL     1      11.742  15.297  15.260  0.00  0.00    +0.000 HD
ENDBRANCH  23  25
ENDBRANCH  20  21
ENDBRANCH  19  20
ENDBRANCH  18  19
ENDBRANCH  17  18
ENDBRANCH  16  17
ENDBRANCH  15  16
ENDBRANCH  12  15
ENDBRANCH   8  11
BRANCH   1  27
ATOM     27  N   UNL     1       1.925   6.811  20.843  0.00  0.00    +0.000 N 
ATOM     28  H   UNL     1       1.619   6.882  21.804  0.00  0.00    +0.000 HD
BRANCH  27  33
ATOM     29  C   UNL     1       0.841  11.793  18.159  0.00  0.00    +0.000 C 
ATOM     30  C   UNL     1       1.124  10.500  18.857  0.00  0.00    +0.000 A 
ATOM     31  C   UNL     1       1.832   9.492  18.209  0.00  0.00    +0.000 A 
ATOM     32  C   UNL     1       2.109   8.290  18.860  0.00  0.00    +0.000 A 
ATOM     33  C   UNL     1       1.661   8.028  20.161  0.00  0.00    +0.000 A 
ATOM     34  C   UNL     1       0.965   9.067  20.813  0.00  0.00    +0.000 A 
ATOM     35 BR   UNL     1       0.333   8.849  22.597  0.00  0.00    +0.000 Br
ATOM     36  C   UNL     1       0.692  10.283  20.170  0.00  0.00    +0.000 A 
ENDBRANCH  27  33
ENDBRANCH   1  27
TORSDOF 11
ENDMDL
MODEL 2
REMARK VINA RESULT:      -8.1      1.294      1.633
REMARK  Name = 
REMARK  12 active torsions:
REMARK  status: ('A' for Active; 'I' for Inactive)
REMARK    1  A    between atoms: C_1  and  C_2
REMARK    2  A    between atoms: C_5  and  N_6
REMARK    3  A    between atoms: N_6  and  C_7
REMARK    4  A    between atoms: C_14  and  N_15
REMARK    5  A    between atoms: C_16  and  C_18
REMARK    6  A    between atoms: C_18  and  C_19
REMARK    7  A    between atoms: C_19  and  C_20
REMARK    8  A    between atoms: C_20  and  C_21
REMARK    9  A    between atoms: C_21  and  C_22
REMARK   10  A    between atoms: C_22  and  C_23
REMARK   11  A    between atoms: C_23  and  C_24
REMARK   12  A    between atoms: N_26  and  O_27
REMARK                            x       y       z     vdW  Elec       q    Type
REMARK                         _______ _______ _______ _____ _____    ______ ____
ROOT
ATOM      1  C   UNL     1       1.988   5.643  20.357  0.00  0.00    +0.000 A 
ATOM      2  N   UNL     1       0.865   4.911  20.542  0.00  0.00    +0.000 NA
ATOM      3  C   UNL     1       0.762   3.688  20.003  0.00  0.00    +0.000 A 
ATOM      4  C   UNL     1       1.749   3.119  19.244  0.00  0.00    +0.000 A 
ATOM      5  C   UNL     1       2.910   3.853  19.024  0.00  0.00    +0.000 A 
ATOM      6  C   UNL     1       3.922   3.282  18.254  0.00  0.00    +0.000 A 
ATOM      7  C   UNL     1       5.106   3.966  18.010  0.00  0.00    +0.000 A 
ATOM      8  C   UNL     1       5.312   5.240  18.534  0.00  0.00    +0.000 A 
ATOM      9  C   UNL     1       4.299   5.824  19.309  0.00  0.00    +0.000 A 
ATOM     10  C   UNL     1       3.069   5.149  19.573  0.00  0.00    +0.000 A 
ENDROOT
BRANCH   8  11
ATOM     11  N   UNL     1       6.495   5.979  18.308  0.00  0.00    +0.000 N 
ATOM     12  C   UNL     1       6.710   6.873  17.275  0.00  0.00    +0.000 C 
ATOM     13  O   UNL     1       5.938   7.135  16.357  0.00  0.00    +0.000 OA
ATOM     14  H   UNL     1       7.245   5.848  18.975  0.00  0.00    +0.000 HD
BRANCH  12  15
ATOM     15  C   UNL     1       8.044   7.581  17.346  0.00  0.00    +0.000 C 
BRANCH  15  16
ATOM     16  C   UNL     1       7.830   8.975  17.931  0.00  0.00    +0.000 C 
BRANCH  16  17
ATOM     17  C   UNL     1       9.096   9.825  17.960  0.00  0.00    +0.000 C 
BRANCH  17  18
ATOM     18  C   UNL     1       9.361  10.441  19.335  0.00  0.00    +0.000 C 
BRANCH  18  19
ATOM     19  C   UNL     1      10.351  11.594  19.231  0.00  0.00    +0.000 C 
BRANCH  19  20
ATOM     20  C   UNL     1       9.637  12.941  19.195  0.00  0.00    +0.000 C 
BRANCH  20  21
ATOM     21  C   UNL     1      10.062  13.754  17.994  0.00  0.00    +0.000 C 
ATOM     22  O   UNL     1       9.758  14.930  17.807  0.00  0.00    +0.000 OA
ATOM     23  N   UNL     1      10.852  13.064  17.109  0.00  0.00    +0.000 N 
ATOM     24  H   UNL     1      11.039  12.069  17.144  0.00  0.00    +0.000 HD
BRANCH  23  25
ATOM     25  O   UNL     1      11.237  13.765  15.947  0.00  0.00    +0.000 OA
ATOM     26  H   UNL     1      12.220  13.713  15.990  0.00  0.00    +0.000 HD
ENDBRANCH  23  25
ENDBRANCH  20  21
ENDBRANCH  19  20
ENDBRANCH  18  19
ENDBRANCH  17  18
ENDBRANCH  16  17
ENDBRANCH  15  16
ENDBRANCH  12  15
ENDBRANCH   8  11
BRANCH   1  27
ATOM     27  N   UNL     1       2.040   6.937  20.927  0.00  0.00    +0.000 N 
ATOM     28  H   UNL     1       2.369   6.940  21.882  0.00  0.00    +0.000 HD
BRANCH  27  33
ATOM     29  C   UNL     1      -1.363  11.479  19.926  0.00  0.00    +0.000 C 
ATOM     30  C   UNL     1      -0.480  10.298  20.185  0.00  0.00    +0.000 A 
ATOM     31  C   UNL     1      -0.558   9.616  21.395  0.00  0.00    +0.000 A 
ATOM     32  C   UNL     1       0.254   8.506  21.636  0.00  0.00    +0.000 A 
ATOM     33  C   UNL     1       1.198   8.060  20.703  0.00  0.00    +0.000 A 
ATOM     34  C   UNL     1       1.249   8.747  19.474  0.00  0.00    +0.000 A 
ATOM     35 BR   UNL     1       2.467   8.215  18.108  0.00  0.00    +0.000 Br
ATOM     36  C   UNL     1       0.430   9.856  19.219  0.00  0.00    +0.000 A 
ENDBRANCH  27  33
ENDBRANCH   1  27
TORSDOF 11
ENDMDL
MODEL 3
REMARK VINA RESULT:      -8.0      1.137      1.254
REMARK  Name = 
REMARK  12 active torsions:
REMARK  status: ('A' for Active; 'I' for Inactive)
REMARK    1  A    between atoms: C_1  and  C_2
REMARK    2  A    between atoms: C_5  and  N_6
REMARK    3  A    between atoms: N_6  and  C_7
REMARK    4  A    between atoms: C_14  and  N_15
REMARK    5  A    between atoms: C_16  and  C_18
REMARK    6  A    between atoms: C_18  and  C_19
REMARK    7  A    between atoms: C_19  and  C_20
REMARK    8  A    between atoms: C_20  and  C_21
REMARK    9  A    between atoms: C_21  and  C_22
REMARK   10  A    between atoms: C_22  and  C_23
REMARK   11  A    between atoms: C_23  and  C_24
REMARK   12  A    between atoms: N_26  and  O_27
REMARK                            x       y       z     vdW  Elec       q    Type
REMARK                         _______ _______ _______ _____ _____    ______ ____
ROOT
ATOM      1  C   UNL     1       1.699   5.490  20.436  0.00  0.00    +0.000 A 
ATOM      2  N   UNL     1       0.648   4.661  20.639  0.00  0.00    +0.000 NA
ATOM      3  C   UNL     1       0.665   3.418  20.139  0.00  0.00    +0.000 A 
ATOM      4  C   UNL     1       1.706   2.921  19.403  0.00  0.00    +0.000 A 
ATOM      5  C   UNL     1       2.794   3.753  19.163  0.00  0.00    +0.000 A 
ATOM      6  C   UNL     1       3.861   3.256  18.416  0.00  0.00    +0.000 A 
ATOM      7  C   UNL     1       4.977   4.041  18.155  0.00  0.00    +0.000 A 
ATOM      8  C   UNL     1       5.058   5.345  18.639  0.00  0.00    +0.000 A 
ATOM      9  C   UNL     1       3.990   5.855  19.392  0.00  0.00    +0.000 A 
ATOM     10  C   UNL     1       2.827   5.075  19.672  0.00  0.00    +0.000 A 
ENDROOT
BRANCH   8  11
ATOM     11  N   UNL     1       6.169   6.185  18.395  0.00  0.00    +0.000 N 
ATOM     12  C   UNL     1       7.343   6.211  19.125  0.00  0.00    +0.000 C 
ATOM     13  O   UNL     1       7.598   5.556  20.131  0.00  0.00    +0.000 OA
ATOM     14  H   UNL     1       6.097   6.811  17.603  0.00  0.00    +0.000 HD
BRANCH  12  15
ATOM     15  C   UNL     1       8.388   7.152  18.570  0.00  0.00    +0.000 C 
BRANCH  15  16
ATOM     16  C   UNL     1       7.690   8.216  17.724  0.00  0.00    +0.000 C 
BRANCH  16  17
ATOM     17  C   UNL     1       8.163   9.636  18.020  0.00  0.00    +0.000 C 
BRANCH  17  18
ATOM     18  C   UNL     1       9.297   9.679  19.045  0.00  0.00    +0.000 C 
BRANCH  18  19
ATOM     19  C   UNL     1       9.234  10.958  19.869  0.00  0.00    +0.000 C 
BRANCH  19  20
ATOM     20  C   UNL     1      10.596  11.641  19.942  0.00  0.00    +0.000 C 
BRANCH  20  21
ATOM     21  C   UNL     1      11.021  12.160  18.587  0.00  0.00    +0.000 C 
ATOM     22  O   UNL     1      12.000  11.757  17.964  0.00  0.00    +0.000 OA
ATOM     23  N   UNL     1      10.196  13.134  18.083  0.00  0.00    +0.000 N 
ATOM     24  H   UNL     1       9.449  13.589  18.593  0.00  0.00    +0.000 HD
BRANCH  23  25
ATOM     25  O   UNL     1      10.576  13.684  16.841  0.00  0.00    +0.000 OA
ATOM     26  H   UNL     1       9.735  14.089  16.528  0.00  0.00    +0.000 HD
ENDBRANCH  23  25
ENDBRANCH  20  21
ENDBRANCH  19  20
ENDBRANCH  18  19
ENDBRANCH  17  18
ENDBRANCH  16  17
ENDBRANCH  15  16
ENDBRANCH  12  15
ENDBRANCH   8  11
BRANCH   1  27
ATOM     27  N   UNL     1       1.625   6.800  20.964  0.00  0.00    +0.000 N 
ATOM     28  H   UNL     1       1.195   6.839  21.878  0.00  0.00    +0.000 HD
BRANCH  27  33
ATOM     29  C   UNL     1       0.882  11.868  18.325  0.00  0.00    +0.000 C 
ATOM     30  C   UNL     1       1.076  10.552  19.012  0.00  0.00    +0.000 A 
ATOM     31  C   UNL     1       1.694   9.498  18.346  0.00  0.00    +0.000 A 
ATOM     32  C   UNL     1       1.889   8.274  18.986  0.00  0.00    +0.000 A 
ATOM     33  C   UNL     1       1.444   8.039  20.293  0.00  0.00    +0.000 A 
ATOM     34  C   UNL     1       0.841   9.123  20.962  0.00  0.00    +0.000 A 
ATOM     35 BR   UNL     1       0.223   8.942  22.756  0.00  0.00    +0.000 Br
ATOM     36  C   UNL     1       0.650  10.361  20.330  0.00  0.00    +0.000 A 
ENDBRANCH  27  33
ENDBRANCH   1  27
TORSDOF 11
ENDMDL
MODEL 4
REMARK VINA RESULT:      -7.9      4.948      9.010
REMARK  Name = 
REMARK  12 active torsions:
REMARK  status: ('A' for Active; 'I' for Inactive)
REMARK    1  A    between atoms: C_1  and  C_2
REMARK    2  A    between atoms: C_5  and  N_6
REMARK    3  A    between atoms: N_6  and  C_7
REMARK    4  A    between atoms: C_14  and  N_15
REMARK    5  A    between atoms: C_16  and  C_18
REMARK    6  A    between atoms: C_18  and  C_19
REMARK    7  A    between atoms: C_19  and  C_20
REMARK    8  A    between atoms: C_20  and  C_21
REMARK    9  A    between atoms: C_21  and  C_22
REMARK   10  A    between atoms: C_22  and  C_23
REMARK   11  A    between atoms: C_23  and  C_24
REMARK   12  A    between atoms: N_26  and  O_27
REMARK                            x       y       z     vdW  Elec       q    Type
REMARK                         _______ _______ _______ _____ _____    ______ ____
ROOT
ATOM      1  C   UNL     1       4.816   4.104  19.200  0.00  0.00    +0.000 A 
ATOM      2  N   UNL     1       5.096   2.802  19.439  0.00  0.00    +0.000 NA
ATOM      3  C   UNL     1       4.254   2.054  20.165  0.00  0.00    +0.000 A 
ATOM      4  C   UNL     1       3.096   2.543  20.706  0.00  0.00    +0.000 A 
ATOM      5  C   UNL     1       2.786   3.882  20.491  0.00  0.00    +0.000 A 
ATOM      6  C   UNL     1       1.608   4.389  21.036  0.00  0.00    +0.000 A 
ATOM      7  C   UNL     1       1.246   5.717  20.844  0.00  0.00    +0.000 A 
ATOM      8  C   UNL     1       2.052   6.573  20.097  0.00  0.00    +0.000 A 
ATOM      9  C   UNL     1       3.241   6.072  19.544  0.00  0.00    +0.000 A 
ATOM     10  C   UNL     1       3.643   4.714  19.728  0.00  0.00    +0.000 A 
ENDROOT
BRANCH   8  11
ATOM     11  N   UNL     1       1.731   7.931  19.879  0.00  0.00    +0.000 N 
ATOM     12  C   UNL     1       1.687   8.569  18.652  0.00  0.00    +0.000 C 
ATOM     13  O   UNL     1       1.969   8.084  17.561  0.00  0.00    +0.000 OA
ATOM     14  H   UNL     1       1.499   8.478  20.698  0.00  0.00    +0.000 HD
BRANCH  12  15
ATOM     15  C   UNL     1       1.223  10.006  18.726  0.00  0.00    +0.000 C 
BRANCH  15  16
ATOM     16  C   UNL     1      -0.013  10.169  17.844  0.00  0.00    +0.000 C 
BRANCH  16  17
ATOM     17  C   UNL     1      -1.238  10.677  18.599  0.00  0.00    +0.000 C 
BRANCH  17  18
ATOM     18  C   UNL     1      -2.336  11.189  17.664  0.00  0.00    +0.000 C 
BRANCH  18  19
ATOM     19  C   UNL     1      -2.246  10.515  16.302  0.00  0.00    +0.000 C 
BRANCH  19  20
ATOM     20  C   UNL     1      -3.626  10.328  15.680  0.00  0.00    +0.000 C 
BRANCH  20  21
ATOM     21  C   UNL     1      -3.524  10.015  14.205  0.00  0.00    +0.000 C 
ATOM     22  O   UNL     1      -2.468   9.849  13.600  0.00  0.00    +0.000 OA
ATOM     23  N   UNL     1      -4.739   9.911  13.575  0.00  0.00    +0.000 N 
ATOM     24  H   UNL     1      -5.633  10.151  13.986  0.00  0.00    +0.000 HD
BRANCH  23  25
ATOM     25  O   UNL     1      -4.697   9.666  12.186  0.00  0.00    +0.000 OA
ATOM     26  H   UNL     1      -5.134   8.786  12.118  0.00  0.00    +0.000 HD
ENDBRANCH  23  25
ENDBRANCH  20  21
ENDBRANCH  19  20
ENDBRANCH  18  19
ENDBRANCH  17  18
ENDBRANCH  16  17
ENDBRANCH  15  16
ENDBRANCH  12  15
ENDBRANCH   8  11
BRANCH   1  27
ATOM     27  N   UNL     1       5.747   4.858  18.447  0.00  0.00    +0.000 N 
ATOM     28  H   UNL     1       5.858   5.805  18.782  0.00  0.00    +0.000 HD
BRANCH  27  33
ATOM     29  C   UNL     1       7.061   4.664  12.841  0.00  0.00    +0.000 C 
ATOM     30  C   UNL     1       6.721   4.714  14.297  0.00  0.00    +0.000 A 
ATOM     31  C   UNL     1       5.928   3.723  14.867  0.00  0.00    +0.000 A 
ATOM     32  C   UNL     1       5.620   3.758  16.227  0.00  0.00    +0.000 A 
ATOM     33  C   UNL     1       6.052   4.796  17.061  0.00  0.00    +0.000 A 
ATOM     34  C   UNL     1       6.874   5.780  16.475  0.00  0.00    +0.000 A 
ATOM     35 BR   UNL     1       7.557   7.226  17.511  0.00  0.00    +0.000 Br
ATOM     36  C   UNL     1       7.198   5.747  15.111  0.00  0.00    +0.000 A 
ENDBRANCH  27  33
ENDBRANCH   1  27
TORSDOF 11
ENDMDL
MODEL 5
REMARK VINA RESULT:      -7.9      5.190      9.002
REMARK  Name = 
REMARK  12 active torsions:
REMARK  status: ('A' for Active; 'I' for Inactive)
REMARK    1  A    between atoms: C_1  and  C_2
REMARK    2  A    between atoms: C_5  and  N_6
REMARK    3  A    between atoms: N_6  and  C_7
REMARK    4  A    between atoms: C_14  and  N_15
REMARK    5  A    between atoms: C_16  and  C_18
REMARK    6  A    between atoms: C_18  and  C_19
REMARK    7  A    between atoms: C_19  and  C_20
REMARK    8  A    between atoms: C_20  and  C_21
REMARK    9  A    between atoms: C_21  and  C_22
REMARK   10  A    between atoms: C_22  and  C_23
REMARK   11  A    between atoms: C_23  and  C_24
REMARK   12  A    between atoms: N_26  and  O_27
REMARK                            x       y       z     vdW  Elec       q    Type
REMARK                         _______ _______ _______ _____ _____    ______ ____
ROOT
ATOM      1  C   UNL     1       4.874   3.981  19.338  0.00  0.00    +0.000 A 
ATOM      2  N   UNL     1       5.165   2.712  19.709  0.00  0.00    +0.000 NA
ATOM      3  C   UNL     1       4.283   2.001  20.426  0.00  0.00    +0.000 A 
ATOM      4  C   UNL     1       3.073   2.498  20.829  0.00  0.00    +0.000 A 
ATOM      5  C   UNL     1       2.751   3.804  20.477  0.00  0.00    +0.000 A 
ATOM      6  C   UNL     1       1.521   4.319  20.881  0.00  0.00    +0.000 A 
ATOM      7  C   UNL     1       1.144   5.614  20.548  0.00  0.00    +0.000 A 
ATOM      8  C   UNL     1       1.988   6.430  19.797  0.00  0.00    +0.000 A 
ATOM      9  C   UNL     1       3.230   5.921  19.387  0.00  0.00    +0.000 A 
ATOM     10  C   UNL     1       3.647   4.596  19.717  0.00  0.00    +0.000 A 
ENDROOT
BRANCH   8  11
ATOM     11  N   UNL     1       1.654   7.755  19.440  0.00  0.00    +0.000 N 
ATOM     12  C   UNL     1       1.308   8.769  20.315  0.00  0.00    +0.000 C 
ATOM     13  O   UNL     1       1.182   8.679  21.532  0.00  0.00    +0.000 OA
ATOM     14  H   UNL     1       1.686   7.980  18.454  0.00  0.00    +0.000 HD
BRANCH  12  15
ATOM     15  C   UNL     1       1.090  10.107  19.644  0.00  0.00    +0.000 C 
BRANCH  15  16
ATOM     16  C   UNL     1      -0.386  10.235  19.272  0.00  0.00    +0.000 C 
BRANCH  16  17
ATOM     17  C   UNL     1      -0.700   9.770  17.854  0.00  0.00    +0.000 C 
BRANCH  17  18
ATOM     18  C   UNL     1      -1.988  10.384  17.303  0.00  0.00    +0.000 C 
BRANCH  18  19
ATOM     19  C   UNL     1      -2.202   9.982  15.850  0.00  0.00    +0.000 C 
BRANCH  19  20
ATOM     20  C   UNL     1      -3.596  10.369  15.365  0.00  0.00    +0.000 C 
BRANCH  20  21
ATOM     21  C   UNL     1      -3.816   9.938  13.933  0.00  0.00    +0.000 C 
ATOM     22  O   UNL     1      -4.912   9.665  13.449  0.00  0.00    +0.000 OA
ATOM     23  N   UNL     1      -2.666   9.889  13.186  0.00  0.00    +0.000 N 
ATOM     24  H   UNL     1      -1.726   9.986  13.552  0.00  0.00    +0.000 HD
BRANCH  23  25
ATOM     25  O   UNL     1      -2.811   9.447  11.854  0.00  0.00    +0.000 OA
ATOM     26  H   UNL     1      -1.890   9.511  11.513  0.00  0.00    +0.000 HD
ENDBRANCH  23  25
ENDBRANCH  20  21
ENDBRANCH  19  20
ENDBRANCH  18  19
ENDBRANCH  17  18
ENDBRANCH  16  17
ENDBRANCH  15  16
ENDBRANCH  12  15
ENDBRANCH   8  11
BRANCH   1  27
ATOM     27  N   UNL     1       5.846   4.698  18.601  0.00  0.00    +0.000 N 
ATOM     28  H   UNL     1       6.044   5.612  18.984  0.00  0.00    +0.000 HD
BRANCH  27  33
ATOM     29  C   UNL     1       6.991   4.731  12.954  0.00  0.00    +0.000 C 
ATOM     30  C   UNL     1       6.695   4.722  14.421  0.00  0.00    +0.000 A 
ATOM     31  C   UNL     1       5.964   3.680  14.983  0.00  0.00    +0.000 A 
ATOM     32  C   UNL     1       5.697   3.660  16.353  0.00  0.00    +0.000 A 
ATOM     33  C   UNL     1       6.110   4.692  17.205  0.00  0.00    +0.000 A 
ATOM     34  C   UNL     1       6.870   5.728  16.626  0.00  0.00    +0.000 A 
ATOM     35 BR   UNL     1       7.521   7.171  17.686  0.00  0.00    +0.000 Br
ATOM     36  C   UNL     1       7.152   5.750  15.252  0.00  0.00    +0.000 A 
ENDBRANCH  27  33
ENDBRANCH   1  27
TORSDOF 11
ENDMDL
MODEL 6
REMARK VINA RESULT:      -7.8      4.915      7.012
REMARK  Name = 
REMARK  12 active torsions:
REMARK  status: ('A' for Active; 'I' for Inactive)
REMARK    1  A    between atoms: C_1  and  C_2
REMARK    2  A    between atoms: C_5  and  N_6
REMARK    3  A    between atoms: N_6  and  C_7
REMARK    4  A    between atoms: C_14  and  N_15
REMARK    5  A    between atoms: C_16  and  C_18
REMARK    6  A    between atoms: C_18  and  C_19
REMARK    7  A    between atoms: C_19  and  C_20
REMARK    8  A    between atoms: C_20  and  C_21
REMARK    9  A    between atoms: C_21  and  C_22
REMARK   10  A    between atoms: C_22  and  C_23
REMARK   11  A    between atoms: C_23  and  C_24
REMARK   12  A    between atoms: N_26  and  O_27
REMARK                            x       y       z     vdW  Elec       q    Type
REMARK                         _______ _______ _______ _____ _____    ______ ____
ROOT
ATOM      1  C   UNL     1       2.095   5.275  20.081  0.00  0.00    +0.000 A 
ATOM      2  N   UNL     1       1.084   4.777  20.830  0.00  0.00    +0.000 NA
ATOM      3  C   UNL     1       0.671   3.514  20.649  0.00  0.00    +0.000 A 
ATOM      4  C   UNL     1       1.219   2.674  19.718  0.00  0.00    +0.000 A 
ATOM      5  C   UNL     1       2.251   3.161  18.923  0.00  0.00    +0.000 A 
ATOM      6  C   UNL     1       2.816   2.312  17.973  0.00  0.00    +0.000 A 
ATOM      7  C   UNL     1       3.857   2.744  17.158  0.00  0.00    +0.000 A 
ATOM      8  C   UNL     1       4.361   4.037  17.276  0.00  0.00    +0.000 A 
ATOM      9  C   UNL     1       3.798   4.900  18.228  0.00  0.00    +0.000 A 
ATOM     10  C   UNL     1       2.725   4.487  19.076  0.00  0.00    +0.000 A 
ENDROOT
BRANCH   8  11
ATOM     11  N   UNL     1       5.412   4.525  16.467  0.00  0.00    +0.000 N 
ATOM     12  C   UNL     1       6.747   4.595  16.824  0.00  0.00    +0.000 C 
ATOM     13  O   UNL     1       7.233   4.299  17.911  0.00  0.00    +0.000 OA
ATOM     14  H   UNL     1       5.161   4.837  15.537  0.00  0.00    +0.000 HD
BRANCH  12  15
ATOM     15  C   UNL     1       7.652   5.079  15.714  0.00  0.00    +0.000 C 
BRANCH  15  16
ATOM     16  C   UNL     1       6.789   5.535  14.539  0.00  0.00    +0.000 C 
BRANCH  16  17
ATOM     17  C   UNL     1       6.983   4.697  13.279  0.00  0.00    +0.000 C 
BRANCH  17  18
ATOM     18  C   UNL     1       6.320   3.322  13.377  0.00  0.00    +0.000 C 
BRANCH  18  19
ATOM     19  C   UNL     1       5.096   3.245  12.474  0.00  0.00    +0.000 C 
BRANCH  19  20
ATOM     20  C   UNL     1       5.470   2.791  11.067  0.00  0.00    +0.000 C 
BRANCH  20  21
ATOM     21  C   UNL     1       6.394   1.596  11.104  0.00  0.00    +0.000 C 
ATOM     22  O   UNL     1       7.609   1.650  10.933  0.00  0.00    +0.000 OA
ATOM     23  N   UNL     1       5.755   0.410  11.369  0.00  0.00    +0.000 N 
ATOM     24  H   UNL     1       4.751   0.281  11.402  0.00  0.00    +0.000 HD
BRANCH  23  25
ATOM     25  O   UNL     1       6.567  -0.744  11.369  0.00  0.00    +0.000 OA
ATOM     26  H   UNL     1       5.920  -1.453  11.152  0.00  0.00    +0.000 HD
ENDBRANCH  23  25
ENDBRANCH  20  21
ENDBRANCH  19  20
ENDBRANCH  18  19
ENDBRANCH  17  18
ENDBRANCH  16  17
ENDBRANCH  15  16
ENDBRANCH  12  15
ENDBRANCH   8  11
BRANCH   1  27
ATOM     27  N   UNL     1       2.480   6.619  20.294  0.00  0.00    +0.000 N 
ATOM     28  H   UNL     1       3.302   6.713  20.875  0.00  0.00    +0.000 HD
BRANCH  27  33
ATOM     29  C   UNL     1      -0.789  11.351  20.649  0.00  0.00    +0.000 C 
ATOM     30  C   UNL     1       0.059  10.121  20.556  0.00  0.00    +0.000 A 
ATOM     31  C   UNL     1       0.152   9.250  21.636  0.00  0.00    +0.000 A 
ATOM     32  C   UNL     1       0.931   8.095  21.549  0.00  0.00    +0.000 A 
ATOM     33  C   UNL     1       1.676   7.785  20.405  0.00  0.00    +0.000 A 
ATOM     34  C   UNL     1       1.553   8.665  19.311  0.00  0.00    +0.000 A 
ATOM     35 BR   UNL     1       2.487   8.336  17.683  0.00  0.00    +0.000 Br
ATOM     36  C   UNL     1       0.764   9.822  19.385  0.00  0.00    +0.000 A 
ENDBRANCH  27  33
ENDBRANCH   1  27
TORSDOF 11
ENDMDL
MODEL 7
REMARK VINA RESULT:      -7.8      4.929      8.196
REMARK  Name = 
REMARK  12 active torsions:
REMARK  status: ('A' for Active; 'I' for Inactive)
REMARK    1  A    between atoms: C_1  and  C_2
REMARK    2  A    between atoms: C_5  and  N_6
REMARK    3  A    between atoms: N_6  and  C_7
REMARK    4  A    between atoms: C_14  and  N_15
REMARK    5  A    between atoms: C_16  and  C_18
REMARK    6  A    between atoms: C_18  and  C_19
REMARK    7  A    between atoms: C_19  and  C_20
REMARK    8  A    between atoms: C_20  and  C_21
REMARK    9  A    between atoms: C_21  and  C_22
REMARK   10  A    between atoms: C_22  and  C_23
REMARK   11  A    between atoms: C_23  and  C_24
REMARK   12  A    between atoms: N_26  and  O_27
REMARK                            x       y       z     vdW  Elec       q    Type
REMARK                         _______ _______ _______ _____ _____    ______ ____
ROOT
ATOM      1  C   UNL     1       4.749   4.102  19.335  0.00  0.00    +0.000 A 
ATOM      2  N   UNL     1       4.849   2.816  19.747  0.00  0.00    +0.000 NA
ATOM      3  C   UNL     1       3.871   2.268  20.482  0.00  0.00    +0.000 A 
ATOM      4  C   UNL     1       2.748   2.951  20.863  0.00  0.00    +0.000 A 
ATOM      5  C   UNL     1       2.623   4.278  20.467  0.00  0.00    +0.000 A 
ATOM      6  C   UNL     1       1.482   4.982  20.848  0.00  0.00    +0.000 A 
ATOM      7  C   UNL     1       1.302   6.308  20.473  0.00  0.00    +0.000 A 
ATOM      8  C   UNL     1       2.258   6.965  19.701  0.00  0.00    +0.000 A 
ATOM      9  C   UNL     1       3.411   6.265  19.313  0.00  0.00    +0.000 A 
ATOM     10  C   UNL     1       3.627   4.904  19.687  0.00  0.00    +0.000 A 
ENDROOT
BRANCH   8  11
ATOM     11  N   UNL     1       2.124   8.313  19.299  0.00  0.00    +0.000 N 
ATOM     12  C   UNL     1       2.274   8.795  18.012  0.00  0.00    +0.000 C 
ATOM     13  O   UNL     1       2.598   8.152  17.018  0.00  0.00    +0.000 OA
ATOM     14  H   UNL     1       1.882   8.978  20.022  0.00  0.00    +0.000 HD
BRANCH  12  15
ATOM     15  C   UNL     1       1.980  10.272  17.874  0.00  0.00    +0.000 C 
BRANCH  15  16
ATOM     16  C   UNL     1       1.424  10.788  19.200  0.00  0.00    +0.000 C 
BRANCH  16  17
ATOM     17  C   UNL     1       0.869  12.206  19.119  0.00  0.00    +0.000 C 
BRANCH  17  18
ATOM     18  C   UNL     1      -0.600  12.290  19.538  0.00  0.00    +0.000 C 
BRANCH  18  19
ATOM     19  C   UNL     1      -1.205  10.900  19.672  0.00  0.00    +0.000 C 
BRANCH  19  20
ATOM     20  C   UNL     1      -2.501  10.777  18.875  0.00  0.00    +0.000 C 
BRANCH  20  21
ATOM     21  C   UNL     1      -2.222  10.583  17.402  0.00  0.00    +0.000 C 
ATOM     22  O   UNL     1      -1.526   9.683  16.939  0.00  0.00    +0.000 OA
ATOM     23  N   UNL     1      -2.838  11.506  16.595  0.00  0.00    +0.000 N 
ATOM     24  H   UNL     1      -3.323  12.335  16.918  0.00  0.00    +0.000 HD
BRANCH  23  25
ATOM     25  O   UNL     1      -2.571  11.396  15.214  0.00  0.00    +0.000 OA
ATOM     26  H   UNL     1      -3.456  11.163  14.850  0.00  0.00    +0.000 HD
ENDBRANCH  23  25
ENDBRANCH  20  21
ENDBRANCH  19  20
ENDBRANCH  18  19
ENDBRANCH  17  18
ENDBRANCH  16  17
ENDBRANCH  15  16
ENDBRANCH  12  15
ENDBRANCH   8  11
BRANCH   1  27
ATOM     27  N   UNL     1       5.817   4.642  18.580  0.00  0.00    +0.000 N 
ATOM     28  H   UNL     1       6.181   5.504  18.963  0.00  0.00    +0.000 HD
BRANCH  27  33
ATOM     29  C   UNL     1       6.827   4.533  12.908  0.00  0.00    +0.000 C 
ATOM     30  C   UNL     1       6.566   4.561  14.382  0.00  0.00    +0.000 A 
ATOM     31  C   UNL     1       5.812   3.556  14.980  0.00  0.00    +0.000 A 
ATOM     32  C   UNL     1       5.578   3.571  16.355  0.00  0.00    +0.000 A 
ATOM     33  C   UNL     1       6.047   4.602  17.179  0.00  0.00    +0.000 A 
ATOM     34  C   UNL     1       6.829   5.599  16.562  0.00  0.00    +0.000 A 
ATOM     35 BR   UNL     1       7.557   7.037  17.580  0.00  0.00    +0.000 Br
ATOM     36  C   UNL     1       7.079   5.587  15.182  0.00  0.00    +0.000 A 
ENDBRANCH  27  33
ENDBRANCH   1  27
TORSDOF 11
ENDMDL
MODEL 8
REMARK VINA RESULT:      -7.8      4.102      8.210
REMARK  Name = 
REMARK  12 active torsions:
REMARK  status: ('A' for Active; 'I' for Inactive)
REMARK    1  A    between atoms: C_1  and  C_2
REMARK    2  A    between atoms: C_5  and  N_6
REMARK    3  A    between atoms: N_6  and  C_7
REMARK    4  A    between atoms: C_14  and  N_15
REMARK    5  A    between atoms: C_16  and  C_18
REMARK    6  A    between atoms: C_18  and  C_19
REMARK    7  A    between atoms: C_19  and  C_20
REMARK    8  A    between atoms: C_20  and  C_21
REMARK    9  A    between atoms: C_21  and  C_22
REMARK   10  A    between atoms: C_22  and  C_23
REMARK   11  A    between atoms: C_23  and  C_24
REMARK   12  A    between atoms: N_26  and  O_27
REMARK                            x       y       z     vdW  Elec       q    Type
REMARK                         _______ _______ _______ _____ _____    ______ ____
ROOT
ATOM      1  C   UNL     1       4.837   3.451  19.192  0.00  0.00    +0.000 A 
ATOM      2  N   UNL     1       5.102   2.236  19.726  0.00  0.00    +0.000 NA
ATOM      3  C   UNL     1       4.315   1.738  20.690  0.00  0.00    +0.000 A 
ATOM      4  C   UNL     1       3.231   2.408  21.191  0.00  0.00    +0.000 A 
ATOM      5  C   UNL     1       2.941   3.665  20.673  0.00  0.00    +0.000 A 
ATOM      6  C   UNL     1       1.839   4.354  21.175  0.00  0.00    +0.000 A 
ATOM      7  C   UNL     1       1.498   5.610  20.687  0.00  0.00    +0.000 A 
ATOM      8  C   UNL     1       2.251   6.209  19.679  0.00  0.00    +0.000 A 
ATOM      9  C   UNL     1       3.363   5.523  19.167  0.00  0.00    +0.000 A 
ATOM     10  C   UNL     1       3.741   4.235  19.651  0.00  0.00    +0.000 A 
ENDROOT
BRANCH   8  11
ATOM     11  N   UNL     1       1.949   7.486  19.154  0.00  0.00    +0.000 N 
ATOM     12  C   UNL     1       2.617   8.118  18.121  0.00  0.00    +0.000 C 
ATOM     13  O   UNL     1       3.608   7.706  17.525  0.00  0.00    +0.000 OA
ATOM     14  H   UNL     1       1.162   7.970  19.567  0.00  0.00    +0.000 HD
BRANCH  12  15
ATOM     15  C   UNL     1       2.008   9.442  17.718  0.00  0.00    +0.000 C 
BRANCH  15  16
ATOM     16  C   UNL     1       1.485  10.143  18.971  0.00  0.00    +0.000 C 
BRANCH  16  17
ATOM     17  C   UNL     1       0.099  10.755  18.794  0.00  0.00    +0.000 C 
BRANCH  17  18
ATOM     18  C   UNL     1      -0.821   9.892  17.929  0.00  0.00    +0.000 C 
BRANCH  18  19
ATOM     19  C   UNL     1      -2.267  10.353  18.049  0.00  0.00    +0.000 C 
BRANCH  19  20
ATOM     20  C   UNL     1      -3.152   9.691  16.998  0.00  0.00    +0.000 C 
BRANCH  20  21
ATOM     21  C   UNL     1      -2.979  10.344  15.646  0.00  0.00    +0.000 C 
ATOM     22  O   UNL     1      -2.961  11.558  15.457  0.00  0.00    +0.000 OA
ATOM     23  N   UNL     1      -2.820   9.452  14.615  0.00  0.00    +0.000 N 
ATOM     24  H   UNL     1      -2.942   8.449  14.686  0.00  0.00    +0.000 HD
BRANCH  23  25
ATOM     25  O   UNL     1      -2.700  10.011  13.325  0.00  0.00    +0.000 OA
ATOM     26  H   UNL     1      -1.942  10.629  13.437  0.00  0.00    +0.000 HD
ENDBRANCH  23  25
ENDBRANCH  20  21
ENDBRANCH  19  20
ENDBRANCH  18  19
ENDBRANCH  17  18
ENDBRANCH  16  17
ENDBRANCH  15  16
ENDBRANCH  12  15
ENDBRANCH   8  11
BRANCH   1  27
ATOM     27  N   UNL     1       5.710   3.943  18.193  0.00  0.00    +0.000 N 
ATOM     28  H   UNL     1       6.225   3.214  17.718  0.00  0.00    +0.000 HD
BRANCH  27  33
ATOM     29  C   UNL     1       8.626   8.906  17.950  0.00  0.00    +0.000 C 
ATOM     30  C   UNL     1       7.867   7.618  18.013  0.00  0.00    +0.000 A 
ATOM     31  C   UNL     1       7.935   6.819  19.151  0.00  0.00    +0.000 A 
ATOM     32  C   UNL     1       7.218   5.624  19.220  0.00  0.00    +0.000 A 
ATOM     33  C   UNL     1       6.444   5.159  18.150  0.00  0.00    +0.000 A 
ATOM     34  C   UNL     1       6.367   5.990  17.014  0.00  0.00    +0.000 A 
ATOM     35 BR   UNL     1       5.317   5.487  15.505  0.00  0.00    +0.000 Br
ATOM     36  C   UNL     1       7.075   7.198  16.940  0.00  0.00    +0.000 A 
ENDBRANCH  27  33
ENDBRANCH   1  27
TORSDOF 11
ENDMDL
MODEL 9
REMARK VINA RESULT:      -7.8      4.471      7.945
REMARK  Name = 
REMARK  12 active torsions:
REMARK  status: ('A' for Active; 'I' for Inactive)
REMARK    1  A    between atoms: C_1  and  C_2
REMARK    2  A    between atoms: C_5  and  N_6
REMARK    3  A    between atoms: N_6  and  C_7
REMARK    4  A    between atoms: C_14  and  N_15
REMARK    5  A    between atoms: C_16  and  C_18
REMARK    6  A    between atoms: C_18  and  C_19
REMARK    7  A    between atoms: C_19  and  C_20
REMARK    8  A    between atoms: C_20  and  C_21
REMARK    9  A    between atoms: C_21  and  C_22
REMARK   10  A    between atoms: C_22  and  C_23
REMARK   11  A    between atoms: C_23  and  C_24
REMARK   12  A    between atoms: N_26  and  O_27
REMARK                            x       y       z     vdW  Elec       q    Type
REMARK                         _______ _______ _______ _____ _____    ______ ____
ROOT
ATOM      1  C   UNL     1       4.867   3.500  19.257  0.00  0.00    +0.000 A 
ATOM      2  N   UNL     1       5.085   2.297  19.838  0.00  0.00    +0.000 NA
ATOM      3  C   UNL     1       4.243   1.839  20.775  0.00  0.00    +0.000 A 
ATOM      4  C   UNL     1       3.148   2.540  21.203  0.00  0.00    +0.000 A 
ATOM      5  C   UNL     1       2.905   3.786  20.635  0.00  0.00    +0.000 A 
ATOM      6  C   UNL     1       1.791   4.506  21.063  0.00  0.00    +0.000 A 
ATOM      7  C   UNL     1       1.495   5.752  20.523  0.00  0.00    +0.000 A 
ATOM      8  C   UNL     1       2.306   6.310  19.537  0.00  0.00    +0.000 A 
ATOM      9  C   UNL     1       3.431   5.593  19.101  0.00  0.00    +0.000 A 
ATOM     10  C   UNL     1       3.763   4.313  19.640  0.00  0.00    +0.000 A 
ENDROOT
BRANCH   8  11
ATOM     11  N   UNL     1       2.052   7.576  18.963  0.00  0.00    +0.000 N 
ATOM     12  C   UNL     1       1.561   8.685  19.627  0.00  0.00    +0.000 C 
ATOM     13  O   UNL     1       1.214   8.744  20.803  0.00  0.00    +0.000 OA
ATOM     14  H   UNL     1       2.265   7.677  17.979  0.00  0.00    +0.000 HD
BRANCH  12  15
ATOM     15  C   UNL     1       1.478   9.926  18.767  0.00  0.00    +0.000 C 
BRANCH  15  16
ATOM     16  C   UNL     1       0.339   9.754  17.764  0.00  0.00    +0.000 C 
BRANCH  16  17
ATOM     17  C   UNL     1      -0.909  10.558  18.114  0.00  0.00    +0.000 C 
BRANCH  17  18
ATOM     18  C   UNL     1      -0.634  11.653  19.146  0.00  0.00    +0.000 C 
BRANCH  18  19
ATOM     19  C   UNL     1      -1.821  11.822  20.086  0.00  0.00    +0.000 C 
BRANCH  19  20
ATOM     20  C   UNL     1      -1.533  12.862  21.165  0.00  0.00    +0.000 C 
BRANCH  20  21
ATOM     21  C   UNL     1      -0.839  12.238  22.354  0.00  0.00    +0.000 C 
ATOM     22  O   UNL     1      -0.469  12.858  23.348  0.00  0.00    +0.000 OA
ATOM     23  N   UNL     1      -0.663  10.881  22.245  0.00  0.00    +0.000 N 
ATOM     24  H   UNL     1      -0.837  10.334  21.410  0.00  0.00    +0.000 HD
BRANCH  23  25
ATOM     25  O   UNL     1       0.022  10.258  23.309  0.00  0.00    +0.000 OA
ATOM     26  H   UNL     1       0.508   9.536  22.849  0.00  0.00    +0.000 HD
ENDBRANCH  23  25
ENDBRANCH  20  21
ENDBRANCH  19  20
ENDBRANCH  18  19
ENDBRANCH  17  18
ENDBRANCH  16  17
ENDBRANCH  15  16
ENDBRANCH  12  15
ENDBRANCH   8  11
BRANCH   1  27
ATOM     27  N   UNL     1       5.797   3.949  18.290  0.00  0.00    +0.000 N 
ATOM     28  H   UNL     1       6.361   3.206  17.902  0.00  0.00    +0.000 HD
BRANCH  27  33
ATOM     29  C   UNL     1       8.593   8.974  17.927  0.00  0.00    +0.000 C 
ATOM     30  C   UNL     1       7.865   7.670  18.022  0.00  0.00    +0.000 A 
ATOM     31  C   UNL     1       8.078   6.825  19.107  0.00  0.00    +0.000 A 
ATOM     32  C   UNL     1       7.391   5.614  19.206  0.00  0.00    +0.000 A 
ATOM     33  C   UNL     1       6.502   5.180  18.215  0.00  0.00    +0.000 A 
ATOM     34  C   UNL     1       6.280   6.057  17.134  0.00  0.00    +0.000 A 
ATOM     35 BR   UNL     1       5.067   5.598  15.738  0.00  0.00    +0.000 Br
ATOM     36  C   UNL     1       6.957   7.281  17.032  0.00  0.00    +0.000 A 
ENDBRANCH  27  33
ENDBRANCH   1  27
TORSDOF 11
ENDMDL
