MODEL 1
REMARK VINA RESULT:      -8.9      0.000      0.000
REMARK  Name = 
REMARK  6 active torsions:
REMARK  status: ('A' for Active; 'I' for Inactive)
REMARK    1  A    between atoms: N_1  and  C_2
REMARK    2  A    between atoms: C_5  and  C_6
REMARK    3  A    between atoms: C_10  and  C_11
REMARK    4  A    between atoms: C_11  and  N_12
REMARK    5  A    between atoms: C_20  and  C_21
REMARK    6  A    between atoms: C_24  and  C_25
REMARK                            x       y       z     vdW  Elec       q    Type
REMARK                         _______ _______ _______ _____ _____    ______ ____
ROOT
ATOM      1  C   UNL     1       1.302  10.215  18.906  0.00  0.00    +0.000 A 
ATOM      2  N   UNL     1       1.836   9.880  17.713  0.00  0.00    +0.000 NA
ATOM      3  C   UNL     1       2.327   8.623  17.562  0.00  0.00    +0.000 A 
ATOM      4  C   UNL     1       2.328   7.647  18.552  0.00  0.00    +0.000 A 
ATOM      5  C   UNL     1       1.753   8.036  19.775  0.00  0.00    +0.000 A 
ATOM      6  C   UNL     1       1.224   9.319  19.975  0.00  0.00    +0.000 A 
ENDROOT
BRANCH   4   7
ATOM      7  C   UNL     1       2.858   6.278  18.366  0.00  0.00    +0.000 A 
ATOM      8  C   UNL     1       2.086   5.228  17.845  0.00  0.00    +0.000 A 
ATOM      9  C   UNL     1       2.590   3.922  17.798  0.00  0.00    +0.000 A 
ATOM     10  C   UNL     1       3.870   3.639  18.288  0.00  0.00    +0.000 A 
ATOM     11  C   UNL     1       4.675   4.659  18.796  0.00  0.00    +0.000 A 
ATOM     12  C   UNL     1       4.170   5.968  18.784  0.00  0.00    +0.000 A 
BRANCH  11  13
ATOM     13  C   UNL     1       6.071   4.387  19.309  0.00  0.00    +0.000 C 
BRANCH  13  14
ATOM     14  N   UNL     1       7.213   4.658  18.432  0.00  0.00    +0.000 NA
ATOM     15  C   UNL     1       7.917   5.927  18.640  0.00  0.00    +0.000 C 
ATOM     16  C   UNL     1       7.397   7.089  17.780  0.00  0.00    +0.000 C 
ATOM     17  O   UNL     1       7.382   6.746  16.389  0.00  0.00    +0.000 OA
ATOM     18  C   UNL     1       6.585   5.580  16.156  0.00  0.00    +0.000 C 
ATOM     19  C   UNL     1       7.054   4.384  17.000  0.00  0.00    +0.000 C 
ENDBRANCH  13  14
ENDBRANCH  11  13
ENDBRANCH   4   7
BRANCH   6  20
ATOM     20  C   UNL     1       0.642   9.698  21.254  0.00  0.00    +0.000 A 
ATOM     21  N   UNL     1       1.057   9.435  22.476  0.00  0.00    +0.000 NA
ATOM     22  N   UNL     1       0.189  10.069  23.334  0.00  0.00    +0.000 NA
ATOM     23  C   UNL     1      -0.713  10.671  22.584  0.00  0.00    +0.000 A 
ATOM     24  O   UNL     1      -0.509  10.453  21.242  0.00  0.00    +0.000 OA
BRANCH  23  25
ATOM     25  C   UNL     1      -1.825  11.512  23.190  0.00  0.00    +0.000 C 
ATOM     26  C   UNL     1      -1.705  13.022  23.188  0.00  0.00    +0.000 C 
ATOM     27  C   UNL     1      -2.693  12.363  22.287  0.00  0.00    +0.000 C 
ENDBRANCH  23  25
ENDBRANCH   6  20
BRANCH   1  28
ATOM     28  N   UNL     1       0.741  11.489  18.954  0.00  0.00    +0.000 N 
ATOM     29  H   UNL     1       1.242  12.092  18.310  0.00  0.00    +0.000 HD
ATOM     30  H   UNL     1       0.683  11.861  19.899  0.00  0.00    +0.000 HD
ENDBRANCH   1  28
TORSDOF 6
ENDMDL
MODEL 2
REMARK VINA RESULT:      -8.7      1.116      1.399
REMARK  Name = 
REMARK  6 active torsions:
REMARK  status: ('A' for Active; 'I' for Inactive)
REMARK    1  A    between atoms: N_1  and  C_2
REMARK    2  A    between atoms: C_5  and  C_6
REMARK    3  A    between atoms: C_10  and  C_11
REMARK    4  A    between atoms: C_11  and  N_12
REMARK    5  A    between atoms: C_20  and  C_21
REMARK    6  A    between atoms: C_24  and  C_25
REMARK                            x       y       z     vdW  Elec       q    Type
REMARK                         _______ _______ _______ _____ _____    ______ ____
ROOT
ATOM      1  C   UNL     1       1.217  10.115  19.218  0.00  0.00    +0.000 A 
ATOM      2  N   UNL     1       1.806   9.675  18.088  0.00  0.00    +0.000 NA
ATOM      3  C   UNL     1       2.235   8.386  18.049  0.00  0.00    +0.000 A 
ATOM      4  C   UNL     1       2.118   7.480  19.097  0.00  0.00    +0.000 A 
ATOM      5  C   UNL     1       1.489   7.979  20.251  0.00  0.00    +0.000 A 
ATOM      6  C   UNL     1       1.021   9.297  20.334  0.00  0.00    +0.000 A 
ENDROOT
BRANCH   4   7
ATOM      7  C   UNL     1       2.582   6.075  19.034  0.00  0.00    +0.000 A 
ATOM      8  C   UNL     1       2.556   5.216  20.144  0.00  0.00    +0.000 A 
ATOM      9  C   UNL     1       3.114   3.934  20.071  0.00  0.00    +0.000 A 
ATOM     10  C   UNL     1       3.726   3.494  18.891  0.00  0.00    +0.000 A 
ATOM     11  C   UNL     1       3.754   4.312  17.762  0.00  0.00    +0.000 A 
ATOM     12  C   UNL     1       3.142   5.572  17.841  0.00  0.00    +0.000 A 
BRANCH  11  13
ATOM     13  C   UNL     1       4.386   3.854  16.466  0.00  0.00    +0.000 C 
BRANCH  13  14
ATOM     14  N   UNL     1       5.845   3.760  16.384  0.00  0.00    +0.000 NA
ATOM     15  C   UNL     1       6.613   4.647  17.263  0.00  0.00    +0.000 C 
ATOM     16  C   UNL     1       6.989   5.995  16.630  0.00  0.00    +0.000 C 
ATOM     17  O   UNL     1       7.668   5.817  15.381  0.00  0.00    +0.000 OA
ATOM     18  C   UNL     1       6.868   5.062  14.465  0.00  0.00    +0.000 C 
ATOM     19  C   UNL     1       6.451   3.703  15.050  0.00  0.00    +0.000 C 
ENDBRANCH  13  14
ENDBRANCH  11  13
ENDBRANCH   4   7
BRANCH   6  20
ATOM     20  C   UNL     1       0.381   9.791  21.545  0.00  0.00    +0.000 A 
ATOM     21  N   UNL     1       0.709   9.598  22.806  0.00  0.00    +0.000 NA
ATOM     22  N   UNL     1      -0.180  10.327  23.561  0.00  0.00    +0.000 NA
ATOM     23  C   UNL     1      -1.006  10.911  22.716  0.00  0.00    +0.000 A 
ATOM     24  O   UNL     1      -0.732  10.590  21.408  0.00  0.00    +0.000 OA
BRANCH  23  25
ATOM     25  C   UNL     1      -2.114  11.838  23.191  0.00  0.00    +0.000 C 
ATOM     26  C   UNL     1      -1.961  13.335  23.013  0.00  0.00    +0.000 C 
ATOM     27  C   UNL     1      -2.944  12.591  22.173  0.00  0.00    +0.000 C 
ENDBRANCH  23  25
ENDBRANCH   6  20
BRANCH   1  28
ATOM     28  N   UNL     1       0.726  11.416  19.148  0.00  0.00    +0.000 N 
ATOM     29  H   UNL     1       1.370  12.036  19.629  0.00  0.00    +0.000 HD
ATOM     30  H   UNL     1      -0.235  11.496  19.474  0.00  0.00    +0.000 HD
ENDBRANCH   1  28
TORSDOF 6
ENDMDL
MODEL 3
REMARK VINA RESULT:      -8.7      0.948      1.246
REMARK  Name = 
REMARK  6 active torsions:
REMARK  status: ('A' for Active; 'I' for Inactive)
REMARK    1  A    between atoms: N_1  and  C_2
REMARK    2  A    between atoms: C_5  and  C_6
REMARK    3  A    between atoms: C_10  and  C_11
REMARK    4  A    between atoms: C_11  and  N_12
REMARK    5  A    between atoms: C_20  and  C_21
REMARK    6  A    between atoms: C_24  and  C_25
REMARK                            x       y       z     vdW  Elec       q    Type
REMARK                         _______ _______ _______ _____ _____    ______ ____
ROOT
ATOM      1  C   UNL     1       1.205   9.910  19.032  0.00  0.00    +0.000 A 
ATOM      2  N   UNL     1       1.749   9.492  17.870  0.00  0.00    +0.000 NA
ATOM      3  C   UNL     1       2.313   8.257  17.834  0.00  0.00    +0.000 A 
ATOM      4  C   UNL     1       2.380   7.385  18.915  0.00  0.00    +0.000 A 
ATOM      5  C   UNL     1       1.793   7.857  20.102  0.00  0.00    +0.000 A 
ATOM      6  C   UNL     1       1.190   9.120  20.184  0.00  0.00    +0.000 A 
ENDROOT
BRANCH   4   7
ATOM      7  C   UNL     1       2.990   6.037  18.856  0.00  0.00    +0.000 A 
ATOM      8  C   UNL     1       2.806   5.075  19.861  0.00  0.00    +0.000 A 
ATOM      9  C   UNL     1       3.497   3.858  19.823  0.00  0.00    +0.000 A 
ATOM     10  C   UNL     1       4.400   3.587  18.788  0.00  0.00    +0.000 A 
ATOM     11  C   UNL     1       4.595   4.511  17.761  0.00  0.00    +0.000 A 
ATOM     12  C   UNL     1       3.852   5.701  17.790  0.00  0.00    +0.000 A 
BRANCH  11  13
ATOM     13  C   UNL     1       5.545   4.236  16.617  0.00  0.00    +0.000 C 
BRANCH  13  14
ATOM     14  N   UNL     1       6.898   4.793  16.670  0.00  0.00    +0.000 NA
ATOM     15  C   UNL     1       7.671   4.532  17.889  0.00  0.00    +0.000 C 
ATOM     16  C   UNL     1       7.533   5.613  18.971  0.00  0.00    +0.000 C 
ATOM     17  O   UNL     1       7.838   6.915  18.454  0.00  0.00    +0.000 OA
ATOM     18  C   UNL     1       6.995   7.235  17.342  0.00  0.00    +0.000 C 
ATOM     19  C   UNL     1       7.083   6.179  16.229  0.00  0.00    +0.000 C 
ENDBRANCH  13  14
ENDBRANCH  11  13
ENDBRANCH   4   7
BRANCH   6  20
ATOM     20  C   UNL     1       0.597   9.588  21.428  0.00  0.00    +0.000 A 
ATOM     21  N   UNL     1       1.003   9.414  22.669  0.00  0.00    +0.000 NA
ATOM     22  N   UNL     1       0.126  10.105  23.472  0.00  0.00    +0.000 NA
ATOM     23  C   UNL     1      -0.772  10.648  22.674  0.00  0.00    +0.000 A 
ATOM     24  O   UNL     1      -0.557  10.335  21.353  0.00  0.00    +0.000 OA
BRANCH  23  25
ATOM     25  C   UNL     1      -1.892  11.526  23.210  0.00  0.00    +0.000 C 
ATOM     26  C   UNL     1      -1.715  13.030  23.232  0.00  0.00    +0.000 C 
ATOM     27  C   UNL     1      -2.662  12.416  22.258  0.00  0.00    +0.000 C 
ENDBRANCH  23  25
ENDBRANCH   6  20
BRANCH   1  28
ATOM     28  N   UNL     1       0.569  11.147  18.964  0.00  0.00    +0.000 N 
ATOM     29  H   UNL     1      -0.400  11.033  19.242  0.00  0.00    +0.000 HD
ATOM     30  H   UNL     1       0.683  11.602  18.061  0.00  0.00    +0.000 HD
ENDBRANCH   1  28
TORSDOF 6
ENDMDL
MODEL 4
REMARK VINA RESULT:      -8.2      2.225      3.520
REMARK  Name = 
REMARK  6 active torsions:
REMARK  status: ('A' for Active; 'I' for Inactive)
REMARK    1  A    between atoms: N_1  and  C_2
REMARK    2  A    between atoms: C_5  and  C_6
REMARK    3  A    between atoms: C_10  and  C_11
REMARK    4  A    between atoms: C_11  and  N_12
REMARK    5  A    between atoms: C_20  and  C_21
REMARK    6  A    between atoms: C_24  and  C_25
REMARK                            x       y       z     vdW  Elec       q    Type
REMARK                         _______ _______ _______ _____ _____    ______ ____
ROOT
ATOM      1  C   UNL     1       1.158  10.305  18.838  0.00  0.00    +0.000 A 
ATOM      2  N   UNL     1       1.674  10.059  17.617  0.00  0.00    +0.000 NA
ATOM      3  C   UNL     1       2.329   8.885  17.423  0.00  0.00    +0.000 A 
ATOM      4  C   UNL     1       2.515   7.911  18.397  0.00  0.00    +0.000 A 
ATOM      5  C   UNL     1       1.953   8.205  19.652  0.00  0.00    +0.000 A 
ATOM      6  C   UNL     1       1.259   9.398  19.896  0.00  0.00    +0.000 A 
ENDROOT
BRANCH   4   7
ATOM      7  C   UNL     1       3.223   6.632  18.165  0.00  0.00    +0.000 A 
ATOM      8  C   UNL     1       4.618   6.548  18.037  0.00  0.00    +0.000 A 
ATOM      9  C   UNL     1       5.236   5.337  17.700  0.00  0.00    +0.000 A 
ATOM     10  C   UNL     1       4.467   4.190  17.467  0.00  0.00    +0.000 A 
ATOM     11  C   UNL     1       3.080   4.230  17.604  0.00  0.00    +0.000 A 
ATOM     12  C   UNL     1       2.487   5.440  17.995  0.00  0.00    +0.000 A 
BRANCH  11  13
ATOM     13  C   UNL     1       2.225   3.002  17.384  0.00  0.00    +0.000 C 
BRANCH  13  14
ATOM     14  N   UNL     1       1.904   2.147  18.529  0.00  0.00    +0.000 NA
ATOM     15  C   UNL     1       0.695   2.486  19.286  0.00  0.00    +0.000 C 
ATOM     16  C   UNL     1       0.933   3.432  20.472  0.00  0.00    +0.000 C 
ATOM     17  O   UNL     1       1.948   2.928  21.349  0.00  0.00    +0.000 OA
ATOM     18  C   UNL     1       3.177   2.719  20.646  0.00  0.00    +0.000 C 
ATOM     19  C   UNL     1       2.997   1.785  19.438  0.00  0.00    +0.000 C 
ENDBRANCH  13  14
ENDBRANCH  11  13
ENDBRANCH   4   7
BRANCH   6  20
ATOM     20  C   UNL     1       0.693   9.681  21.207  0.00  0.00    +0.000 A 
ATOM     21  N   UNL     1       1.116   9.316  22.400  0.00  0.00    +0.000 NA
ATOM     22  N   UNL     1       0.263   9.890  23.314  0.00  0.00    +0.000 NA
ATOM     23  C   UNL     1      -0.638  10.560  22.624  0.00  0.00    +0.000 A 
ATOM     24  O   UNL     1      -0.449  10.447  21.267  0.00  0.00    +0.000 OA
BRANCH  23  25
ATOM     25  C   UNL     1      -1.735  11.362  23.306  0.00  0.00    +0.000 C 
ATOM     26  C   UNL     1      -1.651  12.874  23.324  0.00  0.00    +0.000 C 
ATOM     27  C   UNL     1      -2.673  12.205  22.468  0.00  0.00    +0.000 C 
ENDBRANCH  23  25
ENDBRANCH   6  20
BRANCH   1  28
ATOM     28  N   UNL     1       0.426  11.487  18.933  0.00  0.00    +0.000 N 
ATOM     29  H   UNL     1       0.697  11.973  19.781  0.00  0.00    +0.000 HD
ATOM     30  H   UNL     1      -0.577  11.340  18.851  0.00  0.00    +0.000 HD
ENDBRANCH   1  28
TORSDOF 6
ENDMDL
MODEL 5
REMARK VINA RESULT:      -8.0      1.496      2.107
REMARK  Name = 
REMARK  6 active torsions:
REMARK  status: ('A' for Active; 'I' for Inactive)
REMARK    1  A    between atoms: N_1  and  C_2
REMARK    2  A    between atoms: C_5  and  C_6
REMARK    3  A    between atoms: C_10  and  C_11
REMARK    4  A    between atoms: C_11  and  N_12
REMARK    5  A    between atoms: C_20  and  C_21
REMARK    6  A    between atoms: C_24  and  C_25
REMARK                            x       y       z     vdW  Elec       q    Type
REMARK                         _______ _______ _______ _____ _____    ______ ____
ROOT
ATOM      1  C   UNL     1       0.907  11.040  19.280  0.00  0.00    +0.000 A 
ATOM      2  N   UNL     1       1.641  10.529  18.271  0.00  0.00    +0.000 NA
ATOM      3  C   UNL     1       2.000   9.220  18.339  0.00  0.00    +0.000 A 
ATOM      4  C   UNL     1       1.670   8.361  19.381  0.00  0.00    +0.000 A 
ATOM      5  C   UNL     1       0.896   8.933  20.405  0.00  0.00    +0.000 A 
ATOM      6  C   UNL     1       0.493  10.275  20.374  0.00  0.00    +0.000 A 
ENDROOT
BRANCH   4   7
ATOM      7  C   UNL     1       2.060   6.934  19.433  0.00  0.00    +0.000 A 
ATOM      8  C   UNL     1       1.832   6.124  20.557  0.00  0.00    +0.000 A 
ATOM      9  C   UNL     1       2.324   4.814  20.609  0.00  0.00    +0.000 A 
ATOM     10  C   UNL     1       3.070   4.295  19.544  0.00  0.00    +0.000 A 
ATOM     11  C   UNL     1       3.301   5.062  18.402  0.00  0.00    +0.000 A 
ATOM     12  C   UNL     1       2.753   6.353  18.350  0.00  0.00    +0.000 A 
BRANCH  11  13
ATOM     13  C   UNL     1       4.081   4.519  17.226  0.00  0.00    +0.000 C 
BRANCH  13  14
ATOM     14  N   UNL     1       5.113   5.358  16.613  0.00  0.00    +0.000 NA
ATOM     15  C   UNL     1       5.490   5.036  15.233  0.00  0.00    +0.000 C 
ATOM     16  C   UNL     1       6.670   4.059  15.110  0.00  0.00    +0.000 C 
ATOM     17  O   UNL     1       7.810   4.519  15.847  0.00  0.00    +0.000 OA
ATOM     18  C   UNL     1       7.485   4.710  17.228  0.00  0.00    +0.000 C 
ATOM     19  C   UNL     1       6.301   5.672  17.413  0.00  0.00    +0.000 C 
ENDBRANCH  13  14
ENDBRANCH  11  13
ENDBRANCH   4   7
BRANCH   6  20
ATOM     20  C   UNL     1      -0.302  10.845  21.452  0.00  0.00    +0.000 A 
ATOM     21  N   UNL     1      -0.069  10.860  22.749  0.00  0.00    +0.000 NA
ATOM     22  N   UNL     1      -1.094  11.572  23.326  0.00  0.00    +0.000 NA
ATOM     23  C   UNL     1      -1.900  11.938  22.349  0.00  0.00    +0.000 A 
ATOM     24  O   UNL     1      -1.477  11.481  21.123  0.00  0.00    +0.000 OA
BRANCH  23  25
ATOM     25  C   UNL     1      -3.138  12.782  22.606  0.00  0.00    +0.000 C 
ATOM     26  C   UNL     1      -3.302  14.104  21.884  0.00  0.00    +0.000 C 
ATOM     27  C   UNL     1      -4.167  12.949  21.508  0.00  0.00    +0.000 C 
ENDBRANCH  23  25
ENDBRANCH   6  20
BRANCH   1  28
ATOM     28  N   UNL     1       0.504  12.360  19.095  0.00  0.00    +0.000 N 
ATOM     29  H   UNL     1       1.131  12.969  19.611  0.00  0.00    +0.000 HD
ATOM     30  H   UNL     1      -0.478  12.510  19.311  0.00  0.00    +0.000 HD
ENDBRANCH   1  28
TORSDOF 6
ENDMDL
MODEL 6
REMARK VINA RESULT:      -8.0      2.239      3.400
REMARK  Name = 
REMARK  6 active torsions:
REMARK  status: ('A' for Active; 'I' for Inactive)
REMARK    1  A    between atoms: N_1  and  C_2
REMARK    2  A    between atoms: C_5  and  C_6
REMARK    3  A    between atoms: C_10  and  C_11
REMARK    4  A    between atoms: C_11  and  N_12
REMARK    5  A    between atoms: C_20  and  C_21
REMARK    6  A    between atoms: C_24  and  C_25
REMARK                            x       y       z     vdW  Elec       q    Type
REMARK                         _______ _______ _______ _____ _____    ______ ____
ROOT
ATOM      1  C   UNL     1       0.844   9.872  18.770  0.00  0.00    +0.000 A 
ATOM      2  N   UNL     1       1.327   9.571  17.547  0.00  0.00    +0.000 NA
ATOM      3  C   UNL     1       2.178   8.519  17.436  0.00  0.00    +0.000 A 
ATOM      4  C   UNL     1       2.598   7.723  18.496  0.00  0.00    +0.000 A 
ATOM      5  C   UNL     1       2.063   8.067  19.750  0.00  0.00    +0.000 A 
ATOM      6  C   UNL     1       1.173   9.138  19.912  0.00  0.00    +0.000 A 
ENDROOT
BRANCH   4   7
ATOM      7  C   UNL     1       3.519   6.573  18.355  0.00  0.00    +0.000 A 
ATOM      8  C   UNL     1       4.334   6.385  17.228  0.00  0.00    +0.000 A 
ATOM      9  C   UNL     1       5.100   5.222  17.083  0.00  0.00    +0.000 A 
ATOM     10  C   UNL     1       5.052   4.216  18.055  0.00  0.00    +0.000 A 
ATOM     11  C   UNL     1       4.269   4.375  19.198  0.00  0.00    +0.000 A 
ATOM     12  C   UNL     1       3.551   5.571  19.348  0.00  0.00    +0.000 A 
BRANCH  11  13
ATOM     13  C   UNL     1       4.216   3.316  20.277  0.00  0.00    +0.000 C 
BRANCH  13  14
ATOM     14  N   UNL     1       3.108   2.358  20.275  0.00  0.00    +0.000 NA
ATOM     15  C   UNL     1       2.704   1.820  18.972  0.00  0.00    +0.000 C 
ATOM     16  C   UNL     1       1.589   2.615  18.277  0.00  0.00    +0.000 C 
ATOM     17  O   UNL     1       0.448   2.775  19.129  0.00  0.00    +0.000 OA
ATOM     18  C   UNL     1       0.809   3.422  20.354  0.00  0.00    +0.000 C 
ATOM     19  C   UNL     1       1.932   2.674  21.091  0.00  0.00    +0.000 C 
ENDBRANCH  13  14
ENDBRANCH  11  13
ENDBRANCH   4   7
BRANCH   6  20
ATOM     20  C   UNL     1       0.639   9.477  21.223  0.00  0.00    +0.000 A 
ATOM     21  N   UNL     1       1.038   9.089  22.417  0.00  0.00    +0.000 NA
ATOM     22  N   UNL     1       0.240   9.738  23.330  0.00  0.00    +0.000 NA
ATOM     23  C   UNL     1      -0.608  10.474  22.638  0.00  0.00    +0.000 A 
ATOM     24  O   UNL     1      -0.436  10.334  21.282  0.00  0.00    +0.000 OA
BRANCH  23  25
ATOM     25  C   UNL     1      -1.632  11.368  23.318  0.00  0.00    +0.000 C 
ATOM     26  C   UNL     1      -1.477  12.873  23.240  0.00  0.00    +0.000 C 
ATOM     27  C   UNL     1      -2.568  12.206  22.474  0.00  0.00    +0.000 C 
ENDBRANCH  23  25
ENDBRANCH   6  20
BRANCH   1  28
ATOM     28  N   UNL     1      -0.089  10.906  18.787  0.00  0.00    +0.000 N 
ATOM     29  H   UNL     1      -0.134  11.292  19.725  0.00  0.00    +0.000 HD
ATOM     30  H   UNL     1      -0.996  10.628  18.419  0.00  0.00    +0.000 HD
ENDBRANCH   1  28
TORSDOF 6
ENDMDL
MODEL 7
REMARK VINA RESULT:      -8.0      3.190      9.225
REMARK  Name = 
REMARK  6 active torsions:
REMARK  status: ('A' for Active; 'I' for Inactive)
REMARK    1  A    between atoms: N_1  and  C_2
REMARK    2  A    between atoms: C_5  and  C_6
REMARK    3  A    between atoms: C_10  and  C_11
REMARK    4  A    between atoms: C_11  and  N_12
REMARK    5  A    between atoms: C_20  and  C_21
REMARK    6  A    between atoms: C_24  and  C_25
REMARK                            x       y       z     vdW  Elec       q    Type
REMARK                         _______ _______ _______ _____ _____    ______ ____
ROOT
ATOM      1  C   UNL     1       3.068   5.156  19.561  0.00  0.00    +0.000 A 
ATOM      2  N   UNL     1       2.261   5.220  20.640  0.00  0.00    +0.000 NA
ATOM      3  C   UNL     1       1.617   6.389  20.889  0.00  0.00    +0.000 A 
ATOM      4  C   UNL     1       1.730   7.538  20.114  0.00  0.00    +0.000 A 
ATOM      5  C   UNL     1       2.573   7.423  18.995  0.00  0.00    +0.000 A 
ATOM      6  C   UNL     1       3.250   6.234  18.691  0.00  0.00    +0.000 A 
ENDROOT
BRANCH   4   7
ATOM      7  C   UNL     1       1.012   8.802  20.395  0.00  0.00    +0.000 A 
ATOM      8  C   UNL     1       0.995   9.400  21.664  0.00  0.00    +0.000 A 
ATOM      9  C   UNL     1       0.206  10.530  21.914  0.00  0.00    +0.000 A 
ATOM     10  C   UNL     1      -0.596  11.071  20.902  0.00  0.00    +0.000 A 
ATOM     11  C   UNL     1      -0.590  10.516  19.623  0.00  0.00    +0.000 A 
ATOM     12  C   UNL     1       0.248   9.418  19.381  0.00  0.00    +0.000 A 
BRANCH  11  13
ATOM     13  C   UNL     1      -1.426  11.095  18.503  0.00  0.00    +0.000 C 
BRANCH  13  14
ATOM     14  N   UNL     1      -2.475  10.268  17.901  0.00  0.00    +0.000 NA
ATOM     15  C   UNL     1      -2.240   9.801  16.531  0.00  0.00    +0.000 C 
ATOM     16  C   UNL     1      -2.798  10.728  15.441  0.00  0.00    +0.000 C 
ATOM     17  O   UNL     1      -4.190  11.001  15.646  0.00  0.00    +0.000 OA
ATOM     18  C   UNL     1      -4.415  11.582  16.934  0.00  0.00    +0.000 C 
ATOM     19  C   UNL     1      -3.866  10.701  18.068  0.00  0.00    +0.000 C 
ENDBRANCH  13  14
ENDBRANCH  11  13
ENDBRANCH   4   7
BRANCH   6  20
ATOM     20  C   UNL     1       4.124   6.145  17.530  0.00  0.00    +0.000 A 
ATOM     21  N   UNL     1       4.692   7.106  16.831  0.00  0.00    +0.000 NA
ATOM     22  N   UNL     1       5.466   6.494  15.873  0.00  0.00    +0.000 NA
ATOM     23  C   UNL     1       5.314   5.195  16.035  0.00  0.00    +0.000 A 
ATOM     24  O   UNL     1       4.444   4.893  17.056  0.00  0.00    +0.000 OA
BRANCH  23  25
ATOM     25  C   UNL     1       6.054   4.188  15.170  0.00  0.00    +0.000 C 
ATOM     26  C   UNL     1       5.605   3.960  13.741  0.00  0.00    +0.000 C 
ATOM     27  C   UNL     1       6.886   4.677  14.003  0.00  0.00    +0.000 C 
ENDBRANCH  23  25
ENDBRANCH   6  20
BRANCH   1  28
ATOM     28  N   UNL     1       3.622   3.900  19.323  0.00  0.00    +0.000 N 
ATOM     29  H   UNL     1       2.872   3.239  19.146  0.00  0.00    +0.000 HD
ATOM     30  H   UNL     1       4.261   3.603  20.056  0.00  0.00    +0.000 HD
ENDBRANCH   1  28
TORSDOF 6
ENDMDL
MODEL 8
REMARK VINA RESULT:      -8.0      2.248      9.611
REMARK  Name = 
REMARK  6 active torsions:
REMARK  status: ('A' for Active; 'I' for Inactive)
REMARK    1  A    between atoms: N_1  and  C_2
REMARK    2  A    between atoms: C_5  and  C_6
REMARK    3  A    between atoms: C_10  and  C_11
REMARK    4  A    between atoms: C_11  and  N_12
REMARK    5  A    between atoms: C_20  and  C_21
REMARK    6  A    between atoms: C_24  and  C_25
REMARK                            x       y       z     vdW  Elec       q    Type
REMARK                         _______ _______ _______ _____ _____    ______ ____
ROOT
ATOM      1  C   UNL     1       4.559   4.629  18.668  0.00  0.00    +0.000 A 
ATOM      2  N   UNL     1       3.742   4.820  19.724  0.00  0.00    +0.000 NA
ATOM      3  C   UNL     1       2.969   5.937  19.742  0.00  0.00    +0.000 A 
ATOM      4  C   UNL     1       2.960   6.911  18.749  0.00  0.00    +0.000 A 
ATOM      5  C   UNL     1       3.819   6.667  17.664  0.00  0.00    +0.000 A 
ATOM      6  C   UNL     1       4.627   5.523  17.596  0.00  0.00    +0.000 A 
ENDROOT
BRANCH   4   7
ATOM      7  C   UNL     1       2.103   8.118  18.780  0.00  0.00    +0.000 A 
ATOM      8  C   UNL     1       1.793   8.859  17.630  0.00  0.00    +0.000 A 
ATOM      9  C   UNL     1       1.079  10.060  17.721  0.00  0.00    +0.000 A 
ATOM     10  C   UNL     1       0.677  10.552  18.969  0.00  0.00    +0.000 A 
ATOM     11  C   UNL     1       0.950   9.834  20.133  0.00  0.00    +0.000 A 
ATOM     12  C   UNL     1       1.619   8.607  20.013  0.00  0.00    +0.000 A 
BRANCH  11  13
ATOM     13  C   UNL     1       0.506  10.327  21.492  0.00  0.00    +0.000 C 
BRANCH  13  14
ATOM     14  N   UNL     1      -0.877  10.777  21.665  0.00  0.00    +0.000 NA
ATOM     15  C   UNL     1      -1.434  11.619  20.601  0.00  0.00    +0.000 C 
ATOM     16  C   UNL     1      -1.258  13.128  20.829  0.00  0.00    +0.000 C 
ATOM     17  O   UNL     1      -1.770  13.529  22.106  0.00  0.00    +0.000 OA
ATOM     18  C   UNL     1      -1.135  12.805  23.164  0.00  0.00    +0.000 C 
ATOM     19  C   UNL     1      -1.270  11.284  22.984  0.00  0.00    +0.000 C 
ENDBRANCH  13  14
ENDBRANCH  11  13
ENDBRANCH   4   7
BRANCH   6  20
ATOM     20  C   UNL     1       5.514   5.298  16.464  0.00  0.00    +0.000 A 
ATOM     21  N   UNL     1       6.660   5.875  16.168  0.00  0.00    +0.000 NA
ATOM     22  N   UNL     1       7.127   5.266  15.027  0.00  0.00    +0.000 NA
ATOM     23  C   UNL     1       6.230   4.362  14.686  0.00  0.00    +0.000 A 
ATOM     24  O   UNL     1       5.153   4.345  15.539  0.00  0.00    +0.000 OA
BRANCH  23  25
ATOM     25  C   UNL     1       6.426   3.456  13.480  0.00  0.00    +0.000 C 
ATOM     26  C   UNL     1       5.469   3.556  12.310  0.00  0.00    +0.000 C 
ATOM     27  C   UNL     1       6.866   4.055  12.161  0.00  0.00    +0.000 C 
ENDBRANCH  23  25
ENDBRANCH   6  20
BRANCH   1  28
ATOM     28  N   UNL     1       5.250   3.421  18.679  0.00  0.00    +0.000 N 
ATOM     29  H   UNL     1       5.273   3.046  17.736  0.00  0.00    +0.000 HD
ATOM     30  H   UNL     1       4.891   2.764  19.369  0.00  0.00    +0.000 HD
ENDBRANCH   1  28
TORSDOF 6
ENDMDL
MODEL 9
REMARK VINA RESULT:      -7.9      3.073      4.776
REMARK  Name = 
REMARK  6 active torsions:
REMARK  status: ('A' for Active; 'I' for Inactive)
REMARK    1  A    between atoms: N_1  and  C_2
REMARK    2  A    between atoms: C_5  and  C_6
REMARK    3  A    between atoms: C_10  and  C_11
REMARK    4  A    between atoms: C_11  and  N_12
REMARK    5  A    between atoms: C_20  and  C_21
REMARK    6  A    between atoms: C_24  and  C_25
REMARK                            x       y       z     vdW  Elec       q    Type
REMARK                         _______ _______ _______ _____ _____    ______ ____
ROOT
ATOM      1  C   UNL     1       0.170   9.508  20.879  0.00  0.00    +0.000 A 
ATOM      2  N   UNL     1       0.913   8.654  21.611  0.00  0.00    +0.000 NA
ATOM      3  C   UNL     1       1.798   7.855  20.960  0.00  0.00    +0.000 A 
ATOM      4  C   UNL     1       1.995   7.847  19.584  0.00  0.00    +0.000 A 
ATOM      5  C   UNL     1       1.207   8.760  18.862  0.00  0.00    +0.000 A 
ATOM      6  C   UNL     1       0.288   9.611  19.490  0.00  0.00    +0.000 A 
ENDROOT
BRANCH   4   7
ATOM      7  C   UNL     1       2.973   6.977  18.892  0.00  0.00    +0.000 A 
ATOM      8  C   UNL     1       3.476   7.266  17.614  0.00  0.00    +0.000 A 
ATOM      9  C   UNL     1       4.306   6.356  16.947  0.00  0.00    +0.000 A 
ATOM     10  C   UNL     1       4.634   5.131  17.540  0.00  0.00    +0.000 A 
ATOM     11  C   UNL     1       4.170   4.817  18.817  0.00  0.00    +0.000 A 
ATOM     12  C   UNL     1       3.384   5.766  19.488  0.00  0.00    +0.000 A 
BRANCH  11  13
ATOM     13  C   UNL     1       4.529   3.513  19.493  0.00  0.00    +0.000 C 
BRANCH  13  14
ATOM     14  N   UNL     1       3.499   2.481  19.633  0.00  0.00    +0.000 NA
ATOM     15  C   UNL     1       2.656   2.227  18.460  0.00  0.00    +0.000 C 
ATOM     16  C   UNL     1       1.362   3.054  18.419  0.00  0.00    +0.000 C 
ATOM     17  O   UNL     1       0.602   2.900  19.625  0.00  0.00    +0.000 OA
ATOM     18  C   UNL     1       1.376   3.273  20.769  0.00  0.00    +0.000 C 
ATOM     19  C   UNL     1       2.692   2.484  20.858  0.00  0.00    +0.000 C 
ENDBRANCH  13  14
ENDBRANCH  11  13
ENDBRANCH   4   7
BRANCH   6  20
ATOM     20  C   UNL     1      -0.522  10.542  18.718  0.00  0.00    +0.000 A 
ATOM     21  N   UNL     1      -0.662  11.845  18.854  0.00  0.00    +0.000 NA
ATOM     22  N   UNL     1      -1.492  12.261  17.839  0.00  0.00    +0.000 NA
ATOM     23  C   UNL     1      -1.821  11.184  17.152  0.00  0.00    +0.000 A 
ATOM     24  O   UNL     1      -1.265  10.041  17.674  0.00  0.00    +0.000 OA
BRANCH  23  25
ATOM     25  C   UNL     1      -2.708  11.261  15.921  0.00  0.00    +0.000 C 
ATOM     26  C   UNL     1      -3.006  10.000  15.136  0.00  0.00    +0.000 C 
ATOM     27  C   UNL     1      -4.084  10.629  15.952  0.00  0.00    +0.000 C 
ENDBRANCH  23  25
ENDBRANCH   6  20
BRANCH   1  28
ATOM     28  N   UNL     1      -0.648  10.353  21.625  0.00  0.00    +0.000 N 
ATOM     29  H   UNL     1      -1.032   9.832  22.407  0.00  0.00    +0.000 HD
ATOM     30  H   UNL     1      -1.355  10.821  21.062  0.00  0.00    +0.000 HD
ENDBRANCH   1  28
TORSDOF 6
ENDMDL
