MODEL 1
REMARK VINA RESULT:      -7.7      0.000      0.000
REMARK  Name = 
REMARK  12 active torsions:
REMARK  status: ('A' for Active; 'I' for Inactive)
REMARK    1  A    between atoms: C_1  and  C_2
REMARK    2  A    between atoms: C_2  and  C_3
REMARK    3  A    between atoms: C_3  and  O_4
REMARK    4  A    between atoms: O_4  and  C_5
REMARK    5  A    between atoms: C_7  and  N_8
REMARK    6  A    between atoms: C_11  and  O_12
REMARK    7  A    between atoms: O_12  and  C_13
REMARK    8  A    between atoms: C_16  and  C_17
REMARK    9  A    between atoms: C_17  and  C_18
REMARK   10  A    between atoms: C_17  and  N_19
REMARK   11  A    between atoms: C_20  and  C_21
REMARK   12  A    between atoms: C_26  and  C_27
REMARK                            x       y       z     vdW  Elec       q    Type
REMARK                         _______ _______ _______ _____ _____    ______ ____
ROOT
ATOM      1  N   UNL     1       4.318   5.380  18.598  0.00  0.00    +0.000 N 
ATOM      2  C   UNL     1       3.381   4.488  19.257  0.00  0.00    +0.000 C 
ATOM      3  C   UNL     1       2.030   5.014  18.798  0.00  0.00    +0.000 C 
ATOM      4  C   UNL     1       2.219   6.530  18.862  0.00  0.00    +0.000 C 
ATOM      5  C   UNL     1       3.685   6.699  18.375  0.00  0.00    +0.000 C 
ENDROOT
BRANCH   1   8
ATOM      6  C   UNL     1       6.139   4.104  15.692  0.00  0.00    +0.000 A 
ATOM      7  C   UNL     1       5.109   4.459  16.543  0.00  0.00    +0.000 A 
ATOM      8  C   UNL     1       5.389   4.999  17.815  0.00  0.00    +0.000 A 
ATOM      9  C   UNL     1       6.749   5.108  18.165  0.00  0.00    +0.000 A 
ATOM     10  C   UNL     1       7.307   5.522  19.494  0.00  0.00    +0.000 C 
ATOM     11  C   UNL     1       7.707   4.769  17.204  0.00  0.00    +0.000 A 
ATOM     12  N   UNL     1       7.439   4.268  15.988  0.00  0.00    +0.000 NA
BRANCH   6  13
ATOM     13  O   UNL     1       5.797   3.581  14.459  0.00  0.00    +0.000 OA
BRANCH  13  14
ATOM     14  C   UNL     1       6.646   4.089  13.424  0.00  0.00    +0.000 C 
BRANCH  14  16
ATOM     15  C   UNL     1       4.864   3.298  11.849  0.00  0.00    +0.000 C 
ATOM     16  C   UNL     1       6.357   3.342  12.127  0.00  0.00    +0.000 C 
ENDBRANCH  14  16
ENDBRANCH  13  14
ENDBRANCH   6  13
ENDBRANCH   1   8
BRANCH   4  17
ATOM     17  O   UNL     1       2.104   7.028  20.203  0.00  0.00    +0.000 OA
BRANCH  17  18
ATOM     18  C   UNL     1       1.533   8.263  20.357  0.00  0.00    +0.000 A 
ATOM     19  C   UNL     1       1.243   9.151  19.322  0.00  0.00    +0.000 A 
ATOM     20  C   UNL     1       0.573  10.350  19.582  0.00  0.00    +0.000 A 
ATOM     21  C   UNL     1       0.204  10.696  20.886  0.00  0.00    +0.000 A 
ATOM     22  C   UNL     1       0.534   9.817  21.929  0.00  0.00    +0.000 A 
ATOM     23  C   UNL     1       1.173   8.602  21.661  0.00  0.00    +0.000 A 
BRANCH  21  24
ATOM     24  C   UNL     1      -0.564  11.983  21.125  0.00  0.00    +0.000 C 
ATOM     25  C   UNL     1       0.372  13.186  21.230  0.00  0.00    +0.000 C 
BRANCH  24  26
ATOM     26  N   UNL     1      -1.402  11.850  22.304  0.00  0.00    +0.000 N 
ATOM     27  C   UNL     1      -2.626  12.462  22.411  0.00  0.00    +0.000 C 
ATOM     28  C   UNL     1      -3.330  12.203  23.715  0.00  0.00    +0.000 C 
ATOM     29  O   UNL     1      -3.117  13.160  21.532  0.00  0.00    +0.000 OA
ATOM     30  H   UNL     1      -1.060  11.287  23.072  0.00  0.00    +0.000 HD
ENDBRANCH  24  26
ENDBRANCH  21  24
ENDBRANCH  17  18
ENDBRANCH   4  17
TORSDOF 8
ENDMDL
MODEL 2
REMARK VINA RESULT:      -7.6      1.494      1.876
REMARK  Name = 
REMARK  12 active torsions:
REMARK  status: ('A' for Active; 'I' for Inactive)
REMARK    1  A    between atoms: C_1  and  C_2
REMARK    2  A    between atoms: C_2  and  C_3
REMARK    3  A    between atoms: C_3  and  O_4
REMARK    4  A    between atoms: O_4  and  C_5
REMARK    5  A    between atoms: C_7  and  N_8
REMARK    6  A    between atoms: C_11  and  O_12
REMARK    7  A    between atoms: O_12  and  C_13
REMARK    8  A    between atoms: C_16  and  C_17
REMARK    9  A    between atoms: C_17  and  C_18
REMARK   10  A    between atoms: C_17  and  N_19
REMARK   11  A    between atoms: C_20  and  C_21
REMARK   12  A    between atoms: C_26  and  C_27
REMARK                            x       y       z     vdW  Elec       q    Type
REMARK                         _______ _______ _______ _____ _____    ______ ____
ROOT
ATOM      1  N   UNL     1       4.476   5.467  18.740  0.00  0.00    +0.000 N 
ATOM      2  C   UNL     1       3.666   4.650  19.625  0.00  0.00    +0.000 C 
ATOM      3  C   UNL     1       2.247   4.963  19.176  0.00  0.00    +0.000 C 
ATOM      4  C   UNL     1       2.295   6.473  18.933  0.00  0.00    +0.000 C 
ATOM      5  C   UNL     1       3.709   6.660  18.316  0.00  0.00    +0.000 C 
ENDROOT
BRANCH   1   8
ATOM      6  C   UNL     1       6.240   3.967  15.907  0.00  0.00    +0.000 A 
ATOM      7  C   UNL     1       5.227   4.386  16.749  0.00  0.00    +0.000 A 
ATOM      8  C   UNL     1       5.531   5.028  17.967  0.00  0.00    +0.000 A 
ATOM      9  C   UNL     1       6.897   5.168  18.277  0.00  0.00    +0.000 A 
ATOM     10  C   UNL     1       7.482   5.690  19.556  0.00  0.00    +0.000 C 
ATOM     11  C   UNL     1       7.837   4.756  17.326  0.00  0.00    +0.000 A 
ATOM     12  N   UNL     1       7.545   4.158  16.161  0.00  0.00    +0.000 NA
BRANCH   6  13
ATOM     13  O   UNL     1       5.875   3.345  14.727  0.00  0.00    +0.000 OA
BRANCH  13  14
ATOM     14  C   UNL     1       6.161   4.170  13.593  0.00  0.00    +0.000 C 
BRANCH  14  16
ATOM     15  C   UNL     1       4.699   3.382  11.716  0.00  0.00    +0.000 C 
ATOM     16  C   UNL     1       6.089   3.324  12.327  0.00  0.00    +0.000 C 
ENDBRANCH  14  16
ENDBRANCH  13  14
ENDBRANCH   6  13
ENDBRANCH   1   8
BRANCH   4  17
ATOM     17  O   UNL     1       2.211   7.214  20.159  0.00  0.00    +0.000 OA
BRANCH  17  18
ATOM     18  C   UNL     1       1.429   8.339  20.147  0.00  0.00    +0.000 A 
ATOM     19  C   UNL     1       0.638   8.782  21.205  0.00  0.00    +0.000 A 
ATOM     20  C   UNL     1      -0.049   9.996  21.120  0.00  0.00    +0.000 A 
ATOM     21  C   UNL     1       0.019  10.777  19.962  0.00  0.00    +0.000 A 
ATOM     22  C   UNL     1       0.784  10.307  18.883  0.00  0.00    +0.000 A 
ATOM     23  C   UNL     1       1.499   9.109  18.986  0.00  0.00    +0.000 A 
BRANCH  21  24
ATOM     24  C   UNL     1      -0.702  12.111  19.921  0.00  0.00    +0.000 C 
ATOM     25  C   UNL     1      -0.455  12.924  21.192  0.00  0.00    +0.000 C 
BRANCH  24  26
ATOM     26  N   UNL     1      -2.121  11.902  19.685  0.00  0.00    +0.000 N 
ATOM     27  C   UNL     1      -2.645  11.764  18.424  0.00  0.00    +0.000 C 
ATOM     28  C   UNL     1      -4.136  11.563  18.398  0.00  0.00    +0.000 C 
ATOM     29  O   UNL     1      -1.973  11.797  17.400  0.00  0.00    +0.000 OA
ATOM     30  H   UNL     1      -2.737  11.865  20.486  0.00  0.00    +0.000 HD
ENDBRANCH  24  26
ENDBRANCH  21  24
ENDBRANCH  17  18
ENDBRANCH   4  17
TORSDOF 8
ENDMDL
MODEL 3
REMARK VINA RESULT:      -7.4      1.632      2.084
REMARK  Name = 
REMARK  12 active torsions:
REMARK  status: ('A' for Active; 'I' for Inactive)
REMARK    1  A    between atoms: C_1  and  C_2
REMARK    2  A    between atoms: C_2  and  C_3
REMARK    3  A    between atoms: C_3  and  O_4
REMARK    4  A    between atoms: O_4  and  C_5
REMARK    5  A    between atoms: C_7  and  N_8
REMARK    6  A    between atoms: C_11  and  O_12
REMARK    7  A    between atoms: O_12  and  C_13
REMARK    8  A    between atoms: C_16  and  C_17
REMARK    9  A    between atoms: C_17  and  C_18
REMARK   10  A    between atoms: C_17  and  N_19
REMARK   11  A    between atoms: C_20  and  C_21
REMARK   12  A    between atoms: C_26  and  C_27
REMARK                            x       y       z     vdW  Elec       q    Type
REMARK                         _______ _______ _______ _____ _____    ______ ____
ROOT
ATOM      1  N   UNL     1       4.349   6.107  18.136  0.00  0.00    +0.000 N 
ATOM      2  C   UNL     1       3.327   5.344  18.830  0.00  0.00    +0.000 C 
ATOM      3  C   UNL     1       2.041   5.827  18.179  0.00  0.00    +0.000 C 
ATOM      4  C   UNL     1       2.277   7.332  18.038  0.00  0.00    +0.000 C 
ATOM      5  C   UNL     1       3.785   7.393  17.667  0.00  0.00    +0.000 C 
ENDROOT
BRANCH   1   8
ATOM      6  C   UNL     1       6.549   5.002  15.428  0.00  0.00    +0.000 A 
ATOM      7  C   UNL     1       5.441   5.467  16.112  0.00  0.00    +0.000 A 
ATOM      8  C   UNL     1       5.469   5.590  17.517  0.00  0.00    +0.000 A 
ATOM      9  C   UNL     1       6.653   5.180  18.159  0.00  0.00    +0.000 A 
ATOM     10  C   UNL     1       6.891   5.086  19.637  0.00  0.00    +0.000 C 
ATOM     11  C   UNL     1       7.731   4.777  17.362  0.00  0.00    +0.000 A 
ATOM     12  N   UNL     1       7.707   4.674  16.025  0.00  0.00    +0.000 NA
BRANCH   6  13
ATOM     13  O   UNL     1       6.457   4.905  14.053  0.00  0.00    +0.000 OA
BRANCH  13  14
ATOM     14  C   UNL     1       5.744   3.728  13.660  0.00  0.00    +0.000 C 
BRANCH  14  16
ATOM     15  C   UNL     1       4.940   2.750  11.497  0.00  0.00    +0.000 C 
ATOM     16  C   UNL     1       6.120   3.368  12.228  0.00  0.00    +0.000 C 
ENDBRANCH  14  16
ENDBRANCH  13  14
ENDBRANCH   6  13
ENDBRANCH   1   8
BRANCH   4  17
ATOM     17  O   UNL     1       2.065   8.025  19.277  0.00  0.00    +0.000 OA
BRANCH  17  18
ATOM     18  C   UNL     1       1.167   9.059  19.260  0.00  0.00    +0.000 A 
ATOM     19  C   UNL     1       0.652   9.660  18.114  0.00  0.00    +0.000 A 
ATOM     20  C   UNL     1      -0.332  10.648  18.210  0.00  0.00    +0.000 A 
ATOM     21  C   UNL     1      -0.800  11.073  19.458  0.00  0.00    +0.000 A 
ATOM     22  C   UNL     1      -0.249  10.493  20.611  0.00  0.00    +0.000 A 
ATOM     23  C   UNL     1       0.710   9.479  20.510  0.00  0.00    +0.000 A 
BRANCH  21  24
ATOM     24  C   UNL     1      -1.902  12.113  19.524  0.00  0.00    +0.000 C 
ATOM     25  C   UNL     1      -3.128  11.687  18.716  0.00  0.00    +0.000 C 
BRANCH  24  26
ATOM     26  N   UNL     1      -1.394  13.403  19.089  0.00  0.00    +0.000 N 
ATOM     27  C   UNL     1      -0.861  14.318  19.963  0.00  0.00    +0.000 C 
ATOM     28  C   UNL     1      -0.400  15.593  19.311  0.00  0.00    +0.000 C 
ATOM     29  O   UNL     1      -0.761  14.128  21.169  0.00  0.00    +0.000 OA
ATOM     30  H   UNL     1      -1.445  13.629  18.104  0.00  0.00    +0.000 HD
ENDBRANCH  24  26
ENDBRANCH  21  24
ENDBRANCH  17  18
ENDBRANCH   4  17
TORSDOF 8
ENDMDL
MODEL 4
REMARK VINA RESULT:      -7.4      2.672     10.612
REMARK  Name = 
REMARK  12 active torsions:
REMARK  status: ('A' for Active; 'I' for Inactive)
REMARK    1  A    between atoms: C_1  and  C_2
REMARK    2  A    between atoms: C_2  and  C_3
REMARK    3  A    between atoms: C_3  and  O_4
REMARK    4  A    between atoms: O_4  and  C_5
REMARK    5  A    between atoms: C_7  and  N_8
REMARK    6  A    between atoms: C_11  and  O_12
REMARK    7  A    between atoms: O_12  and  C_13
REMARK    8  A    between atoms: C_16  and  C_17
REMARK    9  A    between atoms: C_17  and  C_18
REMARK   10  A    between atoms: C_17  and  N_19
REMARK   11  A    between atoms: C_20  and  C_21
REMARK   12  A    between atoms: C_26  and  C_27
REMARK                            x       y       z     vdW  Elec       q    Type
REMARK                         _______ _______ _______ _____ _____    ______ ____
ROOT
ATOM      1  N   UNL     1       5.484   5.498  18.223  0.00  0.00    +0.000 N 
ATOM      2  C   UNL     1       6.817   5.675  18.771  0.00  0.00    +0.000 C 
ATOM      3  C   UNL     1       7.360   6.850  17.974  0.00  0.00    +0.000 C 
ATOM      4  C   UNL     1       6.866   6.556  16.557  0.00  0.00    +0.000 C 
ATOM      5  C   UNL     1       5.452   5.967  16.819  0.00  0.00    +0.000 C 
ENDROOT
BRANCH   1   8
ATOM      6  C   UNL     1       2.372   6.624  19.785  0.00  0.00    +0.000 A 
ATOM      7  C   UNL     1       3.581   6.630  19.113  0.00  0.00    +0.000 A 
ATOM      8  C   UNL     1       4.310   5.435  18.946  0.00  0.00    +0.000 A 
ATOM      9  C   UNL     1       3.760   4.278  19.530  0.00  0.00    +0.000 A 
ATOM     10  C   UNL     1       4.394   2.921  19.610  0.00  0.00    +0.000 C 
ATOM     11  C   UNL     1       2.505   4.378  20.140  0.00  0.00    +0.000 A 
ATOM     12  N   UNL     1       1.806   5.514  20.285  0.00  0.00    +0.000 NA
BRANCH   6  13
ATOM     13  O   UNL     1       1.707   7.829  19.914  0.00  0.00    +0.000 OA
BRANCH  13  14
ATOM     14  C   UNL     1       1.438   8.130  21.288  0.00  0.00    +0.000 C 
BRANCH  14  16
ATOM     15  C   UNL     1       0.065  10.156  21.829  0.00  0.00    +0.000 C 
ATOM     16  C   UNL     1       0.028   8.696  21.409  0.00  0.00    +0.000 C 
ENDBRANCH  14  16
ENDBRANCH  13  14
ENDBRANCH   6  13
ENDBRANCH   1   8
BRANCH   4  17
ATOM     17  O   UNL     1       7.676   5.569  15.902  0.00  0.00    +0.000 OA
BRANCH  17  18
ATOM     18  C   UNL     1       7.095   4.877  14.872  0.00  0.00    +0.000 A 
ATOM     19  C   UNL     1       6.005   4.018  14.993  0.00  0.00    +0.000 A 
ATOM     20  C   UNL     1       5.431   3.435  13.860  0.00  0.00    +0.000 A 
ATOM     21  C   UNL     1       5.955   3.678  12.586  0.00  0.00    +0.000 A 
ATOM     22  C   UNL     1       7.078   4.512  12.474  0.00  0.00    +0.000 A 
ATOM     23  C   UNL     1       7.627   5.123  13.607  0.00  0.00    +0.000 A 
BRANCH  21  24
ATOM     24  C   UNL     1       5.278   3.065  11.374  0.00  0.00    +0.000 C 
ATOM     25  C   UNL     1       3.856   3.596  11.195  0.00  0.00    +0.000 C 
BRANCH  24  26
ATOM     26  N   UNL     1       5.302   1.616  11.471  0.00  0.00    +0.000 N 
ATOM     27  C   UNL     1       6.428   0.878  11.200  0.00  0.00    +0.000 C 
ATOM     28  C   UNL     1       6.240  -0.607  11.353  0.00  0.00    +0.000 C 
ATOM     29  O   UNL     1       7.498   1.369  10.862  0.00  0.00    +0.000 OA
ATOM     30  H   UNL     1       4.452   1.141  11.745  0.00  0.00    +0.000 HD
ENDBRANCH  24  26
ENDBRANCH  21  24
ENDBRANCH  17  18
ENDBRANCH   4  17
TORSDOF 8
ENDMDL
MODEL 5
REMARK VINA RESULT:      -7.3      2.123      3.218
REMARK  Name = 
REMARK  12 active torsions:
REMARK  status: ('A' for Active; 'I' for Inactive)
REMARK    1  A    between atoms: C_1  and  C_2
REMARK    2  A    between atoms: C_2  and  C_3
REMARK    3  A    between atoms: C_3  and  O_4
REMARK    4  A    between atoms: O_4  and  C_5
REMARK    5  A    between atoms: C_7  and  N_8
REMARK    6  A    between atoms: C_11  and  O_12
REMARK    7  A    between atoms: O_12  and  C_13
REMARK    8  A    between atoms: C_16  and  C_17
REMARK    9  A    between atoms: C_17  and  C_18
REMARK   10  A    between atoms: C_17  and  N_19
REMARK   11  A    between atoms: C_20  and  C_21
REMARK   12  A    between atoms: C_26  and  C_27
REMARK                            x       y       z     vdW  Elec       q    Type
REMARK                         _______ _______ _______ _____ _____    ______ ____
ROOT
ATOM      1  N   UNL     1       3.273   5.808  19.722  0.00  0.00    +0.000 N 
ATOM      2  C   UNL     1       2.563   5.077  20.756  0.00  0.00    +0.000 C 
ATOM      3  C   UNL     1       1.127   5.546  20.579  0.00  0.00    +0.000 C 
ATOM      4  C   UNL     1       1.290   7.043  20.310  0.00  0.00    +0.000 C 
ATOM      5  C   UNL     1       2.573   7.080  19.434  0.00  0.00    +0.000 C 
ENDROOT
BRANCH   1   8
ATOM      6  C   UNL     1       6.383   4.979  17.980  0.00  0.00    +0.000 A 
ATOM      7  C   UNL     1       5.488   5.537  18.874  0.00  0.00    +0.000 A 
ATOM      8  C   UNL     1       4.109   5.261  18.769  0.00  0.00    +0.000 A 
ATOM      9  C   UNL     1       3.714   4.439  17.697  0.00  0.00    +0.000 A 
ATOM     10  C   UNL     1       2.311   4.104  17.288  0.00  0.00    +0.000 C 
ATOM     11  C   UNL     1       4.712   3.886  16.886  0.00  0.00    +0.000 A 
ATOM     12  N   UNL     1       6.025   4.138  16.996  0.00  0.00    +0.000 NA
BRANCH   6  13
ATOM     13  O   UNL     1       7.721   5.289  18.138  0.00  0.00    +0.000 OA
BRANCH  13  14
ATOM     14  C   UNL     1       7.894   6.632  18.602  0.00  0.00    +0.000 C 
BRANCH  14  16
ATOM     15  C   UNL     1       7.860   9.021  17.843  0.00  0.00    +0.000 C 
ATOM     16  C   UNL     1       7.968   7.570  17.402  0.00  0.00    +0.000 C 
ENDBRANCH  14  16
ENDBRANCH  13  14
ENDBRANCH   6  13
ENDBRANCH   1   8
BRANCH   4  17
ATOM     17  O   UNL     1       1.521   7.781  21.519  0.00  0.00    +0.000 OA
BRANCH  17  18
ATOM     18  C   UNL     1       0.862   8.975  21.649  0.00  0.00    +0.000 A 
ATOM     19  C   UNL     1       0.718   9.929  20.644  0.00  0.00    +0.000 A 
ATOM     20  C   UNL     1      -0.056  11.072  20.855  0.00  0.00    +0.000 A 
ATOM     21  C   UNL     1      -0.678  11.298  22.088  0.00  0.00    +0.000 A 
ATOM     22  C   UNL     1      -0.497  10.354  23.111  0.00  0.00    +0.000 A 
ATOM     23  C   UNL     1       0.249   9.193  22.883  0.00  0.00    +0.000 A 
BRANCH  21  24
ATOM     24  C   UNL     1      -1.549  12.528  22.268  0.00  0.00    +0.000 C 
ATOM     25  C   UNL     1      -0.717  13.810  22.281  0.00  0.00    +0.000 C 
BRANCH  24  26
ATOM     26  N   UNL     1      -2.352  12.396  23.472  0.00  0.00    +0.000 N 
ATOM     27  C   UNL     1      -3.723  12.456  23.453  0.00  0.00    +0.000 C 
ATOM     28  C   UNL     1      -4.363  12.305  24.806  0.00  0.00    +0.000 C 
ATOM     29  O   UNL     1      -4.383  12.617  22.434  0.00  0.00    +0.000 OA
ATOM     30  H   UNL     1      -1.873  12.261  24.353  0.00  0.00    +0.000 HD
ENDBRANCH  24  26
ENDBRANCH  21  24
ENDBRANCH  17  18
ENDBRANCH   4  17
TORSDOF 8
ENDMDL
MODEL 6
REMARK VINA RESULT:      -7.3      3.050     10.395
REMARK  Name = 
REMARK  12 active torsions:
REMARK  status: ('A' for Active; 'I' for Inactive)
REMARK    1  A    between atoms: C_1  and  C_2
REMARK    2  A    between atoms: C_2  and  C_3
REMARK    3  A    between atoms: C_3  and  O_4
REMARK    4  A    between atoms: O_4  and  C_5
REMARK    5  A    between atoms: C_7  and  N_8
REMARK    6  A    between atoms: C_11  and  O_12
REMARK    7  A    between atoms: O_12  and  C_13
REMARK    8  A    between atoms: C_16  and  C_17
REMARK    9  A    between atoms: C_17  and  C_18
REMARK   10  A    between atoms: C_17  and  N_19
REMARK   11  A    between atoms: C_20  and  C_21
REMARK   12  A    between atoms: C_26  and  C_27
REMARK                            x       y       z     vdW  Elec       q    Type
REMARK                         _______ _______ _______ _____ _____    ______ ____
ROOT
ATOM      1  N   UNL     1       5.017   4.601  18.498  0.00  0.00    +0.000 N 
ATOM      2  C   UNL     1       6.294   4.572  19.191  0.00  0.00    +0.000 C 
ATOM      3  C   UNL     1       6.935   5.887  18.778  0.00  0.00    +0.000 C 
ATOM      4  C   UNL     1       6.576   5.989  17.295  0.00  0.00    +0.000 C 
ATOM      5  C   UNL     1       5.132   5.415  17.267  0.00  0.00    +0.000 C 
ENDROOT
BRANCH   1   8
ATOM      6  C   UNL     1       1.933   5.380  20.307  0.00  0.00    +0.000 A 
ATOM      7  C   UNL     1       3.194   5.496  19.753  0.00  0.00    +0.000 A 
ATOM      8  C   UNL     1       3.777   4.407  19.072  0.00  0.00    +0.000 A 
ATOM      9  C   UNL     1       3.026   3.217  19.033  0.00  0.00    +0.000 A 
ATOM     10  C   UNL     1       3.468   1.889  18.493  0.00  0.00    +0.000 C 
ATOM     11  C   UNL     1       1.738   3.230  19.580  0.00  0.00    +0.000 A 
ATOM     12  N   UNL     1       1.180   4.272  20.216  0.00  0.00    +0.000 NA
BRANCH   6  13
ATOM     13  O   UNL     1       1.418   6.484  20.960  0.00  0.00    +0.000 OA
BRANCH  13  14
ATOM     14  C   UNL     1       1.863   7.702  20.355  0.00  0.00    +0.000 C 
BRANCH  14  16
ATOM     15  C   UNL     1       0.811   9.868  19.660  0.00  0.00    +0.000 C 
ATOM     16  C   UNL     1       0.933   8.836  20.769  0.00  0.00    +0.000 C 
ENDBRANCH  14  16
ENDBRANCH  13  14
ENDBRANCH   6  13
ENDBRANCH   1   8
BRANCH   4  17
ATOM     17  O   UNL     1       7.427   5.167  16.482  0.00  0.00    +0.000 OA
BRANCH  17  18
ATOM     18  C   UNL     1       6.934   4.785  15.262  0.00  0.00    +0.000 A 
ATOM     19  C   UNL     1       7.410   5.223  14.028  0.00  0.00    +0.000 A 
ATOM     20  C   UNL     1       6.894   4.696  12.840  0.00  0.00    +0.000 A 
ATOM     21  C   UNL     1       5.873   3.741  12.864  0.00  0.00    +0.000 A 
ATOM     22  C   UNL     1       5.369   3.332  14.109  0.00  0.00    +0.000 A 
ATOM     23  C   UNL     1       5.913   3.836  15.297  0.00  0.00    +0.000 A 
BRANCH  21  24
ATOM     24  C   UNL     1       5.370   3.157  11.558  0.00  0.00    +0.000 C 
ATOM     25  C   UNL     1       3.985   3.694  11.197  0.00  0.00    +0.000 C 
BRANCH  24  26
ATOM     26  N   UNL     1       5.380   1.705  11.626  0.00  0.00    +0.000 N 
ATOM     27  C   UNL     1       6.430   0.953  11.160  0.00  0.00    +0.000 C 
ATOM     28  C   UNL     1       6.240  -0.531  11.318  0.00  0.00    +0.000 C 
ATOM     29  O   UNL     1       7.439   1.432  10.657  0.00  0.00    +0.000 OA
ATOM     30  H   UNL     1       4.577   1.240  12.030  0.00  0.00    +0.000 HD
ENDBRANCH  24  26
ENDBRANCH  21  24
ENDBRANCH  17  18
ENDBRANCH   4  17
TORSDOF 8
ENDMDL
MODEL 7
REMARK VINA RESULT:      -7.2      2.290      9.954
REMARK  Name = 
REMARK  12 active torsions:
REMARK  status: ('A' for Active; 'I' for Inactive)
REMARK    1  A    between atoms: C_1  and  C_2
REMARK    2  A    between atoms: C_2  and  C_3
REMARK    3  A    between atoms: C_3  and  O_4
REMARK    4  A    between atoms: O_4  and  C_5
REMARK    5  A    between atoms: C_7  and  N_8
REMARK    6  A    between atoms: C_11  and  O_12
REMARK    7  A    between atoms: O_12  and  C_13
REMARK    8  A    between atoms: C_16  and  C_17
REMARK    9  A    between atoms: C_17  and  C_18
REMARK   10  A    between atoms: C_17  and  N_19
REMARK   11  A    between atoms: C_20  and  C_21
REMARK   12  A    between atoms: C_26  and  C_27
REMARK                            x       y       z     vdW  Elec       q    Type
REMARK                         _______ _______ _______ _____ _____    ______ ____
ROOT
ATOM      1  N   UNL     1       1.856   8.257  19.419  0.00  0.00    +0.000 N 
ATOM      2  C   UNL     1       2.218   8.006  18.035  0.00  0.00    +0.000 C 
ATOM      3  C   UNL     1       2.029   6.503  17.901  0.00  0.00    +0.000 C 
ATOM      4  C   UNL     1       2.593   5.972  19.220  0.00  0.00    +0.000 C 
ATOM      5  C   UNL     1       2.123   7.052  20.235  0.00  0.00    +0.000 C 
ENDROOT
BRANCH   1   8
ATOM      6  C   UNL     1      -0.879  10.685  19.293  0.00  0.00    +0.000 A 
ATOM      7  C   UNL     1       0.092   9.780  18.905  0.00  0.00    +0.000 A 
ATOM      8  C   UNL     1       0.941   9.190  19.863  0.00  0.00    +0.000 A 
ATOM      9  C   UNL     1       0.765   9.605  21.197  0.00  0.00    +0.000 A 
ATOM     10  C   UNL     1       1.616   9.234  22.376  0.00  0.00    +0.000 C 
ATOM     11  C   UNL     1      -0.284  10.485  21.482  0.00  0.00    +0.000 A 
ATOM     12  N   UNL     1      -1.101  11.035  20.570  0.00  0.00    +0.000 NA
BRANCH   6  13
ATOM     13  O   UNL     1      -1.679  11.227  18.305  0.00  0.00    +0.000 OA
BRANCH  13  14
ATOM     14  C   UNL     1      -1.691  10.403  17.134  0.00  0.00    +0.000 C 
BRANCH  14  16
ATOM     15  C   UNL     1      -3.284  10.416  15.199  0.00  0.00    +0.000 C 
ATOM     16  C   UNL     1      -3.133  10.180  16.693  0.00  0.00    +0.000 C 
ENDBRANCH  14  16
ENDBRANCH  13  14
ENDBRANCH   6  13
ENDBRANCH   1   8
BRANCH   4  17
ATOM     17  O   UNL     1       4.027   5.925  19.207  0.00  0.00    +0.000 OA
BRANCH  17  18
ATOM     18  C   UNL     1       4.618   5.411  18.083  0.00  0.00    +0.000 A 
ATOM     19  C   UNL     1       4.362   4.153  17.542  0.00  0.00    +0.000 A 
ATOM     20  C   UNL     1       4.952   3.764  16.337  0.00  0.00    +0.000 A 
ATOM     21  C   UNL     1       5.833   4.617  15.663  0.00  0.00    +0.000 A 
ATOM     22  C   UNL     1       6.119   5.868  16.233  0.00  0.00    +0.000 A 
ATOM     23  C   UNL     1       5.498   6.267  17.421  0.00  0.00    +0.000 A 
BRANCH  21  24
ATOM     24  C   UNL     1       6.419   4.181  14.333  0.00  0.00    +0.000 C 
ATOM     25  C   UNL     1       7.447   5.187  13.815  0.00  0.00    +0.000 C 
BRANCH  24  26
ATOM     26  N   UNL     1       5.354   3.958  13.370  0.00  0.00    +0.000 N 
ATOM     27  C   UNL     1       5.546   3.247  12.212  0.00  0.00    +0.000 C 
ATOM     28  C   UNL     1       4.319   3.137  11.348  0.00  0.00    +0.000 C 
ATOM     29  O   UNL     1       6.616   2.740  11.894  0.00  0.00    +0.000 OA
ATOM     30  H   UNL     1       4.442   4.349  13.567  0.00  0.00    +0.000 HD
ENDBRANCH  24  26
ENDBRANCH  21  24
ENDBRANCH  17  18
ENDBRANCH   4  17
TORSDOF 8
ENDMDL
MODEL 8
REMARK VINA RESULT:      -7.2      2.615      3.696
REMARK  Name = 
REMARK  12 active torsions:
REMARK  status: ('A' for Active; 'I' for Inactive)
REMARK    1  A    between atoms: C_1  and  C_2
REMARK    2  A    between atoms: C_2  and  C_3
REMARK    3  A    between atoms: C_3  and  O_4
REMARK    4  A    between atoms: O_4  and  C_5
REMARK    5  A    between atoms: C_7  and  N_8
REMARK    6  A    between atoms: C_11  and  O_12
REMARK    7  A    between atoms: O_12  and  C_13
REMARK    8  A    between atoms: C_16  and  C_17
REMARK    9  A    between atoms: C_17  and  C_18
REMARK   10  A    between atoms: C_17  and  N_19
REMARK   11  A    between atoms: C_20  and  C_21
REMARK   12  A    between atoms: C_26  and  C_27
REMARK                            x       y       z     vdW  Elec       q    Type
REMARK                         _______ _______ _______ _____ _____    ______ ____
ROOT
ATOM      1  N   UNL     1       2.306   6.566  19.015  0.00  0.00    +0.000 N 
ATOM      2  C   UNL     1       1.925   7.393  17.884  0.00  0.00    +0.000 C 
ATOM      3  C   UNL     1       2.153   8.804  18.401  0.00  0.00    +0.000 C 
ATOM      4  C   UNL     1       1.630   8.727  19.837  0.00  0.00    +0.000 C 
ATOM      5  C   UNL     1       2.089   7.309  20.277  0.00  0.00    +0.000 C 
ENDROOT
BRANCH   1   8
ATOM      6  C   UNL     1       5.520   4.820  19.133  0.00  0.00    +0.000 A 
ATOM      7  C   UNL     1       4.574   5.828  19.103  0.00  0.00    +0.000 A 
ATOM      8  C   UNL     1       3.204   5.517  18.990  0.00  0.00    +0.000 A 
ATOM      9  C   UNL     1       2.878   4.153  18.870  0.00  0.00    +0.000 A 
ATOM     10  C   UNL     1       1.521   3.570  18.608  0.00  0.00    +0.000 C 
ATOM     11  C   UNL     1       3.912   3.216  18.968  0.00  0.00    +0.000 A 
ATOM     12  N   UNL     1       5.215   3.513  19.090  0.00  0.00    +0.000 NA
BRANCH   6  13
ATOM     13  O   UNL     1       6.847   5.191  19.245  0.00  0.00    +0.000 OA
BRANCH  13  14
ATOM     14  C   UNL     1       7.549   4.993  18.014  0.00  0.00    +0.000 C 
BRANCH  14  16
ATOM     15  C   UNL     1       7.661   7.489  17.814  0.00  0.00    +0.000 C 
ATOM     16  C   UNL     1       7.312   6.192  17.103  0.00  0.00    +0.000 C 
ENDBRANCH  14  16
ENDBRANCH  13  14
ENDBRANCH   6  13
ENDBRANCH   1   8
BRANCH   4  17
ATOM     17  O   UNL     1       0.197   8.799  19.888  0.00  0.00    +0.000 OA
BRANCH  17  18
ATOM     18  C   UNL     1      -0.344   9.843  20.590  0.00  0.00    +0.000 A 
ATOM     19  C   UNL     1      -0.373   9.952  21.979  0.00  0.00    +0.000 A 
ATOM     20  C   UNL     1      -0.867  11.107  22.591  0.00  0.00    +0.000 A 
ATOM     21  C   UNL     1      -1.367  12.165  21.825  0.00  0.00    +0.000 A 
ATOM     22  C   UNL     1      -1.372  12.035  20.428  0.00  0.00    +0.000 A 
ATOM     23  C   UNL     1      -0.844  10.892  19.818  0.00  0.00    +0.000 A 
BRANCH  21  24
ATOM     24  C   UNL     1      -1.851  13.423  22.522  0.00  0.00    +0.000 C 
ATOM     25  C   UNL     1      -0.688  14.337  22.908  0.00  0.00    +0.000 C 
BRANCH  24  26
ATOM     26  N   UNL     1      -2.663  13.071  23.675  0.00  0.00    +0.000 N 
ATOM     27  C   UNL     1      -3.972  12.675  23.560  0.00  0.00    +0.000 C 
ATOM     28  C   UNL     1      -4.636  12.363  24.874  0.00  0.00    +0.000 C 
ATOM     29  O   UNL     1      -4.563  12.577  22.491  0.00  0.00    +0.000 OA
ATOM     30  H   UNL     1      -2.240  13.129  24.592  0.00  0.00    +0.000 HD
ENDBRANCH  24  26
ENDBRANCH  21  24
ENDBRANCH  17  18
ENDBRANCH   4  17
TORSDOF 8
ENDMDL
MODEL 9
REMARK VINA RESULT:      -7.2      2.349      3.701
REMARK  Name = 
REMARK  12 active torsions:
REMARK  status: ('A' for Active; 'I' for Inactive)
REMARK    1  A    between atoms: C_1  and  C_2
REMARK    2  A    between atoms: C_2  and  C_3
REMARK    3  A    between atoms: C_3  and  O_4
REMARK    4  A    between atoms: O_4  and  C_5
REMARK    5  A    between atoms: C_7  and  N_8
REMARK    6  A    between atoms: C_11  and  O_12
REMARK    7  A    between atoms: O_12  and  C_13
REMARK    8  A    between atoms: C_16  and  C_17
REMARK    9  A    between atoms: C_17  and  C_18
REMARK   10  A    between atoms: C_17  and  N_19
REMARK   11  A    between atoms: C_20  and  C_21
REMARK   12  A    between atoms: C_26  and  C_27
REMARK                            x       y       z     vdW  Elec       q    Type
REMARK                         _______ _______ _______ _____ _____    ______ ____
ROOT
ATOM      1  N   UNL     1       2.392   6.796  18.455  0.00  0.00    +0.000 N 
ATOM      2  C   UNL     1       1.881   7.971  17.771  0.00  0.00    +0.000 C 
ATOM      3  C   UNL     1       2.143   9.087  18.770  0.00  0.00    +0.000 C 
ATOM      4  C   UNL     1       1.777   8.438  20.106  0.00  0.00    +0.000 C 
ATOM      5  C   UNL     1       2.300   6.987  19.919  0.00  0.00    +0.000 C 
ENDROOT
BRANCH   1   8
ATOM      6  C   UNL     1       5.575   5.466  17.234  0.00  0.00    +0.000 A 
ATOM      7  C   UNL     1       4.610   6.339  17.700  0.00  0.00    +0.000 A 
ATOM      8  C   UNL     1       3.296   5.888  17.943  0.00  0.00    +0.000 A 
ATOM      9  C   UNL     1       3.033   4.537  17.646  0.00  0.00    +0.000 A 
ATOM     10  C   UNL     1       1.701   3.848  17.688  0.00  0.00    +0.000 C 
ATOM     11  C   UNL     1       4.099   3.732  17.230  0.00  0.00    +0.000 A 
ATOM     12  N   UNL     1       5.352   4.160  17.014  0.00  0.00    +0.000 NA
BRANCH   6  13
ATOM     13  O   UNL     1       6.843   5.971  17.017  0.00  0.00    +0.000 OA
BRANCH  13  14
ATOM     14  C   UNL     1       6.882   7.387  17.224  0.00  0.00    +0.000 C 
BRANCH  14  16
ATOM     15  C   UNL     1       8.340   9.233  18.090  0.00  0.00    +0.000 C 
ATOM     16  C   UNL     1       8.090   7.734  18.087  0.00  0.00    +0.000 C 
ENDBRANCH  14  16
ENDBRANCH  13  14
ENDBRANCH   6  13
ENDBRANCH   1   8
BRANCH   4  17
ATOM     17  O   UNL     1       0.358   8.408  20.314  0.00  0.00    +0.000 OA
BRANCH  17  18
ATOM     18  C   UNL     1      -0.203   9.507  20.910  0.00  0.00    +0.000 A 
ATOM     19  C   UNL     1      -0.243   9.748  22.281  0.00  0.00    +0.000 A 
ATOM     20  C   UNL     1      -0.757  10.949  22.777  0.00  0.00    +0.000 A 
ATOM     21  C   UNL     1      -1.267  11.922  21.910  0.00  0.00    +0.000 A 
ATOM     22  C   UNL     1      -1.262  11.657  20.532  0.00  0.00    +0.000 A 
ATOM     23  C   UNL     1      -0.713  10.468  20.037  0.00  0.00    +0.000 A 
BRANCH  21  24
ATOM     24  C   UNL     1      -1.775  13.233  22.479  0.00  0.00    +0.000 C 
ATOM     25  C   UNL     1      -0.625  14.184  22.813  0.00  0.00    +0.000 C 
BRANCH  24  26
ATOM     26  N   UNL     1      -2.615  12.980  23.637  0.00  0.00    +0.000 N 
ATOM     27  C   UNL     1      -3.925  12.584  23.524  0.00  0.00    +0.000 C 
ATOM     28  C   UNL     1      -4.621  12.383  24.842  0.00  0.00    +0.000 C 
ATOM     29  O   UNL     1      -4.492  12.405  22.453  0.00  0.00    +0.000 OA
ATOM     30  H   UNL     1      -2.213  13.108  24.557  0.00  0.00    +0.000 HD
ENDBRANCH  24  26
ENDBRANCH  21  24
ENDBRANCH  17  18
ENDBRANCH   4  17
TORSDOF 8
ENDMDL
