MODEL 1
REMARK VINA RESULT:      -7.4      0.000      0.000
REMARK  Name = 
REMARK  9 active torsions:
REMARK  status: ('A' for Active; 'I' for Inactive)
REMARK    1  A    between atoms: C_1  and  O_2
REMARK    2  A    between atoms: O_2  and  C_3
REMARK    3  A    between atoms: C_5  and  C_6
REMARK    4  A    between atoms: C_6  and  N_7
REMARK    5  A    between atoms: N_11  and  C_12
REMARK    6  A    between atoms: C_15  and  C_16
REMARK    7  A    between atoms: C_20  and  C_21
REMARK    8  A    between atoms: C_23  and  O_24
REMARK    9  A    between atoms: O_24  and  C_25
REMARK                            x       y       z     vdW  Elec       q    Type
REMARK                         _______ _______ _______ _____ _____    ______ ____
ROOT
ATOM      1  N   UNL     1       0.618   8.816  20.461  0.00  0.00    +0.000 NA
ATOM      2  C   UNL     1      -0.158   8.805  21.715  0.00  0.00    +0.000 C 
ATOM      3  C   UNL     1       0.064  10.007  22.637  0.00  0.00    +0.000 C 
ATOM      4  O   UNL     1       0.109   9.874  23.858  0.00  0.00    +0.000 OA
ATOM      5  N   UNL     1      -0.065  11.227  21.967  0.00  0.00    +0.000 N 
ATOM      6  C   UNL     1       0.590  11.377  20.682  0.00  0.00    +0.000 C 
ATOM      7  C   UNL     1       0.578  10.123  19.775  0.00  0.00    +0.000 C 
ATOM      8  C   UNL     1      -0.655  10.157  18.863  0.00  0.00    +0.000 C 
ENDROOT
BRANCH   5   9
ATOM      9  C   UNL     1      -1.019  12.167  22.441  0.00  0.00    +0.000 A 
ATOM     10  C   UNL     1      -0.658  13.500  22.658  0.00  0.00    +0.000 A 
ATOM     11  C   UNL     1      -1.514  14.372  23.339  0.00  0.00    +0.000 A 
ATOM     12  C   UNL     1      -2.736  13.915  23.843  0.00  0.00    +0.000 A 
ATOM     13  C   UNL     1      -3.594  14.800  24.699  0.00  0.00    +0.000 C 
ATOM     14  C   UNL     1      -3.119  12.593  23.588  0.00  0.00    +0.000 A 
ATOM     15  C   UNL     1      -2.278  11.733  22.872  0.00  0.00    +0.000 A 
ENDBRANCH   5   9
BRANCH   1  16
ATOM     16  C   UNL     1       1.958   8.241  20.620  0.00  0.00    +0.000 C 
BRANCH  16  19
ATOM     17  C   UNL     1       1.553   4.459  20.004  0.00  0.00    +0.000 A 
ATOM     18  C   UNL     1       1.445   5.736  20.577  0.00  0.00    +0.000 A 
ATOM     19  C   UNL     1       2.088   6.849  20.007  0.00  0.00    +0.000 A 
ATOM     20  C   UNL     1       2.841   6.650  18.842  0.00  0.00    +0.000 A 
ATOM     21  C   UNL     1       2.967   5.379  18.264  0.00  0.00    +0.000 A 
ATOM     22  C   UNL     1       2.325   4.284  18.851  0.00  0.00    +0.000 A 
BRANCH  17  24
ATOM     23  C   UNL     1       1.584   2.641  21.555  0.00  0.00    +0.000 C 
ATOM     24  O   UNL     1       0.858   3.473  20.655  0.00  0.00    +0.000 OA
ENDBRANCH  17  24
BRANCH  21  25
ATOM     25  O   UNL     1       3.733   5.346  17.130  0.00  0.00    +0.000 OA
ATOM     26  C   UNL     1       4.667   6.402  16.939  0.00  0.00    +0.000 C 
ENDBRANCH  21  25
ENDBRANCH  16  19
ENDBRANCH   1  16
TORSDOF 5
ENDMDL
MODEL 2
REMARK VINA RESULT:      -7.3      0.499      2.409
REMARK  Name = 
REMARK  9 active torsions:
REMARK  status: ('A' for Active; 'I' for Inactive)
REMARK    1  A    between atoms: C_1  and  O_2
REMARK    2  A    between atoms: O_2  and  C_3
REMARK    3  A    between atoms: C_5  and  C_6
REMARK    4  A    between atoms: C_6  and  N_7
REMARK    5  A    between atoms: N_11  and  C_12
REMARK    6  A    between atoms: C_15  and  C_16
REMARK    7  A    between atoms: C_20  and  C_21
REMARK    8  A    between atoms: C_23  and  O_24
REMARK    9  A    between atoms: O_24  and  C_25
REMARK                            x       y       z     vdW  Elec       q    Type
REMARK                         _______ _______ _______ _____ _____    ______ ____
ROOT
ATOM      1  N   UNL     1       0.577   8.819  20.400  0.00  0.00    +0.000 NA
ATOM      2  C   UNL     1      -0.227   8.848  21.636  0.00  0.00    +0.000 C 
ATOM      3  C   UNL     1      -0.020  10.076  22.527  0.00  0.00    +0.000 C 
ATOM      4  O   UNL     1      -0.003   9.979  23.753  0.00  0.00    +0.000 OA
ATOM      5  N   UNL     1      -0.130  11.276  21.819  0.00  0.00    +0.000 N 
ATOM      6  C   UNL     1       0.554  11.386  20.545  0.00  0.00    +0.000 C 
ATOM      7  C   UNL     1       0.558  10.105  19.675  0.00  0.00    +0.000 C 
ATOM      8  C   UNL     1      -0.654  10.117  18.735  0.00  0.00    +0.000 C 
ENDROOT
BRANCH   5   9
ATOM      9  C   UNL     1      -1.090  12.233  22.243  0.00  0.00    +0.000 A 
ATOM     10  C   UNL     1      -0.689  13.406  22.889  0.00  0.00    +0.000 A 
ATOM     11  C   UNL     1      -1.626  14.235  23.514  0.00  0.00    +0.000 A 
ATOM     12  C   UNL     1      -2.980  13.888  23.530  0.00  0.00    +0.000 A 
ATOM     13  C   UNL     1      -3.971  14.691  24.320  0.00  0.00    +0.000 C 
ATOM     14  C   UNL     1      -3.389  12.737  22.847  0.00  0.00    +0.000 A 
ATOM     15  C   UNL     1      -2.455  11.929  22.188  0.00  0.00    +0.000 A 
ENDBRANCH   5   9
BRANCH   1  16
ATOM     16  C   UNL     1       1.911   8.244  20.606  0.00  0.00    +0.000 C 
BRANCH  16  19
ATOM     17  C   UNL     1       2.993   5.372  18.276  0.00  0.00    +0.000 A 
ATOM     18  C   UNL     1       2.839   6.652  18.833  0.00  0.00    +0.000 A 
ATOM     19  C   UNL     1       2.065   6.857  19.989  0.00  0.00    +0.000 A 
ATOM     20  C   UNL     1       1.450   5.743  20.576  0.00  0.00    +0.000 A 
ATOM     21  C   UNL     1       1.585   4.461  20.024  0.00  0.00    +0.000 A 
ATOM     22  C   UNL     1       2.353   4.281  18.871  0.00  0.00    +0.000 A 
BRANCH  17  24
ATOM     23  C   UNL     1       4.780   4.295  17.110  0.00  0.00    +0.000 C 
ATOM     24  O   UNL     1       3.791   5.320  17.163  0.00  0.00    +0.000 OA
ENDBRANCH  17  24
BRANCH  21  25
ATOM     25  O   UNL     1       0.926   3.477  20.712  0.00  0.00    +0.000 OA
ATOM     26  C   UNL     1       1.690   2.679  21.608  0.00  0.00    +0.000 C 
ENDBRANCH  21  25
ENDBRANCH  16  19
ENDBRANCH   1  16
TORSDOF 5
ENDMDL
MODEL 3
REMARK VINA RESULT:      -7.0      0.756      1.205
REMARK  Name = 
REMARK  9 active torsions:
REMARK  status: ('A' for Active; 'I' for Inactive)
REMARK    1  A    between atoms: C_1  and  O_2
REMARK    2  A    between atoms: O_2  and  C_3
REMARK    3  A    between atoms: C_5  and  C_6
REMARK    4  A    between atoms: C_6  and  N_7
REMARK    5  A    between atoms: N_11  and  C_12
REMARK    6  A    between atoms: C_15  and  C_16
REMARK    7  A    between atoms: C_20  and  C_21
REMARK    8  A    between atoms: C_23  and  O_24
REMARK    9  A    between atoms: O_24  and  C_25
REMARK                            x       y       z     vdW  Elec       q    Type
REMARK                         _______ _______ _______ _____ _____    ______ ____
ROOT
ATOM      1  N   UNL     1       0.660   8.746  20.555  0.00  0.00    +0.000 NA
ATOM      2  C   UNL     1      -0.145   8.700  21.790  0.00  0.00    +0.000 C 
ATOM      3  C   UNL     1       0.075   9.862  22.763  0.00  0.00    +0.000 C 
ATOM      4  O   UNL     1       0.089   9.682  23.979  0.00  0.00    +0.000 OA
ATOM      5  N   UNL     1      -0.020  11.108  22.138  0.00  0.00    +0.000 N 
ATOM      6  C   UNL     1       0.667  11.297  20.875  0.00  0.00    +0.000 C 
ATOM      7  C   UNL     1       0.657  10.079  19.920  0.00  0.00    +0.000 C 
ATOM      8  C   UNL     1      -0.554  10.168  18.982  0.00  0.00    +0.000 C 
ENDROOT
BRANCH   5   9
ATOM      9  C   UNL     1      -0.969  12.046  22.626  0.00  0.00    +0.000 A 
ATOM     10  C   UNL     1      -2.222  11.622  23.077  0.00  0.00    +0.000 A 
ATOM     11  C   UNL     1      -3.240  12.545  23.336  0.00  0.00    +0.000 A 
ATOM     12  C   UNL     1      -3.031  13.910  23.117  0.00  0.00    +0.000 A 
ATOM     13  C   UNL     1      -4.158  14.892  23.251  0.00  0.00    +0.000 C 
ATOM     14  C   UNL     1      -1.765  14.341  22.707  0.00  0.00    +0.000 A 
ATOM     15  C   UNL     1      -0.734  13.419  22.486  0.00  0.00    +0.000 A 
ENDBRANCH   5   9
BRANCH   1  16
ATOM     16  C   UNL     1       1.987   8.143  20.722  0.00  0.00    +0.000 C 
BRANCH  16  19
ATOM     17  C   UNL     1       1.695   4.532  19.408  0.00  0.00    +0.000 A 
ATOM     18  C   UNL     1       1.526   5.684  20.194  0.00  0.00    +0.000 A 
ATOM     19  C   UNL     1       2.182   6.886  19.879  0.00  0.00    +0.000 A 
ATOM     20  C   UNL     1       3.013   6.907  18.750  0.00  0.00    +0.000 A 
ATOM     21  C   UNL     1       3.200   5.763  17.962  0.00  0.00    +0.000 A 
ATOM     22  C   UNL     1       2.543   4.575  18.298  0.00  0.00    +0.000 A 
BRANCH  17  24
ATOM     23  C   UNL     1       0.832   2.361  18.903  0.00  0.00    +0.000 C 
ATOM     24  O   UNL     1       0.978   3.440  19.823  0.00  0.00    +0.000 OA
ENDBRANCH  17  24
BRANCH  21  25
ATOM     25  O   UNL     1       4.039   5.942  16.895  0.00  0.00    +0.000 OA
ATOM     26  C   UNL     1       5.383   6.317  17.172  0.00  0.00    +0.000 C 
ENDBRANCH  21  25
ENDBRANCH  16  19
ENDBRANCH   1  16
TORSDOF 5
ENDMDL
MODEL 4
REMARK VINA RESULT:      -7.0      0.944      1.210
REMARK  Name = 
REMARK  9 active torsions:
REMARK  status: ('A' for Active; 'I' for Inactive)
REMARK    1  A    between atoms: C_1  and  O_2
REMARK    2  A    between atoms: O_2  and  C_3
REMARK    3  A    between atoms: C_5  and  C_6
REMARK    4  A    between atoms: C_6  and  N_7
REMARK    5  A    between atoms: N_11  and  C_12
REMARK    6  A    between atoms: C_15  and  C_16
REMARK    7  A    between atoms: C_20  and  C_21
REMARK    8  A    between atoms: C_23  and  O_24
REMARK    9  A    between atoms: O_24  and  C_25
REMARK                            x       y       z     vdW  Elec       q    Type
REMARK                         _______ _______ _______ _____ _____    ______ ____
ROOT
ATOM      1  N   UNL     1       0.606   8.859  20.379  0.00  0.00    +0.000 NA
ATOM      2  C   UNL     1      -0.307   8.929  21.535  0.00  0.00    +0.000 C 
ATOM      3  C   UNL     1      -0.138  10.158  22.434  0.00  0.00    +0.000 C 
ATOM      4  O   UNL     1      -0.238  10.072  23.656  0.00  0.00    +0.000 OA
ATOM      5  N   UNL     1      -0.137  11.353  21.711  0.00  0.00    +0.000 N 
ATOM      6  C   UNL     1       0.665  11.426  20.505  0.00  0.00    +0.000 C 
ATOM      7  C   UNL     1       0.702  10.138  19.648  0.00  0.00    +0.000 C 
ATOM      8  C   UNL     1      -0.417  10.184  18.599  0.00  0.00    +0.000 C 
ENDROOT
BRANCH   5   9
ATOM      9  C   UNL     1      -1.096  12.349  22.038  0.00  0.00    +0.000 A 
ATOM     10  C   UNL     1      -2.291  12.451  21.319  0.00  0.00    +0.000 A 
ATOM     11  C   UNL     1      -3.128  13.561  21.475  0.00  0.00    +0.000 A 
ATOM     12  C   UNL     1      -2.767  14.605  22.331  0.00  0.00    +0.000 A 
ATOM     13  C   UNL     1      -3.582  15.864  22.395  0.00  0.00    +0.000 C 
ATOM     14  C   UNL     1      -1.594  14.486  23.084  0.00  0.00    +0.000 A 
ATOM     15  C   UNL     1      -0.777  13.355  22.956  0.00  0.00    +0.000 A 
ENDBRANCH   5   9
BRANCH   1  16
ATOM     16  C   UNL     1       1.893   8.238  20.712  0.00  0.00    +0.000 C 
BRANCH  16  19
ATOM     17  C   UNL     1       1.623   4.463  19.987  0.00  0.00    +0.000 A 
ATOM     18  C   UNL     1       1.462   5.721  20.592  0.00  0.00    +0.000 A 
ATOM     19  C   UNL     1       2.081   6.868  20.066  0.00  0.00    +0.000 A 
ATOM     20  C   UNL     1       2.865   6.725  18.913  0.00  0.00    +0.000 A 
ATOM     21  C   UNL     1       3.044   5.475  18.305  0.00  0.00    +0.000 A 
ATOM     22  C   UNL     1       2.425   4.345  18.848  0.00  0.00    +0.000 A 
BRANCH  17  24
ATOM     23  C   UNL     1       1.626   2.720  21.622  0.00  0.00    +0.000 C 
ATOM     24  O   UNL     1       0.946   3.439  20.596  0.00  0.00    +0.000 OA
ENDBRANCH  17  24
BRANCH  21  25
ATOM     25  O   UNL     1       3.835   5.497  17.188  0.00  0.00    +0.000 OA
ATOM     26  C   UNL     1       4.480   4.284  16.817  0.00  0.00    +0.000 C 
ENDBRANCH  21  25
ENDBRANCH  16  19
ENDBRANCH   1  16
TORSDOF 5
ENDMDL
MODEL 5
REMARK VINA RESULT:      -6.9      0.936      2.787
REMARK  Name = 
REMARK  9 active torsions:
REMARK  status: ('A' for Active; 'I' for Inactive)
REMARK    1  A    between atoms: C_1  and  O_2
REMARK    2  A    between atoms: O_2  and  C_3
REMARK    3  A    between atoms: C_5  and  C_6
REMARK    4  A    between atoms: C_6  and  N_7
REMARK    5  A    between atoms: N_11  and  C_12
REMARK    6  A    between atoms: C_15  and  C_16
REMARK    7  A    between atoms: C_20  and  C_21
REMARK    8  A    between atoms: C_23  and  O_24
REMARK    9  A    between atoms: O_24  and  C_25
REMARK                            x       y       z     vdW  Elec       q    Type
REMARK                         _______ _______ _______ _____ _____    ______ ____
ROOT
ATOM      1  N   UNL     1       0.612   8.742  20.376  0.00  0.00    +0.000 NA
ATOM      2  C   UNL     1      -0.294   8.894  21.531  0.00  0.00    +0.000 C 
ATOM      3  C   UNL     1      -0.072  10.149  22.380  0.00  0.00    +0.000 C 
ATOM      4  O   UNL     1      -0.171  10.115  23.606  0.00  0.00    +0.000 OA
ATOM      5  N   UNL     1      -0.025  11.315  21.611  0.00  0.00    +0.000 N 
ATOM      6  C   UNL     1       0.775  11.308  20.402  0.00  0.00    +0.000 C 
ATOM      7  C   UNL     1       0.757   9.987  19.595  0.00  0.00    +0.000 C 
ATOM      8  C   UNL     1      -0.364  10.038  18.548  0.00  0.00    +0.000 C 
ENDROOT
BRANCH   5   9
ATOM      9  C   UNL     1      -0.942  12.360  21.901  0.00  0.00    +0.000 A 
ATOM     10  C   UNL     1      -2.191  12.407  21.276  0.00  0.00    +0.000 A 
ATOM     11  C   UNL     1      -2.999  13.544  21.374  0.00  0.00    +0.000 A 
ATOM     12  C   UNL     1      -2.556  14.670  22.075  0.00  0.00    +0.000 A 
ATOM     13  C   UNL     1      -3.348  15.944  22.063  0.00  0.00    +0.000 C 
ATOM     14  C   UNL     1      -1.325  14.610  22.738  0.00  0.00    +0.000 A 
ATOM     15  C   UNL     1      -0.535  13.456  22.672  0.00  0.00    +0.000 A 
ENDBRANCH   5   9
BRANCH   1  16
ATOM     16  C   UNL     1       1.874   8.083  20.730  0.00  0.00    +0.000 C 
BRANCH  16  19
ATOM     17  C   UNL     1       3.082   5.453  18.186  0.00  0.00    +0.000 A 
ATOM     18  C   UNL     1       2.880   6.676  18.847  0.00  0.00    +0.000 A 
ATOM     19  C   UNL     1       2.081   6.758  20.001  0.00  0.00    +0.000 A 
ATOM     20  C   UNL     1       1.490   5.581  20.479  0.00  0.00    +0.000 A 
ATOM     21  C   UNL     1       1.673   4.356  19.824  0.00  0.00    +0.000 A 
ATOM     22  C   UNL     1       2.466   4.297  18.674  0.00  0.00    +0.000 A 
BRANCH  17  24
ATOM     23  C   UNL     1       4.924   6.510  17.089  0.00  0.00    +0.000 C 
ATOM     24  O   UNL     1       3.899   5.519  17.089  0.00  0.00    +0.000 OA
ENDBRANCH  17  24
BRANCH  21  25
ATOM     25  O   UNL     1       1.033   3.298  20.412  0.00  0.00    +0.000 OA
ATOM     26  C   UNL     1       1.581   2.792  21.624  0.00  0.00    +0.000 C 
ENDBRANCH  21  25
ENDBRANCH  16  19
ENDBRANCH   1  16
TORSDOF 5
ENDMDL
MODEL 6
REMARK VINA RESULT:      -6.7      2.939      9.826
REMARK  Name = 
REMARK  9 active torsions:
REMARK  status: ('A' for Active; 'I' for Inactive)
REMARK    1  A    between atoms: C_1  and  O_2
REMARK    2  A    between atoms: O_2  and  C_3
REMARK    3  A    between atoms: C_5  and  C_6
REMARK    4  A    between atoms: C_6  and  N_7
REMARK    5  A    between atoms: N_11  and  C_12
REMARK    6  A    between atoms: C_15  and  C_16
REMARK    7  A    between atoms: C_20  and  C_21
REMARK    8  A    between atoms: C_23  and  O_24
REMARK    9  A    between atoms: O_24  and  C_25
REMARK                            x       y       z     vdW  Elec       q    Type
REMARK                         _______ _______ _______ _____ _____    ______ ____
ROOT
ATOM      1  N   UNL     1       2.426   5.918  18.703  0.00  0.00    +0.000 NA
ATOM      2  C   UNL     1       3.091   6.740  17.674  0.00  0.00    +0.000 C 
ATOM      3  C   UNL     1       4.581   6.456  17.466  0.00  0.00    +0.000 C 
ATOM      4  O   UNL     1       5.379   7.366  17.252  0.00  0.00    +0.000 OA
ATOM      5  N   UNL     1       4.846   5.096  17.283  0.00  0.00    +0.000 N 
ATOM      6  C   UNL     1       4.214   4.147  18.180  0.00  0.00    +0.000 C 
ATOM      7  C   UNL     1       2.762   4.485  18.595  0.00  0.00    +0.000 C 
ATOM      8  C   UNL     1       1.779   3.827  17.618  0.00  0.00    +0.000 C 
ENDROOT
BRANCH   5   9
ATOM      9  C   UNL     1       5.511   4.684  16.098  0.00  0.00    +0.000 A 
ATOM     10  C   UNL     1       6.852   5.015  15.881  0.00  0.00    +0.000 A 
ATOM     11  C   UNL     1       7.444   4.821  14.629  0.00  0.00    +0.000 A 
ATOM     12  C   UNL     1       6.694   4.320  13.561  0.00  0.00    +0.000 A 
ATOM     13  C   UNL     1       7.277   4.245  12.180  0.00  0.00    +0.000 C 
ATOM     14  C   UNL     1       5.365   3.947  13.786  0.00  0.00    +0.000 A 
ATOM     15  C   UNL     1       4.785   4.105  15.051  0.00  0.00    +0.000 A 
ENDBRANCH   5   9
BRANCH   1  16
ATOM     16  C   UNL     1       2.557   6.485  20.050  0.00  0.00    +0.000 C 
BRANCH  16  19
ATOM     17  C   UNL     1       0.975   9.945  19.440  0.00  0.00    +0.000 A 
ATOM     18  C   UNL     1       1.735   8.777  19.269  0.00  0.00    +0.000 A 
ATOM     19  C   UNL     1       1.744   7.762  20.242  0.00  0.00    +0.000 A 
ATOM     20  C   UNL     1       0.967   7.947  21.393  0.00  0.00    +0.000 A 
ATOM     21  C   UNL     1       0.211   9.112  21.584  0.00  0.00    +0.000 A 
ATOM     22  C   UNL     1       0.222  10.112  20.607  0.00  0.00    +0.000 A 
BRANCH  17  24
ATOM     23  C   UNL     1       1.677  12.091  18.655  0.00  0.00    +0.000 C 
ATOM     24  O   UNL     1       1.046  10.838  18.403  0.00  0.00    +0.000 OA
ENDBRANCH  17  24
BRANCH  21  25
ATOM     25  O   UNL     1      -0.495   9.144  22.756  0.00  0.00    +0.000 OA
ATOM     26  C   UNL     1      -0.970  10.409  23.202  0.00  0.00    +0.000 C 
ENDBRANCH  21  25
ENDBRANCH  16  19
ENDBRANCH   1  16
TORSDOF 5
ENDMDL
MODEL 7
REMARK VINA RESULT:      -6.6      2.938      9.559
REMARK  Name = 
REMARK  9 active torsions:
REMARK  status: ('A' for Active; 'I' for Inactive)
REMARK    1  A    between atoms: C_1  and  O_2
REMARK    2  A    between atoms: O_2  and  C_3
REMARK    3  A    between atoms: C_5  and  C_6
REMARK    4  A    between atoms: C_6  and  N_7
REMARK    5  A    between atoms: N_11  and  C_12
REMARK    6  A    between atoms: C_15  and  C_16
REMARK    7  A    between atoms: C_20  and  C_21
REMARK    8  A    between atoms: C_23  and  O_24
REMARK    9  A    between atoms: O_24  and  C_25
REMARK                            x       y       z     vdW  Elec       q    Type
REMARK                         _______ _______ _______ _____ _____    ______ ____
ROOT
ATOM      1  N   UNL     1       2.427   5.875  18.729  0.00  0.00    +0.000 NA
ATOM      2  C   UNL     1       3.055   6.694  17.675  0.00  0.00    +0.000 C 
ATOM      3  C   UNL     1       4.549   6.447  17.452  0.00  0.00    +0.000 C 
ATOM      4  O   UNL     1       5.319   7.374  17.209  0.00  0.00    +0.000 OA
ATOM      5  N   UNL     1       4.850   5.092  17.293  0.00  0.00    +0.000 N 
ATOM      6  C   UNL     1       4.257   4.144  18.216  0.00  0.00    +0.000 C 
ATOM      7  C   UNL     1       2.802   4.449  18.645  0.00  0.00    +0.000 C 
ATOM      8  C   UNL     1       1.825   3.745  17.694  0.00  0.00    +0.000 C 
ENDROOT
BRANCH   5   9
ATOM      9  C   UNL     1       5.511   4.675  16.106  0.00  0.00    +0.000 A 
ATOM     10  C   UNL     1       6.843   5.025  15.872  0.00  0.00    +0.000 A 
ATOM     11  C   UNL     1       7.427   4.824  14.617  0.00  0.00    +0.000 A 
ATOM     12  C   UNL     1       6.675   4.296  13.563  0.00  0.00    +0.000 A 
ATOM     13  C   UNL     1       7.246   4.212  12.177  0.00  0.00    +0.000 C 
ATOM     14  C   UNL     1       5.354   3.904  13.806  0.00  0.00    +0.000 A 
ATOM     15  C   UNL     1       4.784   4.069  15.075  0.00  0.00    +0.000 A 
ENDBRANCH   5   9
BRANCH   1  16
ATOM     16  C   UNL     1       2.560   6.472  20.063  0.00  0.00    +0.000 C 
BRANCH  16  19
ATOM     17  C   UNL     1       0.126   9.072  21.533  0.00  0.00    +0.000 A 
ATOM     18  C   UNL     1       0.889   7.905  21.363  0.00  0.00    +0.000 A 
ATOM     19  C   UNL     1       1.717   7.731  20.240  0.00  0.00    +0.000 A 
ATOM     20  C   UNL     1       1.763   8.760  19.290  0.00  0.00    +0.000 A 
ATOM     21  C   UNL     1       0.999   9.925  19.440  0.00  0.00    +0.000 A 
ATOM     22  C   UNL     1       0.177  10.075  20.560  0.00  0.00    +0.000 A 
BRANCH  17  24
ATOM     23  C   UNL     1      -0.980  10.396  23.188  0.00  0.00    +0.000 C 
ATOM     24  O   UNL     1      -0.618   9.113  22.683  0.00  0.00    +0.000 OA
ENDBRANCH  17  24
BRANCH  21  25
ATOM     25  O   UNL     1       1.153  10.837  18.430  0.00  0.00    +0.000 OA
ATOM     26  C   UNL     1       1.209  12.212  18.791  0.00  0.00    +0.000 C 
ENDBRANCH  21  25
ENDBRANCH  16  19
ENDBRANCH   1  16
TORSDOF 5
ENDMDL
MODEL 8
REMARK VINA RESULT:      -6.5      1.681      2.806
REMARK  Name = 
REMARK  9 active torsions:
REMARK  status: ('A' for Active; 'I' for Inactive)
REMARK    1  A    between atoms: C_1  and  O_2
REMARK    2  A    between atoms: O_2  and  C_3
REMARK    3  A    between atoms: C_5  and  C_6
REMARK    4  A    between atoms: C_6  and  N_7
REMARK    5  A    between atoms: N_11  and  C_12
REMARK    6  A    between atoms: C_15  and  C_16
REMARK    7  A    between atoms: C_20  and  C_21
REMARK    8  A    between atoms: C_23  and  O_24
REMARK    9  A    between atoms: O_24  and  C_25
REMARK                            x       y       z     vdW  Elec       q    Type
REMARK                         _______ _______ _______ _____ _____    ______ ____
ROOT
ATOM      1  N   UNL     1       1.265   8.662  18.868  0.00  0.00    +0.000 NA
ATOM      2  C   UNL     1       1.029   8.418  20.304  0.00  0.00    +0.000 C 
ATOM      3  C   UNL     1       1.400   9.573  21.237  0.00  0.00    +0.000 C 
ATOM      4  O   UNL     1       1.920   9.367  22.332  0.00  0.00    +0.000 OA
ATOM      5  N   UNL     1       0.848  10.790  20.829  0.00  0.00    +0.000 N 
ATOM      6  C   UNL     1       0.941  11.150  19.427  0.00  0.00    +0.000 C 
ATOM      7  C   UNL     1       0.776   9.983  18.424  0.00  0.00    +0.000 C 
ATOM      8  C   UNL     1      -0.700   9.847  18.028  0.00  0.00    +0.000 C 
ENDROOT
BRANCH   5   9
ATOM      9  C   UNL     1       0.013  11.499  21.734  0.00  0.00    +0.000 A 
ATOM     10  C   UNL     1      -0.953  10.827  22.488  0.00  0.00    +0.000 A 
ATOM     11  C   UNL     1      -1.927  11.536  23.200  0.00  0.00    +0.000 A 
ATOM     12  C   UNL     1      -1.970  12.932  23.142  0.00  0.00    +0.000 A 
ATOM     13  C   UNL     1      -3.095  13.693  23.780  0.00  0.00    +0.000 C 
ATOM     14  C   UNL     1      -0.978  13.609  22.424  0.00  0.00    +0.000 A 
ATOM     15  C   UNL     1       0.020  12.899  21.744  0.00  0.00    +0.000 A 
ENDBRANCH   5   9
BRANCH   1  16
ATOM     16  C   UNL     1       2.636   8.340  18.458  0.00  0.00    +0.000 C 
BRANCH  16  19
ATOM     17  C   UNL     1       4.467   4.980  18.917  0.00  0.00    +0.000 A 
ATOM     18  C   UNL     1       4.198   6.358  18.871  0.00  0.00    +0.000 A 
ATOM     19  C   UNL     1       2.935   6.844  18.492  0.00  0.00    +0.000 A 
ATOM     20  C   UNL     1       1.943   5.911  18.162  0.00  0.00    +0.000 A 
ATOM     21  C   UNL     1       2.199   4.533  18.192  0.00  0.00    +0.000 A 
ATOM     22  C   UNL     1       3.464   4.072  18.565  0.00  0.00    +0.000 A 
BRANCH  17  24
ATOM     23  C   UNL     1       6.822   5.322  18.691  0.00  0.00    +0.000 C 
ATOM     24  O   UNL     1       5.734   4.653  19.323  0.00  0.00    +0.000 OA
ENDBRANCH  17  24
BRANCH  21  25
ATOM     25  O   UNL     1       1.130   3.751  17.845  0.00  0.00    +0.000 OA
ATOM     26  C   UNL     1       0.865   2.608  18.650  0.00  0.00    +0.000 C 
ENDBRANCH  21  25
ENDBRANCH  16  19
ENDBRANCH   1  16
TORSDOF 5
ENDMDL
MODEL 9
REMARK VINA RESULT:      -6.5      3.479      6.287
REMARK  Name = 
REMARK  9 active torsions:
REMARK  status: ('A' for Active; 'I' for Inactive)
REMARK    1  A    between atoms: C_1  and  O_2
REMARK    2  A    between atoms: O_2  and  C_3
REMARK    3  A    between atoms: C_5  and  C_6
REMARK    4  A    between atoms: C_6  and  N_7
REMARK    5  A    between atoms: N_11  and  C_12
REMARK    6  A    between atoms: C_15  and  C_16
REMARK    7  A    between atoms: C_20  and  C_21
REMARK    8  A    between atoms: C_23  and  O_24
REMARK    9  A    between atoms: O_24  and  C_25
REMARK                            x       y       z     vdW  Elec       q    Type
REMARK                         _______ _______ _______ _____ _____    ______ ____
ROOT
ATOM      1  N   UNL     1       3.186   3.821  18.622  0.00  0.00    +0.000 NA
ATOM      2  C   UNL     1       4.010   4.975  19.027  0.00  0.00    +0.000 C 
ATOM      3  C   UNL     1       3.697   6.292  18.310  0.00  0.00    +0.000 C 
ATOM      4  O   UNL     1       4.592   7.066  17.978  0.00  0.00    +0.000 OA
ATOM      5  N   UNL     1       2.335   6.603  18.335  0.00  0.00    +0.000 N 
ATOM      6  C   UNL     1       1.384   5.554  18.022  0.00  0.00    +0.000 C 
ATOM      7  C   UNL     1       1.747   4.144  18.548  0.00  0.00    +0.000 C 
ATOM      8  C   UNL     1       1.129   3.937  19.937  0.00  0.00    +0.000 C 
ENDROOT
BRANCH   5   9
ATOM      9  C   UNL     1       1.929   7.843  18.898  0.00  0.00    +0.000 A 
ATOM     10  C   UNL     1       1.620   7.941  20.258  0.00  0.00    +0.000 A 
ATOM     11  C   UNL     1       1.001   9.085  20.771  0.00  0.00    +0.000 A 
ATOM     12  C   UNL     1       0.650  10.141  19.924  0.00  0.00    +0.000 A 
ATOM     13  C   UNL     1      -0.144  11.306  20.437  0.00  0.00    +0.000 C 
ATOM     14  C   UNL     1       0.997  10.064  18.571  0.00  0.00    +0.000 A 
ATOM     15  C   UNL     1       1.653   8.934  18.067  0.00  0.00    +0.000 A 
ENDBRANCH   5   9
BRANCH   1  16
ATOM     16  C   UNL     1       3.725   3.123  17.450  0.00  0.00    +0.000 C 
BRANCH  16  19
ATOM     17  C   UNL     1       7.306   4.544  17.362  0.00  0.00    +0.000 A 
ATOM     18  C   UNL     1       6.095   4.006  17.828  0.00  0.00    +0.000 A 
ATOM     19  C   UNL     1       5.035   3.723  16.948  0.00  0.00    +0.000 A 
ATOM     20  C   UNL     1       5.221   3.991  15.585  0.00  0.00    +0.000 A 
ATOM     21  C   UNL     1       6.420   4.538  15.107  0.00  0.00    +0.000 A 
ATOM     22  C   UNL     1       7.458   4.819  16.000  0.00  0.00    +0.000 A 
BRANCH  17  24
ATOM     23  C   UNL     1       7.918   5.617  19.408  0.00  0.00    +0.000 C 
ATOM     24  O   UNL     1       8.255   4.750  18.328  0.00  0.00    +0.000 OA
ENDBRANCH  17  24
BRANCH  21  25
ATOM     25  O   UNL     1       6.449   4.741  13.753  0.00  0.00    +0.000 OA
ATOM     26  C   UNL     1       6.148   3.630  12.917  0.00  0.00    +0.000 C 
ENDBRANCH  21  25
ENDBRANCH  16  19
ENDBRANCH   1  16
TORSDOF 5
ENDMDL
