MODEL 1
REMARK VINA RESULT:      -6.9      0.000      0.000
REMARK  Name = 
REMARK  2 active torsions:
REMARK  status: ('A' for Active; 'I' for Inactive)
REMARK    1  A    between atoms: C_1  and  C_2
REMARK    2  A    between atoms: C_6  and  C_7
REMARK                            x       y       z     vdW  Elec       q    Type
REMARK                         _______ _______ _______ _____ _____    ______ ____
ROOT
ATOM      1  C   UNL     1       4.488   3.869  17.203  0.00  0.00    +0.000 A 
ATOM      2  N   UNL     1       4.693   3.635  18.488  0.00  0.00    +0.000 NA
ATOM      3  C   UNL     1       3.461   3.360  19.023  0.00  0.00    +0.000 A 
ATOM      4  C   UNL     1       3.116   3.053  20.346  0.00  0.00    +0.000 A 
ATOM      5  C   UNL     1       1.772   2.797  20.630  0.00  0.00    +0.000 A 
ATOM      6 CL   UNL     1       1.315   2.413  22.247  0.00  0.00    +0.000 Cl
ATOM      7  C   UNL     1       0.794   2.847  19.633  0.00  0.00    +0.000 A 
ATOM      8  C   UNL     1       1.124   3.162  18.310  0.00  0.00    +0.000 A 
ATOM      9  C   UNL     1       2.472   3.416  18.049  0.00  0.00    +0.000 A 
ATOM     10  N   UNL     1       3.149   3.755  16.906  0.00  0.00    +0.000 N 
ATOM     11  H   UNL     1       2.767   3.901  15.982  0.00  0.00    +0.000 HD
ENDROOT
BRANCH   1  17
ATOM     12  C   UNL     1       5.852   3.534  12.594  0.00  0.00    +0.000 C 
ATOM     13  C   UNL     1       6.148   4.030  13.978  0.00  0.00    +0.000 A 
ATOM     14  C   UNL     1       7.290   4.787  14.227  0.00  0.00    +0.000 A 
ATOM     15  C   UNL     1       7.519   5.258  15.515  0.00  0.00    +0.000 A 
ATOM     16  C   UNL     1       6.601   4.967  16.515  0.00  0.00    +0.000 A 
ATOM     17  C   UNL     1       5.487   4.202  16.192  0.00  0.00    +0.000 A 
ATOM     18  N   UNL     1       5.245   3.723  14.944  0.00  0.00    +0.000 NA
ENDBRANCH   1  17
TORSDOF 1
ENDMDL
MODEL 2
REMARK VINA RESULT:      -6.9      6.114      7.789
REMARK  Name = 
REMARK  2 active torsions:
REMARK  status: ('A' for Active; 'I' for Inactive)
REMARK    1  A    between atoms: C_1  and  C_2
REMARK    2  A    between atoms: C_6  and  C_7
REMARK                            x       y       z     vdW  Elec       q    Type
REMARK                         _______ _______ _______ _____ _____    ______ ____
ROOT
ATOM      1  C   UNL     1       8.502   8.967  18.429  0.00  0.00    +0.000 A 
ATOM      2  N   UNL     1       7.637   8.822  17.439  0.00  0.00    +0.000 NA
ATOM      3  C   UNL     1       7.269   7.502  17.450  0.00  0.00    +0.000 A 
ATOM      4  C   UNL     1       6.383   6.820  16.606  0.00  0.00    +0.000 A 
ATOM      5  C   UNL     1       6.169   5.459  16.841  0.00  0.00    +0.000 A 
ATOM      6 CL   UNL     1       5.083   4.592  15.821  0.00  0.00    +0.000 Cl
ATOM      7  C   UNL     1       6.815   4.789  17.883  0.00  0.00    +0.000 A 
ATOM      8  C   UNL     1       7.710   5.456  18.728  0.00  0.00    +0.000 A 
ATOM      9  C   UNL     1       7.911   6.815  18.473  0.00  0.00    +0.000 A 
ATOM     10  N   UNL     1       8.699   7.764  19.070  0.00  0.00    +0.000 N 
ATOM     11  H   UNL     1       9.326   7.644  19.852  0.00  0.00    +0.000 HD
ENDROOT
BRANCH   1  17
ATOM     12  C   UNL     1      10.793  12.979  17.061  0.00  0.00    +0.000 C 
ATOM     13  C   UNL     1      10.295  12.114  18.181  0.00  0.00    +0.000 A 
ATOM     14  C   UNL     1      10.460  12.510  19.506  0.00  0.00    +0.000 A 
ATOM     15  C   UNL     1       9.960  11.700  20.519  0.00  0.00    +0.000 A 
ATOM     16  C   UNL     1       9.305  10.523  20.183  0.00  0.00    +0.000 A 
ATOM     17  C   UNL     1       9.183  10.191  18.840  0.00  0.00    +0.000 A 
ATOM     18  N   UNL     1       9.671  10.961  17.832  0.00  0.00    +0.000 NA
ENDBRANCH   1  17
TORSDOF 1
ENDMDL
MODEL 3
REMARK VINA RESULT:      -6.7      1.221      1.362
REMARK  Name = 
REMARK  2 active torsions:
REMARK  status: ('A' for Active; 'I' for Inactive)
REMARK    1  A    between atoms: C_1  and  C_2
REMARK    2  A    between atoms: C_6  and  C_7
REMARK                            x       y       z     vdW  Elec       q    Type
REMARK                         _______ _______ _______ _____ _____    ______ ____
ROOT
ATOM      1  C   UNL     1       4.716   4.342  16.861  0.00  0.00    +0.000 A 
ATOM      2  N   UNL     1       4.354   3.244  17.502  0.00  0.00    +0.000 NA
ATOM      3  C   UNL     1       3.539   3.654  18.525  0.00  0.00    +0.000 A 
ATOM      4  C   UNL     1       2.893   2.892  19.506  0.00  0.00    +0.000 A 
ATOM      5  C   UNL     1       2.097   3.562  20.439  0.00  0.00    +0.000 A 
ATOM      6 CL   UNL     1       1.287   2.652  21.658  0.00  0.00    +0.000 Cl
ATOM      7  C   UNL     1       1.945   4.951  20.404  0.00  0.00    +0.000 A 
ATOM      8  C   UNL     1       2.593   5.725  19.434  0.00  0.00    +0.000 A 
ATOM      9  C   UNL     1       3.385   5.035  18.513  0.00  0.00    +0.000 A 
ATOM     10  N   UNL     1       4.154   5.449  17.457  0.00  0.00    +0.000 N 
ATOM     11  H   UNL     1       4.304   6.394  17.134  0.00  0.00    +0.000 HD
ENDROOT
BRANCH   1  17
ATOM     12  C   UNL     1       5.380   3.244  12.217  0.00  0.00    +0.000 C 
ATOM     13  C   UNL     1       5.904   3.902  13.458  0.00  0.00    +0.000 A 
ATOM     14  C   UNL     1       7.119   4.583  13.437  0.00  0.00    +0.000 A 
ATOM     15  C   UNL     1       7.561   5.209  14.598  0.00  0.00    +0.000 A 
ATOM     16  C   UNL     1       6.778   5.143  15.742  0.00  0.00    +0.000 A 
ATOM     17  C   UNL     1       5.580   4.441  15.688  0.00  0.00    +0.000 A 
ATOM     18  N   UNL     1       5.130   3.814  14.570  0.00  0.00    +0.000 NA
ENDBRANCH   1  17
TORSDOF 1
ENDMDL
MODEL 4
REMARK VINA RESULT:      -6.7      1.734      2.454
REMARK  Name = 
REMARK  2 active torsions:
REMARK  status: ('A' for Active; 'I' for Inactive)
REMARK    1  A    between atoms: C_1  and  C_2
REMARK    2  A    between atoms: C_6  and  C_7
REMARK                            x       y       z     vdW  Elec       q    Type
REMARK                         _______ _______ _______ _____ _____    ______ ____
ROOT
ATOM      1  C   UNL     1       5.200   4.707  15.795  0.00  0.00    +0.000 A 
ATOM      2  N   UNL     1       4.850   3.782  16.673  0.00  0.00    +0.000 NA
ATOM      3  C   UNL     1       4.196   4.445  17.679  0.00  0.00    +0.000 A 
ATOM      4  C   UNL     1       3.628   3.938  18.854  0.00  0.00    +0.000 A 
ATOM      5  C   UNL     1       2.999   4.836  19.719  0.00  0.00    +0.000 A 
ATOM      6 CL   UNL     1       2.288   4.243  21.174  0.00  0.00    +0.000 Cl
ATOM      7  C   UNL     1       2.934   6.202  19.431  0.00  0.00    +0.000 A 
ATOM      8  C   UNL     1       3.505   6.723  18.264  0.00  0.00    +0.000 A 
ATOM      9  C   UNL     1       4.131   5.808  17.415  0.00  0.00    +0.000 A 
ATOM     10  N   UNL     1       4.789   5.949  16.221  0.00  0.00    +0.000 N 
ATOM     11  H   UNL     1       4.959   6.802  15.706  0.00  0.00    +0.000 HD
ENDROOT
BRANCH   1  17
ATOM     12  C   UNL     1       5.317   2.532  11.496  0.00  0.00    +0.000 C 
ATOM     13  C   UNL     1       5.978   3.455  12.476  0.00  0.00    +0.000 A 
ATOM     14  C   UNL     1       7.175   4.089  12.152  0.00  0.00    +0.000 A 
ATOM     15  C   UNL     1       7.746   4.962  13.071  0.00  0.00    +0.000 A 
ATOM     16  C   UNL     1       7.106   5.183  14.283  0.00  0.00    +0.000 A 
ATOM     17  C   UNL     1       5.917   4.510  14.538  0.00  0.00    +0.000 A 
ATOM     18  N   UNL     1       5.343   3.646  13.661  0.00  0.00    +0.000 NA
ENDBRANCH   1  17
TORSDOF 1
ENDMDL
MODEL 5
REMARK VINA RESULT:      -6.7      1.766      2.384
REMARK  Name = 
REMARK  2 active torsions:
REMARK  status: ('A' for Active; 'I' for Inactive)
REMARK    1  A    between atoms: C_1  and  C_2
REMARK    2  A    between atoms: C_6  and  C_7
REMARK                            x       y       z     vdW  Elec       q    Type
REMARK                         _______ _______ _______ _____ _____    ______ ____
ROOT
ATOM      1  C   UNL     1       5.228   4.392  15.869  0.00  0.00    +0.000 A 
ATOM      2  N   UNL     1       4.510   5.396  16.341  0.00  0.00    +0.000 NA
ATOM      3  C   UNL     1       4.029   4.979  17.555  0.00  0.00    +0.000 A 
ATOM      4  C   UNL     1       3.209   5.657  18.466  0.00  0.00    +0.000 A 
ATOM      5  C   UNL     1       2.869   5.004  19.654  0.00  0.00    +0.000 A 
ATOM      6 CL   UNL     1       1.863   5.812  20.797  0.00  0.00    +0.000 Cl
ATOM      7  C   UNL     1       3.327   3.714  19.934  0.00  0.00    +0.000 A 
ATOM      8  C   UNL     1       4.140   3.023  19.028  0.00  0.00    +0.000 A 
ATOM      9  C   UNL     1       4.465   3.692  17.847  0.00  0.00    +0.000 A 
ATOM     10  N   UNL     1       5.212   3.337  16.753  0.00  0.00    +0.000 N 
ATOM     11  H   UNL     1       5.690   2.462  16.589  0.00  0.00    +0.000 HD
ENDROOT
BRANCH   1  17
ATOM     12  C   UNL     1       5.562   2.471  11.462  0.00  0.00    +0.000 C 
ATOM     13  C   UNL     1       6.124   3.407  12.490  0.00  0.00    +0.000 A 
ATOM     14  C   UNL     1       7.245   4.182  12.202  0.00  0.00    +0.000 A 
ATOM     15  C   UNL     1       7.722   5.062  13.168  0.00  0.00    +0.000 A 
ATOM     16  C   UNL     1       7.065   5.149  14.388  0.00  0.00    +0.000 A 
ATOM     17  C   UNL     1       5.957   4.340  14.605  0.00  0.00    +0.000 A 
ATOM     18  N   UNL     1       5.477   3.466  13.682  0.00  0.00    +0.000 NA
ENDBRANCH   1  17
TORSDOF 1
ENDMDL
MODEL 6
REMARK VINA RESULT:      -6.6      1.858      2.887
REMARK  Name = 
REMARK  2 active torsions:
REMARK  status: ('A' for Active; 'I' for Inactive)
REMARK    1  A    between atoms: C_1  and  C_2
REMARK    2  A    between atoms: C_6  and  C_7
REMARK                            x       y       z     vdW  Elec       q    Type
REMARK                         _______ _______ _______ _____ _____    ______ ____
ROOT
ATOM      1  C   UNL     1       5.214   4.690  15.678  0.00  0.00    +0.000 A 
ATOM      2  N   UNL     1       4.846   3.757  16.540  0.00  0.00    +0.000 NA
ATOM      3  C   UNL     1       4.228   4.418  17.570  0.00  0.00    +0.000 A 
ATOM      4  C   UNL     1       3.661   3.903  18.743  0.00  0.00    +0.000 A 
ATOM      5  C   UNL     1       3.074   4.801  19.637  0.00  0.00    +0.000 A 
ATOM      6 CL   UNL     1       2.365   4.198  21.088  0.00  0.00    +0.000 Cl
ATOM      7  C   UNL     1       3.049   6.175  19.381  0.00  0.00    +0.000 A 
ATOM      8  C   UNL     1       3.621   6.704  18.217  0.00  0.00    +0.000 A 
ATOM      9  C   UNL     1       4.204   5.788  17.339  0.00  0.00    +0.000 A 
ATOM     10  N   UNL     1       4.849   5.935  16.138  0.00  0.00    +0.000 N 
ATOM     11  H   UNL     1       5.040   6.793  15.640  0.00  0.00    +0.000 HD
ENDROOT
BRANCH   1  17
ATOM     12  C   UNL     1       8.895   5.961  12.840  0.00  0.00    +0.000 C 
ATOM     13  C   UNL     1       7.669   5.120  13.038  0.00  0.00    +0.000 A 
ATOM     14  C   UNL     1       7.277   4.204  12.064  0.00  0.00    +0.000 A 
ATOM     15  C   UNL     1       6.153   3.417  12.292  0.00  0.00    +0.000 A 
ATOM     16  C   UNL     1       5.457   3.561  13.485  0.00  0.00    +0.000 A 
ATOM     17  C   UNL     1       5.906   4.499  14.406  0.00  0.00    +0.000 A 
ATOM     18  N   UNL     1       6.995   5.286  14.204  0.00  0.00    +0.000 NA
ENDBRANCH   1  17
TORSDOF 1
ENDMDL
MODEL 7
REMARK VINA RESULT:      -6.6      4.871      5.378
REMARK  Name = 
REMARK  2 active torsions:
REMARK  status: ('A' for Active; 'I' for Inactive)
REMARK    1  A    between atoms: C_1  and  C_2
REMARK    2  A    between atoms: C_6  and  C_7
REMARK                            x       y       z     vdW  Elec       q    Type
REMARK                         _______ _______ _______ _____ _____    ______ ____
ROOT
ATOM      1  C   UNL     1       2.587   7.102  18.774  0.00  0.00    +0.000 A 
ATOM      2  N   UNL     1       2.211   6.992  20.037  0.00  0.00    +0.000 NA
ATOM      3  C   UNL     1       1.512   8.136  20.324  0.00  0.00    +0.000 A 
ATOM      4  C   UNL     1       0.904   8.527  21.523  0.00  0.00    +0.000 A 
ATOM      5  C   UNL     1       0.233   9.753  21.549  0.00  0.00    +0.000 A 
ATOM      6 CL   UNL     1      -0.528  10.263  23.009  0.00  0.00    +0.000 Cl
ATOM      7  C   UNL     1       0.167  10.572  20.419  0.00  0.00    +0.000 A 
ATOM      8  C   UNL     1       0.778  10.196  19.216  0.00  0.00    +0.000 A 
ATOM      9  C   UNL     1       1.445   8.969  19.214  0.00  0.00    +0.000 A 
ATOM     10  N   UNL     1       2.147   8.296  18.248  0.00  0.00    +0.000 N 
ATOM     11  H   UNL     1       2.329   8.590  17.299  0.00  0.00    +0.000 HD
ENDROOT
BRANCH   1  17
ATOM     12  C   UNL     1       3.279   2.484  17.585  0.00  0.00    +0.000 C 
ATOM     13  C   UNL     1       3.693   3.917  17.428  0.00  0.00    +0.000 A 
ATOM     14  C   UNL     1       4.720   4.262  16.552  0.00  0.00    +0.000 A 
ATOM     15  C   UNL     1       5.059   5.603  16.406  0.00  0.00    +0.000 A 
ATOM     16  C   UNL     1       4.362   6.560  17.131  0.00  0.00    +0.000 A 
ATOM     17  C   UNL     1       3.354   6.139  17.989  0.00  0.00    +0.000 A 
ATOM     18  N   UNL     1       3.009   4.835  18.156  0.00  0.00    +0.000 NA
ENDBRANCH   1  17
TORSDOF 1
ENDMDL
MODEL 8
REMARK VINA RESULT:      -6.6      5.090      5.759
REMARK  Name = 
REMARK  2 active torsions:
REMARK  status: ('A' for Active; 'I' for Inactive)
REMARK    1  A    between atoms: C_1  and  C_2
REMARK    2  A    between atoms: C_6  and  C_7
REMARK                            x       y       z     vdW  Elec       q    Type
REMARK                         _______ _______ _______ _____ _____    ______ ____
ROOT
ATOM      1  C   UNL     1       2.538   7.117  18.703  0.00  0.00    +0.000 A 
ATOM      2  N   UNL     1       2.076   8.246  18.193  0.00  0.00    +0.000 NA
ATOM      3  C   UNL     1       1.505   8.926  19.238  0.00  0.00    +0.000 A 
ATOM      4  C   UNL     1       0.865  10.172  19.242  0.00  0.00    +0.000 A 
ATOM      5  C   UNL     1       0.376  10.654  20.459  0.00  0.00    +0.000 A 
ATOM      6 CL   UNL     1      -0.416  12.185  20.499  0.00  0.00    +0.000 Cl
ATOM      7  C   UNL     1       0.514   9.922  21.642  0.00  0.00    +0.000 A 
ATOM      8  C   UNL     1       1.144   8.672  21.649  0.00  0.00    +0.000 A 
ATOM      9  C   UNL     1       1.623   8.209  20.422  0.00  0.00    +0.000 A 
ATOM     10  N   UNL     1       2.269   7.058  20.052  0.00  0.00    +0.000 N 
ATOM     11  H   UNL     1       2.526   6.277  20.640  0.00  0.00    +0.000 HD
ENDROOT
BRANCH   1  17
ATOM     12  C   UNL     1       2.707   2.432  17.590  0.00  0.00    +0.000 C 
ATOM     13  C   UNL     1       3.327   3.792  17.474  0.00  0.00    +0.000 A 
ATOM     14  C   UNL     1       4.472   3.983  16.705  0.00  0.00    +0.000 A 
ATOM     15  C   UNL     1       5.004   5.264  16.594  0.00  0.00    +0.000 A 
ATOM     16  C   UNL     1       4.376   6.316  17.246  0.00  0.00    +0.000 A 
ATOM     17  C   UNL     1       3.240   6.047  17.999  0.00  0.00    +0.000 A 
ATOM     18  N   UNL     1       2.706   4.805  18.131  0.00  0.00    +0.000 NA
ENDBRANCH   1  17
TORSDOF 1
ENDMDL
MODEL 9
REMARK VINA RESULT:      -6.6      5.057      7.138
REMARK  Name = 
REMARK  2 active torsions:
REMARK  status: ('A' for Active; 'I' for Inactive)
REMARK    1  A    between atoms: C_1  and  C_2
REMARK    2  A    between atoms: C_6  and  C_7
REMARK                            x       y       z     vdW  Elec       q    Type
REMARK                         _______ _______ _______ _____ _____    ______ ____
ROOT
ATOM      1  C   UNL     1       2.660   7.466  18.247  0.00  0.00    +0.000 A 
ATOM      2  N   UNL     1       3.688   7.704  17.451  0.00  0.00    +0.000 NA
ATOM      3  C   UNL     1       4.189   6.476  17.104  0.00  0.00    +0.000 A 
ATOM      4  C   UNL     1       5.281   6.161  16.285  0.00  0.00    +0.000 A 
ATOM      5  C   UNL     1       5.578   4.812  16.078  0.00  0.00    +0.000 A 
ATOM      6 CL   UNL     1       6.915   4.391  15.073  0.00  0.00    +0.000 Cl
ATOM      7  C   UNL     1       4.817   3.799  16.667  0.00  0.00    +0.000 A 
ATOM      8  C   UNL     1       3.729   4.100  17.494  0.00  0.00    +0.000 A 
ATOM      9  C   UNL     1       3.451   5.454  17.690  0.00  0.00    +0.000 A 
ATOM     10  N   UNL     1       2.496   6.110  18.422  0.00  0.00    +0.000 N 
ATOM     11  H   UNL     1       1.774   5.704  19.000  0.00  0.00    +0.000 HD
ENDROOT
BRANCH   1  17
ATOM     12  C   UNL     1       0.712   9.109  22.337  0.00  0.00    +0.000 C 
ATOM     13  C   UNL     1       0.838   9.228  20.847  0.00  0.00    +0.000 A 
ATOM     14  C   UNL     1       0.177  10.245  20.161  0.00  0.00    +0.000 A 
ATOM     15  C   UNL     1       0.340  10.346  18.784  0.00  0.00    +0.000 A 
ATOM     16  C   UNL     1       1.161   9.436  18.131  0.00  0.00    +0.000 A 
ATOM     17  C   UNL     1       1.784   8.447  18.882  0.00  0.00    +0.000 A 
ATOM     18  N   UNL     1       1.634   8.321  20.226  0.00  0.00    +0.000 NA
ENDBRANCH   1  17
TORSDOF 1
ENDMDL
