MODEL 1
REMARK VINA RESULT:      -8.7      0.000      0.000
REMARK  Name = 
REMARK  2 active torsions:
REMARK  status: ('A' for Active; 'I' for Inactive)
REMARK    1  A    between atoms: C_4  and  C_5
REMARK    2  A    between atoms: C_6  and  O_7
REMARK                            x       y       z     vdW  Elec       q    Type
REMARK                         _______ _______ _______ _____ _____    ______ ____
ROOT
ATOM      1  O   UNL     1       7.137   8.017  17.572  0.00  0.00    +0.000 OA
ATOM      2  C   UNL     1       6.442   7.019  17.461  0.00  0.00    +0.000 C 
ATOM      3  C   UNL     1       5.109   7.043  16.780  0.00  0.00    +0.000 C 
ATOM      4  C   UNL     1       4.412   5.946  17.168  0.00  0.00    +0.000 C 
ATOM      5  C   UNL     1       4.921   4.653  16.561  0.00  0.00    +0.000 C 
ATOM      6  C   UNL     1       4.623   4.550  15.084  0.00  0.00    +0.000 C 
ATOM      7  C   UNL     1       5.572   4.329  14.166  0.00  0.00    +0.000 C 
ATOM      8  C   UNL     1       6.965   4.252  14.522  0.00  0.00    +0.000 C 
ATOM      9  C   UNL     1       7.383   4.331  15.792  0.00  0.00    +0.000 C 
ATOM     10  C   UNL     1       6.435   4.480  16.958  0.00  0.00    +0.000 C 
ATOM     11  C   UNL     1       6.932   5.625  17.857  0.00  0.00    +0.000 C 
ATOM     12  O   UNL     1       7.669   5.473  18.819  0.00  0.00    +0.000 OA
ENDROOT
BRANCH   4  13
ATOM     13  C   UNL     1       3.570   5.975  18.440  0.00  0.00    +0.000 A 
ATOM     14  C   UNL     1       2.809   7.151  18.697  0.00  0.00    +0.000 A 
ATOM     15  C   UNL     1       1.959   7.267  19.788  0.00  0.00    +0.000 A 
ATOM     16  C   UNL     1       1.757   6.187  20.623  0.00  0.00    +0.000 A 
ATOM     17  C   UNL     1       2.437   4.988  20.425  0.00  0.00    +0.000 A 
ATOM     18  C   UNL     1       2.123   3.928  21.297  0.00  0.00    +0.000 A 
ATOM     19  C   UNL     1       2.755   2.699  21.209  0.00  0.00    +0.000 A 
ATOM     20  C   UNL     1       3.769   2.543  20.291  0.00  0.00    +0.000 A 
ATOM     21  C   UNL     1       4.111   3.611  19.446  0.00  0.00    +0.000 A 
ATOM     22  C   UNL     1       3.409   4.859  19.387  0.00  0.00    +0.000 A 
BRANCH  14  23
ATOM     23  O   UNL     1       2.796   8.282  17.918  0.00  0.00    +0.000 OA
ATOM     24  H   UNL     1       2.294   8.119  17.106  0.00  0.00    +0.000 HD
ENDBRANCH  14  23
ENDBRANCH   4  13
TORSDOF 2
ENDMDL
MODEL 2
REMARK VINA RESULT:      -8.4      2.002      5.929
REMARK  Name = 
REMARK  2 active torsions:
REMARK  status: ('A' for Active; 'I' for Inactive)
REMARK    1  A    between atoms: C_4  and  C_5
REMARK    2  A    between atoms: C_6  and  O_7
REMARK                            x       y       z     vdW  Elec       q    Type
REMARK                         _______ _______ _______ _____ _____    ______ ____
ROOT
ATOM      1  O   UNL     1       4.011   0.654  18.175  0.00  0.00    +0.000 OA
ATOM      2  C   UNL     1       3.922   1.803  18.579  0.00  0.00    +0.000 C 
ATOM      3  C   UNL     1       3.256   2.883  17.786  0.00  0.00    +0.000 C 
ATOM      4  C   UNL     1       3.668   4.083  18.266  0.00  0.00    +0.000 C 
ATOM      5  C   UNL     1       3.075   4.435  19.616  0.00  0.00    +0.000 C 
ATOM      6  C   UNL     1       1.604   4.763  19.535  0.00  0.00    +0.000 C 
ATOM      7  C   UNL     1       0.679   4.139  20.274  0.00  0.00    +0.000 C 
ATOM      8  C   UNL     1       1.020   3.046  21.148  0.00  0.00    +0.000 C 
ATOM      9  C   UNL     1       2.284   2.639  21.320  0.00  0.00    +0.000 C 
ATOM     10  C   UNL     1       3.458   3.300  20.639  0.00  0.00    +0.000 C 
ATOM     11  C   UNL     1       4.334   2.212  19.994  0.00  0.00    +0.000 C 
ATOM     12  O   UNL     1       5.290   1.686  20.543  0.00  0.00    +0.000 OA
ENDROOT
BRANCH   4  13
ATOM     13  C   UNL     1       4.949   4.726  17.744  0.00  0.00    +0.000 A 
ATOM     14  C   UNL     1       5.783   5.392  18.688  0.00  0.00    +0.000 A 
ATOM     15  C   UNL     1       7.000   5.959  18.340  0.00  0.00    +0.000 A 
ATOM     16  C   UNL     1       7.489   5.811  17.057  0.00  0.00    +0.000 A 
ATOM     17  C   UNL     1       6.752   5.146  16.080  0.00  0.00    +0.000 A 
ATOM     18  C   UNL     1       7.359   5.000  14.818  0.00  0.00    +0.000 A 
ATOM     19  C   UNL     1       6.711   4.378  13.764  0.00  0.00    +0.000 A 
ATOM     20  C   UNL     1       5.410   3.963  13.943  0.00  0.00    +0.000 A 
ATOM     21  C   UNL     1       4.789   4.142  15.189  0.00  0.00    +0.000 A 
ATOM     22  C   UNL     1       5.444   4.649  16.359  0.00  0.00    +0.000 A 
BRANCH  14  23
ATOM     23  O   UNL     1       5.515   5.540  20.027  0.00  0.00    +0.000 OA
ATOM     24  H   UNL     1       6.076   4.946  20.544  0.00  0.00    +0.000 HD
ENDBRANCH  14  23
ENDBRANCH   4  13
TORSDOF 2
ENDMDL
MODEL 3
REMARK VINA RESULT:      -8.1      1.130      2.767
REMARK  Name = 
REMARK  2 active torsions:
REMARK  status: ('A' for Active; 'I' for Inactive)
REMARK    1  A    between atoms: C_4  and  C_5
REMARK    2  A    between atoms: C_6  and  O_7
REMARK                            x       y       z     vdW  Elec       q    Type
REMARK                         _______ _______ _______ _____ _____    ______ ____
ROOT
ATOM      1  O   UNL     1       6.652   8.112  17.266  0.00  0.00    +0.000 OA
ATOM      2  C   UNL     1       6.144   7.007  17.158  0.00  0.00    +0.000 C 
ATOM      3  C   UNL     1       4.812   6.798  16.509  0.00  0.00    +0.000 C 
ATOM      4  C   UNL     1       4.333   5.590  16.898  0.00  0.00    +0.000 C 
ATOM      5  C   UNL     1       5.049   4.415  16.261  0.00  0.00    +0.000 C 
ATOM      6  C   UNL     1       4.738   4.274  14.791  0.00  0.00    +0.000 C 
ATOM      7  C   UNL     1       5.687   4.235  13.848  0.00  0.00    +0.000 C 
ATOM      8  C   UNL     1       7.079   4.406  14.170  0.00  0.00    +0.000 C 
ATOM      9  C   UNL     1       7.509   4.547  15.431  0.00  0.00    +0.000 C 
ATOM     10  C   UNL     1       6.580   4.513  16.621  0.00  0.00    +0.000 C 
ATOM     11  C   UNL     1       6.886   5.720  17.523  0.00  0.00    +0.000 C 
ATOM     12  O   UNL     1       7.663   5.694  18.466  0.00  0.00    +0.000 OA
ENDROOT
BRANCH   4  13
ATOM     13  C   UNL     1       3.532   5.456  18.189  0.00  0.00    +0.000 A 
ATOM     14  C   UNL     1       3.646   4.232  18.910  0.00  0.00    +0.000 A 
ATOM     15  C   UNL     1       3.016   4.020  20.127  0.00  0.00    +0.000 A 
ATOM     16  C   UNL     1       2.316   5.046  20.730  0.00  0.00    +0.000 A 
ATOM     17  C   UNL     1       2.182   6.285  20.109  0.00  0.00    +0.000 A 
ATOM     18  C   UNL     1       1.496   7.284  20.828  0.00  0.00    +0.000 A 
ATOM     19  C   UNL     1       1.282   8.546  20.300  0.00  0.00    +0.000 A 
ATOM     20  C   UNL     1       1.686   8.797  19.008  0.00  0.00    +0.000 A 
ATOM     21  C   UNL     1       2.335   7.791  18.275  0.00  0.00    +0.000 A 
ATOM     22  C   UNL     1       2.713   6.514  18.805  0.00  0.00    +0.000 A 
BRANCH  14  23
ATOM     23  O   UNL     1       4.387   3.142  18.522  0.00  0.00    +0.000 OA
ATOM     24  H   UNL     1       4.906   2.812  19.269  0.00  0.00    +0.000 HD
ENDBRANCH  14  23
ENDBRANCH   4  13
TORSDOF 2
ENDMDL
MODEL 4
REMARK VINA RESULT:      -7.6      2.153      6.066
REMARK  Name = 
REMARK  2 active torsions:
REMARK  status: ('A' for Active; 'I' for Inactive)
REMARK    1  A    between atoms: C_4  and  C_5
REMARK    2  A    between atoms: C_6  and  O_7
REMARK                            x       y       z     vdW  Elec       q    Type
REMARK                         _______ _______ _______ _____ _____    ______ ____
ROOT
ATOM      1  O   UNL     1       2.255   1.854  16.736  0.00  0.00    +0.000 OA
ATOM      2  C   UNL     1       2.810   2.585  17.541  0.00  0.00    +0.000 C 
ATOM      3  C   UNL     1       2.766   4.077  17.432  0.00  0.00    +0.000 C 
ATOM      4  C   UNL     1       3.777   4.589  18.177  0.00  0.00    +0.000 C 
ATOM      5  C   UNL     1       3.542   4.494  19.672  0.00  0.00    +0.000 C 
ATOM      6  C   UNL     1       2.463   5.434  20.151  0.00  0.00    +0.000 C 
ATOM      7  C   UNL     1       1.395   5.021  20.844  0.00  0.00    +0.000 C 
ATOM      8  C   UNL     1       1.162   3.626  21.114  0.00  0.00    +0.000 C 
ATOM      9  C   UNL     1       2.030   2.673  20.747  0.00  0.00    +0.000 C 
ATOM     10  C   UNL     1       3.332   2.978  20.046  0.00  0.00    +0.000 C 
ATOM     11  C   UNL     1       3.461   2.057  18.821  0.00  0.00    +0.000 C 
ATOM     12  O   UNL     1       4.028   0.974  18.832  0.00  0.00    +0.000 OA
ENDROOT
BRANCH   4  13
ATOM     13  C   UNL     1       5.169   4.759  17.578  0.00  0.00    +0.000 A 
ATOM     14  C   UNL     1       6.247   4.999  18.478  0.00  0.00    +0.000 A 
ATOM     15  C   UNL     1       7.564   5.107  18.054  0.00  0.00    +0.000 A 
ATOM     16  C   UNL     1       7.882   4.890  16.728  0.00  0.00    +0.000 A 
ATOM     17  C   UNL     1       6.893   4.619  15.788  0.00  0.00    +0.000 A 
ATOM     18  C   UNL     1       7.323   4.360  14.472  0.00  0.00    +0.000 A 
ATOM     19  C   UNL     1       6.425   4.102  13.448  0.00  0.00    +0.000 A 
ATOM     20  C   UNL     1       5.077   4.178  13.718  0.00  0.00    +0.000 A 
ATOM     21  C   UNL     1       4.646   4.474  15.021  0.00  0.00    +0.000 A 
ATOM     22  C   UNL     1       5.513   4.614  16.154  0.00  0.00    +0.000 A 
BRANCH  14  23
ATOM     23  O   UNL     1       6.137   5.130  19.841  0.00  0.00    +0.000 OA
ATOM     24  H   UNL     1       6.703   5.852  20.150  0.00  0.00    +0.000 HD
ENDBRANCH  14  23
ENDBRANCH   4  13
TORSDOF 2
ENDMDL
MODEL 5
REMARK VINA RESULT:      -7.5      2.140      3.886
REMARK  Name = 
REMARK  2 active torsions:
REMARK  status: ('A' for Active; 'I' for Inactive)
REMARK    1  A    between atoms: C_4  and  C_5
REMARK    2  A    between atoms: C_6  and  O_7
REMARK                            x       y       z     vdW  Elec       q    Type
REMARK                         _______ _______ _______ _____ _____    ______ ____
ROOT
ATOM      1  O   UNL     1       6.002   4.828  14.575  0.00  0.00    +0.000 OA
ATOM      2  C   UNL     1       5.775   5.079  15.749  0.00  0.00    +0.000 C 
ATOM      3  C   UNL     1       6.152   4.144  16.855  0.00  0.00    +0.000 C 
ATOM      4  C   UNL     1       5.428   4.470  17.955  0.00  0.00    +0.000 C 
ATOM      5  C   UNL     1       5.877   5.755  18.621  0.00  0.00    +0.000 C 
ATOM      6  C   UNL     1       7.212   5.615  19.312  0.00  0.00    +0.000 C 
ATOM      7  C   UNL     1       8.251   6.417  19.054  0.00  0.00    +0.000 C 
ATOM      8  C   UNL     1       8.189   7.429  18.032  0.00  0.00    +0.000 C 
ATOM      9  C   UNL     1       7.073   7.669  17.331  0.00  0.00    +0.000 C 
ATOM     10  C   UNL     1       5.782   6.921  17.566  0.00  0.00    +0.000 C 
ATOM     11  C   UNL     1       5.238   6.434  16.213  0.00  0.00    +0.000 C 
ATOM     12  O   UNL     1       4.442   7.058  15.527  0.00  0.00    +0.000 OA
ENDROOT
BRANCH   4  13
ATOM     13  C   UNL     1       4.036   3.883  18.165  0.00  0.00    +0.000 A 
ATOM     14  C   UNL     1       3.765   2.610  17.588  0.00  0.00    +0.000 A 
ATOM     15  C   UNL     1       2.557   1.950  17.765  0.00  0.00    +0.000 A 
ATOM     16  C   UNL     1       1.596   2.484  18.600  0.00  0.00    +0.000 A 
ATOM     17  C   UNL     1       1.793   3.710  19.230  0.00  0.00    +0.000 A 
ATOM     18  C   UNL     1       0.778   4.144  20.105  0.00  0.00    +0.000 A 
ATOM     19  C   UNL     1       0.854   5.358  20.767  0.00  0.00    +0.000 A 
ATOM     20  C   UNL     1       1.919   6.190  20.498  0.00  0.00    +0.000 A 
ATOM     21  C   UNL     1       2.912   5.776  19.598  0.00  0.00    +0.000 A 
ATOM     22  C   UNL     1       2.969   4.481  18.986  0.00  0.00    +0.000 A 
BRANCH  14  23
ATOM     23  O   UNL     1       4.638   1.877  16.821  0.00  0.00    +0.000 OA
ATOM     24  H   UNL     1       4.638   0.954  17.110  0.00  0.00    +0.000 HD
ENDBRANCH  14  23
ENDBRANCH   4  13
TORSDOF 2
ENDMDL
MODEL 6
REMARK VINA RESULT:      -7.5      2.652      5.067
REMARK  Name = 
REMARK  2 active torsions:
REMARK  status: ('A' for Active; 'I' for Inactive)
REMARK    1  A    between atoms: C_4  and  C_5
REMARK    2  A    between atoms: C_6  and  O_7
REMARK                            x       y       z     vdW  Elec       q    Type
REMARK                         _______ _______ _______ _____ _____    ______ ____
ROOT
ATOM      1  O   UNL     1       0.629   4.001  20.110  0.00  0.00    +0.000 OA
ATOM      2  C   UNL     1       1.475   4.702  19.576  0.00  0.00    +0.000 C 
ATOM      3  C   UNL     1       2.411   5.566  20.362  0.00  0.00    +0.000 C 
ATOM      4  C   UNL     1       2.922   6.508  19.530  0.00  0.00    +0.000 C 
ATOM      5  C   UNL     1       3.936   5.964  18.544  0.00  0.00    +0.000 C 
ATOM      6  C   UNL     1       5.236   5.574  19.204  0.00  0.00    +0.000 C 
ATOM      7  C   UNL     1       5.774   4.354  19.085  0.00  0.00    +0.000 C 
ATOM      8  C   UNL     1       5.101   3.297  18.375  0.00  0.00    +0.000 C 
ATOM      9  C   UNL     1       3.937   3.492  17.741  0.00  0.00    +0.000 C 
ATOM     10  C   UNL     1       3.245   4.833  17.693  0.00  0.00    +0.000 C 
ATOM     11  C   UNL     1       1.768   4.642  18.076  0.00  0.00    +0.000 C 
ATOM     12  O   UNL     1       0.869   4.448  17.271  0.00  0.00    +0.000 OA
ENDROOT
BRANCH   4  13
ATOM     13  C   UNL     1       2.179   7.820  19.299  0.00  0.00    +0.000 A 
ATOM     14  C   UNL     1       2.214   8.372  17.986  0.00  0.00    +0.000 A 
ATOM     15  C   UNL     1       1.524   9.526  17.643  0.00  0.00    +0.000 A 
ATOM     16  C   UNL     1       0.695  10.135  18.564  0.00  0.00    +0.000 A 
ATOM     17  C   UNL     1       0.578   9.641  19.861  0.00  0.00    +0.000 A 
ATOM     18  C   UNL     1      -0.333  10.298  20.709  0.00  0.00    +0.000 A 
ATOM     19  C   UNL     1      -0.514   9.910  22.027  0.00  0.00    +0.000 A 
ATOM     20  C   UNL     1       0.278   8.903  22.532  0.00  0.00    +0.000 A 
ATOM     21  C   UNL     1       1.215   8.273  21.699  0.00  0.00    +0.000 A 
ATOM     22  C   UNL     1       1.357   8.527  20.295  0.00  0.00    +0.000 A 
BRANCH  14  23
ATOM     23  O   UNL     1       2.893   7.845  16.914  0.00  0.00    +0.000 OA
ATOM     24  H   UNL     1       3.049   6.901  17.054  0.00  0.00    +0.000 HD
ENDBRANCH  14  23
ENDBRANCH   4  13
TORSDOF 2
ENDMDL
MODEL 7
REMARK VINA RESULT:      -7.2      2.344      4.241
REMARK  Name = 
REMARK  2 active torsions:
REMARK  status: ('A' for Active; 'I' for Inactive)
REMARK    1  A    between atoms: C_4  and  C_5
REMARK    2  A    between atoms: C_6  and  O_7
REMARK                            x       y       z     vdW  Elec       q    Type
REMARK                         _______ _______ _______ _____ _____    ______ ____
ROOT
ATOM      1  O   UNL     1       3.935   2.177  18.983  0.00  0.00    +0.000 OA
ATOM      2  C   UNL     1       3.982   3.314  18.540  0.00  0.00    +0.000 C 
ATOM      3  C   UNL     1       4.715   4.416  19.239  0.00  0.00    +0.000 C 
ATOM      4  C   UNL     1       4.257   5.601  18.764  0.00  0.00    +0.000 C 
ATOM      5  C   UNL     1       4.724   5.915  17.357  0.00  0.00    +0.000 C 
ATOM      6  C   UNL     1       6.195   6.246  17.294  0.00  0.00    +0.000 C 
ATOM      7  C   UNL     1       7.050   5.601  16.491  0.00  0.00    +0.000 C 
ATOM      8  C   UNL     1       6.634   4.485  15.683  0.00  0.00    +0.000 C 
ATOM      9  C   UNL     1       5.360   4.072  15.638  0.00  0.00    +0.000 C 
ATOM     10  C   UNL     1       4.251   4.752  16.405  0.00  0.00    +0.000 C 
ATOM     11  C   UNL     1       3.442   3.683  17.158  0.00  0.00    +0.000 C 
ATOM     12  O   UNL     1       2.440   3.140  16.714  0.00  0.00    +0.000 OA
ENDROOT
BRANCH   4  13
ATOM     13  C   UNL     1       3.028   6.259  19.384  0.00  0.00    +0.000 A 
ATOM     14  C   UNL     1       2.420   5.603  20.492  0.00  0.00    +0.000 A 
ATOM     15  C   UNL     1       1.337   6.138  21.175  0.00  0.00    +0.000 A 
ATOM     16  C   UNL     1       0.866   7.393  20.846  0.00  0.00    +0.000 A 
ATOM     17  C   UNL     1       1.424   8.117  19.796  0.00  0.00    +0.000 A 
ATOM     18  C   UNL     1       0.910   9.409  19.573  0.00  0.00    +0.000 A 
ATOM     19  C   UNL     1       1.372  10.210  18.541  0.00  0.00    +0.000 A 
ATOM     20  C   UNL     1       2.304   9.692  17.670  0.00  0.00    +0.000 A 
ATOM     21  C   UNL     1       2.789   8.390  17.868  0.00  0.00    +0.000 A 
ATOM     22  C   UNL     1       2.461   7.560  18.989  0.00  0.00    +0.000 A 
BRANCH  14  23
ATOM     23  O   UNL     1       2.821   4.404  21.031  0.00  0.00    +0.000 OA
ATOM     24  H   UNL     1       3.421   4.560  21.774  0.00  0.00    +0.000 HD
ENDBRANCH  14  23
ENDBRANCH   4  13
TORSDOF 2
ENDMDL
MODEL 8
REMARK VINA RESULT:      -7.2      1.717      5.684
REMARK  Name = 
REMARK  2 active torsions:
REMARK  status: ('A' for Active; 'I' for Inactive)
REMARK    1  A    between atoms: C_4  and  C_5
REMARK    2  A    between atoms: C_6  and  O_7
REMARK                            x       y       z     vdW  Elec       q    Type
REMARK                         _______ _______ _______ _____ _____    ______ ____
ROOT
ATOM      1  O   UNL     1       2.650   6.491  20.313  0.00  0.00    +0.000 OA
ATOM      2  C   UNL     1       2.943   5.635  19.492  0.00  0.00    +0.000 C 
ATOM      3  C   UNL     1       3.941   4.558  19.780  0.00  0.00    +0.000 C 
ATOM      4  C   UNL     1       4.361   4.038  18.599  0.00  0.00    +0.000 C 
ATOM      5  C   UNL     1       3.325   3.169  17.913  0.00  0.00    +0.000 C 
ATOM      6  C   UNL     1       3.105   1.857  18.627  0.00  0.00    +0.000 C 
ATOM      7  C   UNL     1       1.899   1.446  19.035  0.00  0.00    +0.000 C 
ATOM      8  C   UNL     1       0.729   2.273  18.891  0.00  0.00    +0.000 C 
ATOM      9  C   UNL     1       0.769   3.466  18.282  0.00  0.00    +0.000 C 
ATOM     10  C   UNL     1       2.030   4.034  17.676  0.00  0.00    +0.000 C 
ATOM     11  C   UNL     1       2.204   5.482  18.162  0.00  0.00    +0.000 C 
ATOM     12  O   UNL     1       1.791   6.463  17.561  0.00  0.00    +0.000 OA
ENDROOT
BRANCH   4  13
ATOM     13  C   UNL     1       5.522   4.675  17.843  0.00  0.00    +0.000 A 
ATOM     14  C   UNL     1       6.538   5.311  18.614  0.00  0.00    +0.000 A 
ATOM     15  C   UNL     1       7.672   5.869  18.040  0.00  0.00    +0.000 A 
ATOM     16  C   UNL     1       7.894   5.740  16.684  0.00  0.00    +0.000 A 
ATOM     17  C   UNL     1       6.967   5.105  15.862  0.00  0.00    +0.000 A 
ATOM     18  C   UNL     1       7.309   4.976  14.502  0.00  0.00    +0.000 A 
ATOM     19  C   UNL     1       6.453   4.383  13.587  0.00  0.00    +0.000 A 
ATOM     20  C   UNL     1       5.207   3.981  14.014  0.00  0.00    +0.000 A 
ATOM     21  C   UNL     1       4.849   4.144  15.361  0.00  0.00    +0.000 A 
ATOM     22  C   UNL     1       5.731   4.619  16.387  0.00  0.00    +0.000 A 
BRANCH  14  23
ATOM     23  O   UNL     1       6.544   5.437  19.982  0.00  0.00    +0.000 OA
ATOM     24  H   UNL     1       6.297   6.339  20.232  0.00  0.00    +0.000 HD
ENDBRANCH  14  23
ENDBRANCH   4  13
TORSDOF 2
ENDMDL
MODEL 9
REMARK VINA RESULT:      -6.8      2.446      5.761
REMARK  Name = 
REMARK  2 active torsions:
REMARK  status: ('A' for Active; 'I' for Inactive)
REMARK    1  A    between atoms: C_4  and  C_5
REMARK    2  A    between atoms: C_6  and  O_7
REMARK                            x       y       z     vdW  Elec       q    Type
REMARK                         _______ _______ _______ _____ _____    ______ ____
ROOT
ATOM      1  O   UNL     1       4.018   0.336  18.535  0.00  0.00    +0.000 OA
ATOM      2  C   UNL     1       3.910   1.537  18.726  0.00  0.00    +0.000 C 
ATOM      3  C   UNL     1       3.141   2.429  17.803  0.00  0.00    +0.000 C 
ATOM      4  C   UNL     1       3.535   3.709  18.020  0.00  0.00    +0.000 C 
ATOM      5  C   UNL     1       3.028   4.291  19.324  0.00  0.00    +0.000 C 
ATOM      6  C   UNL     1       1.542   4.555  19.303  0.00  0.00    +0.000 C 
ATOM      7  C   UNL     1       0.703   4.054  20.217  0.00  0.00    +0.000 C 
ATOM      8  C   UNL     1       1.154   3.155  21.247  0.00  0.00    +0.000 C 
ATOM      9  C   UNL     1       2.445   2.824  21.389  0.00  0.00    +0.000 C 
ATOM     10  C   UNL     1       3.535   3.379  20.505  0.00  0.00    +0.000 C 
ATOM     11  C   UNL     1       4.407   2.216  20.004  0.00  0.00    +0.000 C 
ATOM     12  O   UNL     1       5.423   1.829  20.561  0.00  0.00    +0.000 OA
ENDROOT
BRANCH   4  13
ATOM     13  C   UNL     1       4.744   4.280  17.286  0.00  0.00    +0.000 A 
ATOM     14  C   UNL     1       4.732   4.231  15.862  0.00  0.00    +0.000 A 
ATOM     15  C   UNL     1       5.746   4.775  15.087  0.00  0.00    +0.000 A 
ATOM     16  C   UNL     1       6.774   5.474  15.688  0.00  0.00    +0.000 A 
ATOM     17  C   UNL     1       6.846   5.597  17.073  0.00  0.00    +0.000 A 
ATOM     18  C   UNL     1       7.902   6.374  17.587  0.00  0.00    +0.000 A 
ATOM     19  C   UNL     1       8.086   6.546  18.949  0.00  0.00    +0.000 A 
ATOM     20  C   UNL     1       7.254   5.873  19.816  0.00  0.00    +0.000 A 
ATOM     21  C   UNL     1       6.225   5.067  19.306  0.00  0.00    +0.000 A 
ATOM     22  C   UNL     1       5.890   4.955  17.917  0.00  0.00    +0.000 A 
BRANCH  14  23
ATOM     23  O   UNL     1       3.741   3.677  15.089  0.00  0.00    +0.000 OA
ATOM     24  H   UNL     1       2.884   3.782  15.525  0.00  0.00    +0.000 HD
ENDBRANCH  14  23
ENDBRANCH   4  13
TORSDOF 2
ENDMDL
