MODEL 1
REMARK VINA RESULT:      -8.0      0.000      0.000
REMARK  Name = 
REMARK  6 active torsions:
REMARK  status: ('A' for Active; 'I' for Inactive)
REMARK    1  A    between atoms: C_1  and  C_2
REMARK    2  A    between atoms: C_2  and  C_4
REMARK    3  A    between atoms: N_9  and  C_10
REMARK    4  A    between atoms: C_15  and  N_16
REMARK    5  A    between atoms: C_21  and  C_22
REMARK    6  A    between atoms: C_22  and  C_23
REMARK                            x       y       z     vdW  Elec       q    Type
REMARK                         _______ _______ _______ _____ _____    ______ ____
ROOT
ATOM      1  C   UNL     1       2.890   5.991  18.179  0.00  0.00    +0.000 A 
ATOM      2  C   UNL     1       1.890   6.964  18.372  0.00  0.00    +0.000 A 
ATOM      3  C   UNL     1       2.083   8.291  17.992  0.00  0.00    +0.000 A 
ATOM      4  C   UNL     1       3.279   8.674  17.405  0.00  0.00    +0.000 A 
ATOM      5  C   UNL     1       4.287   7.732  17.207  0.00  0.00    +0.000 A 
ATOM      6  C   UNL     1       4.111   6.382  17.576  0.00  0.00    +0.000 A 
ENDROOT
BRANCH   1  12
ATOM      7  C   UNL     1       3.019   2.718  19.960  0.00  0.00    +0.000 C 
ATOM      8  C   UNL     1       1.926   2.526  18.969  0.00  0.00    +0.000 C 
ATOM      9  O   UNL     1       1.311   1.504  18.737  0.00  0.00    +0.000 OA
ATOM     10  C   UNL     1       1.765   3.812  18.198  0.00  0.00    +0.000 C 
ATOM     11  O   UNL     1       1.016   3.921  17.245  0.00  0.00    +0.000 OA
ATOM     12  N   UNL     1       2.667   4.698  18.729  0.00  0.00    +0.000 N 
ATOM     13  C   UNL     1       3.432   4.144  19.740  0.00  0.00    +0.000 C 
ATOM     14  O   UNL     1       4.329   4.679  20.380  0.00  0.00    +0.000 OA
BRANCH   7  16
ATOM     15  C   UNL     1       1.209   2.888  21.758  0.00  0.00    +0.000 C 
ATOM     16  C   UNL     1       2.595   2.444  21.367  0.00  0.00    +0.000 C 
ATOM     17  O   UNL     1       3.321   1.833  22.152  0.00  0.00    +0.000 OA
ENDBRANCH   7  16
ENDBRANCH   1  12
BRANCH   6  18
ATOM     18  N   UNL     1       5.132   5.474  17.180  0.00  0.00    +0.000 N 
ATOM     19  C   UNL     1       6.388   5.479  17.730  0.00  0.00    +0.000 C 
ATOM     20  O   UNL     1       6.832   6.077  18.689  0.00  0.00    +0.000 OA
ATOM     21  C   UNL     1       7.211   4.506  16.912  0.00  0.00    +0.000 C 
ATOM     22  O   UNL     1       8.374   4.227  17.123  0.00  0.00    +0.000 OA
ATOM     23  C   UNL     1       6.362   4.007  15.803  0.00  0.00    +0.000 C 
ATOM     24  C   UNL     1       5.011   4.597  16.115  0.00  0.00    +0.000 C 
ATOM     25  O   UNL     1       4.000   4.334  15.476  0.00  0.00    +0.000 OA
BRANCH  23  26
ATOM     26  C   UNL     1       6.882   4.496  14.480  0.00  0.00    +0.000 C 
ATOM     27  C   UNL     1       6.439   3.789  13.227  0.00  0.00    +0.000 C 
ATOM     28  O   UNL     1       7.666   5.446  14.430  0.00  0.00    +0.000 OA
ENDBRANCH  23  26
ENDBRANCH   6  18
TORSDOF 4
ENDMDL
MODEL 2
REMARK VINA RESULT:      -7.7      0.484      6.096
REMARK  Name = 
REMARK  6 active torsions:
REMARK  status: ('A' for Active; 'I' for Inactive)
REMARK    1  A    between atoms: C_1  and  C_2
REMARK    2  A    between atoms: C_2  and  C_4
REMARK    3  A    between atoms: N_9  and  C_10
REMARK    4  A    between atoms: C_15  and  N_16
REMARK    5  A    between atoms: C_21  and  C_22
REMARK    6  A    between atoms: C_22  and  C_23
REMARK                            x       y       z     vdW  Elec       q    Type
REMARK                         _______ _______ _______ _____ _____    ______ ____
ROOT
ATOM      1  C   UNL     1       4.212   6.502  17.445  0.00  0.00    +0.000 A 
ATOM      2  C   UNL     1       4.164   7.889  17.210  0.00  0.00    +0.000 A 
ATOM      3  C   UNL     1       3.057   8.652  17.578  0.00  0.00    +0.000 A 
ATOM      4  C   UNL     1       1.975   8.044  18.195  0.00  0.00    +0.000 A 
ATOM      5  C   UNL     1       1.995   6.671  18.436  0.00  0.00    +0.000 A 
ATOM      6  C   UNL     1       3.107   5.881  18.079  0.00  0.00    +0.000 A 
ENDROOT
BRANCH   1  12
ATOM      7  C   UNL     1       6.547   4.316  15.528  0.00  0.00    +0.000 C 
ATOM      8  C   UNL     1       7.323   4.656  16.752  0.00  0.00    +0.000 C 
ATOM      9  O   UNL     1       8.410   4.225  17.080  0.00  0.00    +0.000 OA
ATOM     10  C   UNL     1       6.475   5.570  17.601  0.00  0.00    +0.000 C 
ATOM     11  O   UNL     1       6.805   5.928  18.716  0.00  0.00    +0.000 OA
ATOM     12  N   UNL     1       5.312   5.779  16.905  0.00  0.00    +0.000 N 
ATOM     13  C   UNL     1       5.271   5.086  15.707  0.00  0.00    +0.000 C 
ATOM     14  O   UNL     1       4.360   5.056  14.889  0.00  0.00    +0.000 OA
BRANCH   7  16
ATOM     15  C   UNL     1       6.841   3.915  13.020  0.00  0.00    +0.000 C 
ATOM     16  C   UNL     1       7.262   4.659  14.261  0.00  0.00    +0.000 C 
ATOM     17  O   UNL     1       8.114   5.547  14.221  0.00  0.00    +0.000 OA
ENDBRANCH   7  16
ENDBRANCH   1  12
BRANCH   6  18
ATOM     18  N   UNL     1       3.096   4.527  18.517  0.00  0.00    +0.000 N 
ATOM     19  C   UNL     1       2.341   3.555  17.912  0.00  0.00    +0.000 C 
ATOM     20  O   UNL     1       1.704   3.573  16.878  0.00  0.00    +0.000 OA
ATOM     21  C   UNL     1       2.461   2.324  18.784  0.00  0.00    +0.000 C 
ATOM     22  O   UNL     1       1.946   1.249  18.548  0.00  0.00    +0.000 OA
ATOM     23  C   UNL     1       3.268   2.683  19.976  0.00  0.00    +0.000 C 
ATOM     24  C   UNL     1       3.724   4.086  19.668  0.00  0.00    +0.000 C 
ATOM     25  O   UNL     1       4.507   4.706  20.376  0.00  0.00    +0.000 OA
BRANCH  23  26
ATOM     26  C   UNL     1       2.422   2.641  21.218  0.00  0.00    +0.000 C 
ATOM     27  C   UNL     1       1.032   3.216  21.162  0.00  0.00    +0.000 C 
ATOM     28  O   UNL     1       2.868   2.156  22.260  0.00  0.00    +0.000 OA
ENDBRANCH  23  26
ENDBRANCH   6  18
TORSDOF 4
ENDMDL
MODEL 3
REMARK VINA RESULT:      -6.7      9.105     12.698
REMARK  Name = 
REMARK  6 active torsions:
REMARK  status: ('A' for Active; 'I' for Inactive)
REMARK    1  A    between atoms: C_1  and  C_2
REMARK    2  A    between atoms: C_2  and  C_4
REMARK    3  A    between atoms: N_9  and  C_10
REMARK    4  A    between atoms: C_15  and  N_16
REMARK    5  A    between atoms: C_21  and  C_22
REMARK    6  A    between atoms: C_22  and  C_23
REMARK                            x       y       z     vdW  Elec       q    Type
REMARK                         _______ _______ _______ _____ _____    ______ ____
ROOT
ATOM      1  C   UNL     1      -0.031  12.075  21.370  0.00  0.00    +0.000 A 
ATOM      2  C   UNL     1       0.788  10.968  21.077  0.00  0.00    +0.000 A 
ATOM      3  C   UNL     1       0.685   9.776  21.794  0.00  0.00    +0.000 A 
ATOM      4  C   UNL     1      -0.244   9.666  22.817  0.00  0.00    +0.000 A 
ATOM      5  C   UNL     1      -1.064  10.749  23.130  0.00  0.00    +0.000 A 
ATOM      6  C   UNL     1      -0.982  11.960  22.414  0.00  0.00    +0.000 A 
ENDROOT
BRANCH   1  12
ATOM      7  C   UNL     1       1.025  15.481  20.281  0.00  0.00    +0.000 C 
ATOM      8  C   UNL     1       0.040  15.080  19.241  0.00  0.00    +0.000 C 
ATOM      9  O   UNL     1      -0.386  15.757  18.327  0.00  0.00    +0.000 OA
ATOM     10  C   UNL     1      -0.442  13.688  19.569  0.00  0.00    +0.000 C 
ATOM     11  O   UNL     1      -1.334  13.138  18.953  0.00  0.00    +0.000 OA
ATOM     12  N   UNL     1       0.243  13.295  20.691  0.00  0.00    +0.000 N 
ATOM     13  C   UNL     1       1.099  14.273  21.167  0.00  0.00    +0.000 C 
ATOM     14  O   UNL     1       1.817  14.222  22.158  0.00  0.00    +0.000 OA
BRANCH   7  16
ATOM     15  C   UNL     1       3.040  14.863  18.833  0.00  0.00    +0.000 C 
ATOM     16  C   UNL     1       2.353  15.873  19.717  0.00  0.00    +0.000 C 
ATOM     17  O   UNL     1       2.836  16.988  19.916  0.00  0.00    +0.000 OA
ENDBRANCH   7  16
ENDBRANCH   1  12
BRANCH   6  18
ATOM     18  N   UNL     1      -1.972  12.941  22.701  0.00  0.00    +0.000 N 
ATOM     19  C   UNL     1      -1.798  13.920  23.646  0.00  0.00    +0.000 C 
ATOM     20  O   UNL     1      -0.813  14.251  24.273  0.00  0.00    +0.000 OA
ATOM     21  C   UNL     1      -3.133  14.622  23.777  0.00  0.00    +0.000 C 
ATOM     22  O   UNL     1      -3.355  15.569  24.505  0.00  0.00    +0.000 OA
ATOM     23  C   UNL     1      -4.107  13.921  22.904  0.00  0.00    +0.000 C 
ATOM     24  C   UNL     1      -3.250  12.923  22.170  0.00  0.00    +0.000 C 
ATOM     25  O   UNL     1      -3.674  12.209  21.270  0.00  0.00    +0.000 OA
BRANCH  23  26
ATOM     26  C   UNL     1      -5.160  13.238  23.731  0.00  0.00    +0.000 C 
ATOM     27  C   UNL     1      -6.548  13.821  23.754  0.00  0.00    +0.000 C 
ATOM     28  O   UNL     1      -4.883  12.231  24.386  0.00  0.00    +0.000 OA
ENDBRANCH  23  26
ENDBRANCH   6  18
TORSDOF 4
ENDMDL
MODEL 4
REMARK VINA RESULT:      -6.7      9.356     13.032
REMARK  Name = 
REMARK  6 active torsions:
REMARK  status: ('A' for Active; 'I' for Inactive)
REMARK    1  A    between atoms: C_1  and  C_2
REMARK    2  A    between atoms: C_2  and  C_4
REMARK    3  A    between atoms: N_9  and  C_10
REMARK    4  A    between atoms: C_15  and  N_16
REMARK    5  A    between atoms: C_21  and  C_22
REMARK    6  A    between atoms: C_22  and  C_23
REMARK                            x       y       z     vdW  Elec       q    Type
REMARK                         _______ _______ _______ _____ _____    ______ ____
ROOT
ATOM      1  C   UNL     1      -0.027  12.308  21.374  0.00  0.00    +0.000 A 
ATOM      2  C   UNL     1       0.808  11.220  21.055  0.00  0.00    +0.000 A 
ATOM      3  C   UNL     1       0.694   9.997  21.716  0.00  0.00    +0.000 A 
ATOM      4  C   UNL     1      -0.262   9.836  22.708  0.00  0.00    +0.000 A 
ATOM      5  C   UNL     1      -1.097  10.899  23.045  0.00  0.00    +0.000 A 
ATOM      6  C   UNL     1      -1.006  12.141  22.385  0.00  0.00    +0.000 A 
ENDROOT
BRANCH   1  12
ATOM      7  C   UNL     1       0.367  15.252  19.120  0.00  0.00    +0.000 C 
ATOM      8  C   UNL     1       1.298  15.553  20.242  0.00  0.00    +0.000 C 
ATOM      9  O   UNL     1       2.073  16.484  20.329  0.00  0.00    +0.000 OA
ATOM     10  C   UNL     1       1.202  14.426  21.240  0.00  0.00    +0.000 C 
ATOM     11  O   UNL     1       1.928  14.343  22.212  0.00  0.00    +0.000 OA
ATOM     12  N   UNL     1       0.256  13.558  20.756  0.00  0.00    +0.000 N 
ATOM     13  C   UNL     1      -0.265  13.957  19.538  0.00  0.00    +0.000 C 
ATOM     14  O   UNL     1      -1.100  13.378  18.854  0.00  0.00    +0.000 OA
BRANCH   7  16
ATOM     15  C   UNL     1      -1.584  16.650  20.002  0.00  0.00    +0.000 C 
ATOM     16  C   UNL     1      -0.633  16.337  18.876  0.00  0.00    +0.000 C 
ATOM     17  O   UNL     1      -0.641  16.982  17.828  0.00  0.00    +0.000 OA
ENDBRANCH   7  16
ENDBRANCH   1  12
BRANCH   6  18
ATOM     18  N   UNL     1      -2.010  13.101  22.688  0.00  0.00    +0.000 N 
ATOM     19  C   UNL     1      -1.855  14.062  23.655  0.00  0.00    +0.000 C 
ATOM     20  O   UNL     1      -0.879  14.393  24.296  0.00  0.00    +0.000 OA
ATOM     21  C   UNL     1      -3.200  14.743  23.792  0.00  0.00    +0.000 C 
ATOM     22  O   UNL     1      -3.440  15.670  24.540  0.00  0.00    +0.000 OA
ATOM     23  C   UNL     1      -4.159  14.049  22.898  0.00  0.00    +0.000 C 
ATOM     24  C   UNL     1      -3.285  13.079  22.148  0.00  0.00    +0.000 C 
ATOM     25  O   UNL     1      -3.693  12.379  21.230  0.00  0.00    +0.000 OA
BRANCH  23  26
ATOM     26  C   UNL     1      -5.208  13.334  23.704  0.00  0.00    +0.000 C 
ATOM     27  C   UNL     1      -6.609  13.885  23.712  0.00  0.00    +0.000 C 
ATOM     28  O   UNL     1      -4.917  12.326  24.351  0.00  0.00    +0.000 OA
ENDBRANCH  23  26
ENDBRANCH   6  18
TORSDOF 4
ENDMDL
MODEL 5
REMARK VINA RESULT:      -6.5      7.204      9.867
REMARK  Name = 
REMARK  6 active torsions:
REMARK  status: ('A' for Active; 'I' for Inactive)
REMARK    1  A    between atoms: C_1  and  C_2
REMARK    2  A    between atoms: C_2  and  C_4
REMARK    3  A    between atoms: N_9  and  C_10
REMARK    4  A    between atoms: C_15  and  N_16
REMARK    5  A    between atoms: C_21  and  C_22
REMARK    6  A    between atoms: C_22  and  C_23
REMARK                            x       y       z     vdW  Elec       q    Type
REMARK                         _______ _______ _______ _____ _____    ______ ____
ROOT
ATOM      1  C   UNL     1      -0.301  12.326  21.630  0.00  0.00    +0.000 A 
ATOM      2  C   UNL     1      -1.350  12.069  22.534  0.00  0.00    +0.000 A 
ATOM      3  C   UNL     1      -1.833  13.059  23.389  0.00  0.00    +0.000 A 
ATOM      4  C   UNL     1      -1.279  14.330  23.355  0.00  0.00    +0.000 A 
ATOM      5  C   UNL     1      -0.237  14.609  22.473  0.00  0.00    +0.000 A 
ATOM      6  C   UNL     1       0.262  13.626  21.594  0.00  0.00    +0.000 A 
ENDROOT
BRANCH   1  12
ATOM      7  C   UNL     1       0.572   9.673  19.161  0.00  0.00    +0.000 C 
ATOM      8  C   UNL     1       1.161   9.166  20.430  0.00  0.00    +0.000 C 
ATOM      9  O   UNL     1       1.696   8.092  20.619  0.00  0.00    +0.000 OA
ATOM     10  C   UNL     1       0.887  10.185  21.509  0.00  0.00    +0.000 C 
ATOM     11  O   UNL     1       1.157   9.994  22.679  0.00  0.00    +0.000 OA
ATOM     12  N   UNL     1       0.227  11.224  20.903  0.00  0.00    +0.000 N 
ATOM     13  C   UNL     1       0.000  11.003  19.556  0.00  0.00    +0.000 C 
ATOM     14  O   UNL     1      -0.583  11.733  18.764  0.00  0.00    +0.000 OA
BRANCH   7  16
ATOM     15  C   UNL     1       2.349  11.057  17.950  0.00  0.00    +0.000 C 
ATOM     16  C   UNL     1       1.566   9.773  18.048  0.00  0.00    +0.000 C 
ATOM     17  O   UNL     1       1.777   8.831  17.285  0.00  0.00    +0.000 OA
ENDBRANCH   7  16
ENDBRANCH   1  12
BRANCH   6  18
ATOM     18  N   UNL     1       1.209  14.058  20.624  0.00  0.00    +0.000 N 
ATOM     19  C   UNL     1       2.564  13.943  20.802  0.00  0.00    +0.000 C 
ATOM     20  O   UNL     1       3.205  13.364  21.655  0.00  0.00    +0.000 OA
ATOM     21  C   UNL     1       3.206  14.682  19.648  0.00  0.00    +0.000 C 
ATOM     22  O   UNL     1       4.402  14.772  19.456  0.00  0.00    +0.000 OA
ATOM     23  C   UNL     1       2.125  15.302  18.842  0.00  0.00    +0.000 C 
ATOM     24  C   UNL     1       0.872  14.760  19.479  0.00  0.00    +0.000 C 
ATOM     25  O   UNL     1      -0.249  14.962  19.031  0.00  0.00    +0.000 OA
BRANCH  23  26
ATOM     26  C   UNL     1       2.187  16.801  18.940  0.00  0.00    +0.000 C 
ATOM     27  C   UNL     1       1.891  17.448  20.267  0.00  0.00    +0.000 C 
ATOM     28  O   UNL     1       2.461  17.480  17.949  0.00  0.00    +0.000 OA
ENDBRANCH  23  26
ENDBRANCH   6  18
TORSDOF 4
ENDMDL
MODEL 6
REMARK VINA RESULT:      -6.5      8.937     11.298
REMARK  Name = 
REMARK  6 active torsions:
REMARK  status: ('A' for Active; 'I' for Inactive)
REMARK    1  A    between atoms: C_1  and  C_2
REMARK    2  A    between atoms: C_2  and  C_4
REMARK    3  A    between atoms: N_9  and  C_10
REMARK    4  A    between atoms: C_15  and  N_16
REMARK    5  A    between atoms: C_21  and  C_22
REMARK    6  A    between atoms: C_22  and  C_23
REMARK                            x       y       z     vdW  Elec       q    Type
REMARK                         _______ _______ _______ _____ _____    ______ ____
ROOT
ATOM      1  C   UNL     1      -1.650  15.570  20.489  0.00  0.00    +0.000 A 
ATOM      2  C   UNL     1      -1.974  16.865  20.041  0.00  0.00    +0.000 A 
ATOM      3  C   UNL     1      -1.301  17.455  18.972  0.00  0.00    +0.000 A 
ATOM      4  C   UNL     1      -0.290  16.760  18.325  0.00  0.00    +0.000 A 
ATOM      5  C   UNL     1       0.053  15.478  18.752  0.00  0.00    +0.000 A 
ATOM      6  C   UNL     1      -0.620  14.859  19.826  0.00  0.00    +0.000 A 
ENDROOT
BRANCH   1  12
ATOM      7  C   UNL     1      -3.875  14.103  23.096  0.00  0.00    +0.000 C 
ATOM      8  C   UNL     1      -2.944  14.956  23.882  0.00  0.00    +0.000 C 
ATOM      9  O   UNL     1      -2.985  15.191  25.073  0.00  0.00    +0.000 OA
ATOM     10  C   UNL     1      -1.969  15.588  22.920  0.00  0.00    +0.000 C 
ATOM     11  O   UNL     1      -1.153  16.423  23.263  0.00  0.00    +0.000 OA
ATOM     12  N   UNL     1      -2.284  15.106  21.676  0.00  0.00    +0.000 N 
ATOM     13  C   UNL     1      -3.373  14.253  21.690  0.00  0.00    +0.000 C 
ATOM     14  O   UNL     1      -3.899  13.693  20.736  0.00  0.00    +0.000 OA
BRANCH   7  16
ATOM     15  C   UNL     1      -2.632  11.888  23.394  0.00  0.00    +0.000 C 
ATOM     16  C   UNL     1      -3.904  12.680  23.556  0.00  0.00    +0.000 C 
ATOM     17  O   UNL     1      -4.900  12.196  24.094  0.00  0.00    +0.000 OA
ENDBRANCH   7  16
ENDBRANCH   1  12
BRANCH   6  18
ATOM     18  N   UNL     1      -0.307  13.494  20.073  0.00  0.00    +0.000 N 
ATOM     19  C   UNL     1       0.451  13.085  21.141  0.00  0.00    +0.000 C 
ATOM     20  O   UNL     1       0.851  13.697  22.111  0.00  0.00    +0.000 OA
ATOM     21  C   UNL     1       0.707  11.607  20.936  0.00  0.00    +0.000 C 
ATOM     22  O   UNL     1       1.325  10.893  21.701  0.00  0.00    +0.000 OA
ATOM     23  C   UNL     1       0.117  11.216  19.632  0.00  0.00    +0.000 C 
ATOM     24  C   UNL     1      -0.607  12.464  19.198  0.00  0.00    +0.000 C 
ATOM     25  O   UNL     1      -1.315  12.516  18.200  0.00  0.00    +0.000 OA
BRANCH  23  26
ATOM     26  C   UNL     1       1.196  10.839  18.656  0.00  0.00    +0.000 C 
ATOM     27  C   UNL     1       1.186   9.452  18.072  0.00  0.00    +0.000 C 
ATOM     28  O   UNL     1       2.076  11.649  18.356  0.00  0.00    +0.000 OA
ENDBRANCH  23  26
ENDBRANCH   6  18
TORSDOF 4
ENDMDL
MODEL 7
REMARK VINA RESULT:      -6.4      8.410     11.671
REMARK  Name = 
REMARK  6 active torsions:
REMARK  status: ('A' for Active; 'I' for Inactive)
REMARK    1  A    between atoms: C_1  and  C_2
REMARK    2  A    between atoms: C_2  and  C_4
REMARK    3  A    between atoms: N_9  and  C_10
REMARK    4  A    between atoms: C_15  and  N_16
REMARK    5  A    between atoms: C_21  and  C_22
REMARK    6  A    between atoms: C_22  and  C_23
REMARK                            x       y       z     vdW  Elec       q    Type
REMARK                         _______ _______ _______ _____ _____    ______ ____
ROOT
ATOM      1  C   UNL     1      -0.374  14.108  19.596  0.00  0.00    +0.000 A 
ATOM      2  C   UNL     1       0.337  14.927  18.698  0.00  0.00    +0.000 A 
ATOM      3  C   UNL     1       0.103  16.300  18.624  0.00  0.00    +0.000 A 
ATOM      4  C   UNL     1      -0.844  16.883  19.452  0.00  0.00    +0.000 A 
ATOM      5  C   UNL     1      -1.564  16.094  20.347  0.00  0.00    +0.000 A 
ATOM      6  C   UNL     1      -1.339  14.706  20.444  0.00  0.00    +0.000 A 
ENDROOT
BRANCH   1  12
ATOM      7  C   UNL     1       0.784  10.569  19.786  0.00  0.00    +0.000 C 
ATOM      8  C   UNL     1      -0.213  10.543  18.683  0.00  0.00    +0.000 C 
ATOM      9  O   UNL     1      -0.488   9.609  17.957  0.00  0.00    +0.000 OA
ATOM     10  C   UNL     1      -0.774  11.936  18.531  0.00  0.00    +0.000 C 
ATOM     11  O   UNL     1      -1.536  12.245  17.635  0.00  0.00    +0.000 OA
ATOM     12  N   UNL     1      -0.179  12.701  19.501  0.00  0.00    +0.000 N 
ATOM     13  C   UNL     1       0.736  11.992  20.259  0.00  0.00    +0.000 C 
ATOM     14  O   UNL     1       1.437  12.410  21.173  0.00  0.00    +0.000 OA
BRANCH   7  16
ATOM     15  C   UNL     1       1.397   8.384  20.965  0.00  0.00    +0.000 C 
ATOM     16  C   UNL     1       0.489   9.584  20.872  0.00  0.00    +0.000 C 
ATOM     17  O   UNL     1      -0.414   9.772  21.686  0.00  0.00    +0.000 OA
ENDBRANCH   7  16
ENDBRANCH   1  12
BRANCH   6  18
ATOM     18  N   UNL     1      -2.005  14.023  21.500  0.00  0.00    +0.000 N 
ATOM     19  C   UNL     1      -3.224  13.414  21.341  0.00  0.00    +0.000 C 
ATOM     20  O   UNL     1      -3.875  13.191  20.341  0.00  0.00    +0.000 OA
ATOM     21  C   UNL     1      -3.663  12.981  22.723  0.00  0.00    +0.000 C 
ATOM     22  O   UNL     1      -4.688  12.380  22.974  0.00  0.00    +0.000 OA
ATOM     23  C   UNL     1      -2.651  13.461  23.697  0.00  0.00    +0.000 C 
ATOM     24  C   UNL     1      -1.569  14.025  22.813  0.00  0.00    +0.000 C 
ATOM     25  O   UNL     1      -0.498  14.436  23.243  0.00  0.00    +0.000 OA
BRANCH  23  26
ATOM     26  C   UNL     1      -3.238  14.519  24.589  0.00  0.00    +0.000 C 
ATOM     27  C   UNL     1      -4.060  15.614  23.963  0.00  0.00    +0.000 C 
ATOM     28  O   UNL     1      -3.034  14.494  25.805  0.00  0.00    +0.000 OA
ENDBRANCH  23  26
ENDBRANCH   6  18
TORSDOF 4
ENDMDL
MODEL 8
REMARK VINA RESULT:      -6.4      7.778     10.362
REMARK  Name = 
REMARK  6 active torsions:
REMARK  status: ('A' for Active; 'I' for Inactive)
REMARK    1  A    between atoms: C_1  and  C_2
REMARK    2  A    between atoms: C_2  and  C_4
REMARK    3  A    between atoms: N_9  and  C_10
REMARK    4  A    between atoms: C_15  and  N_16
REMARK    5  A    between atoms: C_21  and  C_22
REMARK    6  A    between atoms: C_22  and  C_23
REMARK                            x       y       z     vdW  Elec       q    Type
REMARK                         _______ _______ _______ _____ _____    ______ ____
ROOT
ATOM      1  C   UNL     1      -0.728  13.190  22.061  0.00  0.00    +0.000 A 
ATOM      2  C   UNL     1      -1.641  13.226  23.132  0.00  0.00    +0.000 A 
ATOM      3  C   UNL     1      -1.720  14.327  23.985  0.00  0.00    +0.000 A 
ATOM      4  C   UNL     1      -0.889  15.418  23.780  0.00  0.00    +0.000 A 
ATOM      5  C   UNL     1       0.026  15.406  22.729  0.00  0.00    +0.000 A 
ATOM      6  C   UNL     1       0.118  14.308  21.850  0.00  0.00    +0.000 A 
ENDROOT
BRANCH   1  12
ATOM      7  C   UNL     1      -0.970  10.328  19.684  0.00  0.00    +0.000 C 
ATOM      8  C   UNL     1      -0.268   9.740  20.856  0.00  0.00    +0.000 C 
ATOM      9  O   UNL     1       0.044   8.578  21.024  0.00  0.00    +0.000 OA
ATOM     10  C   UNL     1      -0.090  10.829  21.885  0.00  0.00    +0.000 C 
ATOM     11  O   UNL     1       0.359  10.619  22.996  0.00  0.00    +0.000 OA
ATOM     12  N   UNL     1      -0.611  11.972  21.335  0.00  0.00    +0.000 N 
ATOM     13  C   UNL     1      -1.145  11.766  20.075  0.00  0.00    +0.000 C 
ATOM     14  O   UNL     1      -1.698  12.586  19.352  0.00  0.00    +0.000 OA
BRANCH   7  16
ATOM     15  C   UNL     1       1.258  10.452  18.435  0.00  0.00    +0.000 C 
ATOM     16  C   UNL     1      -0.220  10.159  18.401  0.00  0.00    +0.000 C 
ATOM     17  O   UNL     1      -0.771   9.745  17.381  0.00  0.00    +0.000 OA
ENDBRANCH   7  16
ENDBRANCH   1  12
BRANCH   6  18
ATOM     18  N   UNL     1       0.964  14.465  20.717  0.00  0.00    +0.000 N 
ATOM     19  C   UNL     1       2.262  14.022  20.689  0.00  0.00    +0.000 C 
ATOM     20  O   UNL     1       2.879  13.324  21.468  0.00  0.00    +0.000 OA
ATOM     21  C   UNL     1       2.859  14.547  19.402  0.00  0.00    +0.000 C 
ATOM     22  O   UNL     1       3.992  14.332  19.020  0.00  0.00    +0.000 OA
ATOM     23  C   UNL     1       1.840  15.394  18.735  0.00  0.00    +0.000 C 
ATOM     24  C   UNL     1       0.618  15.197  19.594  0.00  0.00    +0.000 C 
ATOM     25  O   UNL     1      -0.480  15.660  19.315  0.00  0.00    +0.000 OA
BRANCH  23  26
ATOM     26  C   UNL     1       2.276  16.833  18.721  0.00  0.00    +0.000 C 
ATOM     27  C   UNL     1       2.335  17.579  20.027  0.00  0.00    +0.000 C 
ATOM     28  O   UNL     1       2.563  17.387  17.658  0.00  0.00    +0.000 OA
ENDBRANCH  23  26
ENDBRANCH   6  18
TORSDOF 4
ENDMDL
MODEL 9
REMARK VINA RESULT:      -6.3      7.646     10.811
REMARK  Name = 
REMARK  6 active torsions:
REMARK  status: ('A' for Active; 'I' for Inactive)
REMARK    1  A    between atoms: C_1  and  C_2
REMARK    2  A    between atoms: C_2  and  C_4
REMARK    3  A    between atoms: N_9  and  C_10
REMARK    4  A    between atoms: C_15  and  N_16
REMARK    5  A    between atoms: C_21  and  C_22
REMARK    6  A    between atoms: C_22  and  C_23
REMARK                            x       y       z     vdW  Elec       q    Type
REMARK                         _______ _______ _______ _____ _____    ______ ____
ROOT
ATOM      1  C   UNL     1      -1.504  14.138  20.871  0.00  0.00    +0.000 A 
ATOM      2  C   UNL     1      -2.353  15.228  21.143  0.00  0.00    +0.000 A 
ATOM      3  C   UNL     1      -3.722  15.052  21.344  0.00  0.00    +0.000 A 
ATOM      4  C   UNL     1      -4.270  13.780  21.282  0.00  0.00    +0.000 A 
ATOM      5  C   UNL     1      -3.452  12.685  21.009  0.00  0.00    +0.000 A 
ATOM      6  C   UNL     1      -2.065  12.837  20.810  0.00  0.00    +0.000 A 
ENDROOT
BRANCH   1  12
ATOM      7  C   UNL     1       1.830  14.602  19.269  0.00  0.00    +0.000 C 
ATOM      8  C   UNL     1       2.128  14.730  20.721  0.00  0.00    +0.000 C 
ATOM      9  O   UNL     1       3.218  14.846  21.245  0.00  0.00    +0.000 OA
ATOM     10  C   UNL     1       0.830  14.583  21.476  0.00  0.00    +0.000 C 
ATOM     11  O   UNL     1       0.776  14.536  22.691  0.00  0.00    +0.000 OA
ATOM     12  N   UNL     1      -0.152  14.424  20.532  0.00  0.00    +0.000 N 
ATOM     13  C   UNL     1       0.342  14.414  19.239  0.00  0.00    +0.000 C 
ATOM     14  O   UNL     1      -0.286  14.266  18.198  0.00  0.00    +0.000 OA
BRANCH   7  16
ATOM     15  C   UNL     1       3.377  15.530  17.457  0.00  0.00    +0.000 C 
ATOM     16  C   UNL     1       2.286  15.778  18.467  0.00  0.00    +0.000 C 
ATOM     17  O   UNL     1       1.757  16.883  18.584  0.00  0.00    +0.000 OA
ENDBRANCH   7  16
ENDBRANCH   1  12
BRANCH   6  18
ATOM     18  N   UNL     1      -1.299  11.643  20.704  0.00  0.00    +0.000 N 
ATOM     19  C   UNL     1      -0.522  11.164  21.728  0.00  0.00    +0.000 C 
ATOM     20  O   UNL     1      -0.438  11.508  22.889  0.00  0.00    +0.000 OA
ATOM     21  C   UNL     1       0.263  10.004  21.154  0.00  0.00    +0.000 C 
ATOM     22  O   UNL     1       1.042   9.311  21.778  0.00  0.00    +0.000 OA
ATOM     23  C   UNL     1      -0.054   9.906  19.708  0.00  0.00    +0.000 C 
ATOM     24  C   UNL     1      -1.147  10.928  19.529  0.00  0.00    +0.000 C 
ATOM     25  O   UNL     1      -1.754  11.083  18.477  0.00  0.00    +0.000 OA
BRANCH  23  26
ATOM     26  C   UNL     1       1.154  10.243  18.879  0.00  0.00    +0.000 C 
ATOM     27  C   UNL     1       1.681   9.207  17.922  0.00  0.00    +0.000 C 
ATOM     28  O   UNL     1       1.704  11.340  18.995  0.00  0.00    +0.000 OA
ENDBRANCH  23  26
ENDBRANCH   6  18
TORSDOF 4
ENDMDL
