MODEL 1
REMARK VINA RESULT:      -7.2      0.000      0.000
REMARK  Name = 
REMARK  8 active torsions:
REMARK  status: ('A' for Active; 'I' for Inactive)
REMARK    1  A    between atoms: C_1  and  C_2
REMARK    2  A    between atoms: C_2  and  C_3
REMARK    3  A    between atoms: C_3  and  C_4
REMARK    4  A    between atoms: C_4  and  C_5
REMARK    5  A    between atoms: C_5  and  C_6
REMARK    6  A    between atoms: C_9  and  C_10
REMARK    7  A    between atoms: C_21  and  O_22
REMARK    8  A    between atoms: O_22  and  C_23
REMARK                            x       y       z     vdW  Elec       q    Type
REMARK                         _______ _______ _______ _____ _____    ______ ____
ROOT
ATOM      1  C   UNL     1       3.410   5.680  18.053  0.00  0.00    +0.000 A 
ATOM      2  C   UNL     1       2.602   6.355  18.995  0.00  0.00    +0.000 A 
ATOM      3  C   UNL     1       1.939   5.650  20.022  0.00  0.00    +0.000 A 
ATOM      4  C   UNL     1       2.046   4.257  20.138  0.00  0.00    +0.000 A 
ATOM      5  C   UNL     1       1.354   3.477  21.217  0.00  0.00    +0.000 C 
ATOM      6  C   UNL     1       2.845   3.604  19.205  0.00  0.00    +0.000 A 
ATOM      7  C   UNL     1       3.522   4.297  18.214  0.00  0.00    +0.000 A 
ATOM      8  C   UNL     1       4.324   3.321  17.464  0.00  0.00    +0.000 C 
ATOM      9  O   UNL     1       5.128   3.540  16.581  0.00  0.00    +0.000 OA
ATOM     10  O   UNL     1       4.033   2.086  17.969  0.00  0.00    +0.000 OA
ATOM     11  C   UNL     1       3.117   2.157  19.072  0.00  0.00    +0.000 C 
ATOM     12  O   UNL     1       1.158   6.295  20.953  0.00  0.00    +0.000 OA
ATOM     13  C   UNL     1       1.071   7.654  20.838  0.00  0.00    +0.000 A 
ATOM     14  C   UNL     1       0.304   8.328  21.787  0.00  0.00    +0.000 A 
ATOM     15  C   UNL     1       0.177   9.718  21.722  0.00  0.00    +0.000 A 
ATOM     16  C   UNL     1       0.818  10.431  20.707  0.00  0.00    +0.000 A 
ATOM     17  C   UNL     1       1.585   9.743  19.760  0.00  0.00    +0.000 A 
ATOM     18  C   UNL     1       1.713   8.354  19.827  0.00  0.00    +0.000 A 
ATOM     19  O   UNL     1       2.477   7.725  18.877  0.00  0.00    +0.000 OA
ENDROOT
BRANCH  16  20
ATOM     20  O   UNL     1       0.771  11.789  20.536  0.00  0.00    +0.000 OA
ATOM     21  C   UNL     1       0.893  12.274  19.203  0.00  0.00    +0.000 C 
ENDBRANCH  16  20
BRANCH   1  22
ATOM     22  C   UNL     1       4.088   6.411  16.917  0.00  0.00    +0.000 C 
BRANCH  22  23
ATOM     23  C   UNL     1       5.381   7.143  17.310  0.00  0.00    +0.000 C 
BRANCH  23  24
ATOM     24  C   UNL     1       6.653   6.376  16.947  0.00  0.00    +0.000 C 
BRANCH  24  26
ATOM     25  C   UNL     1       6.893   5.502  19.291  0.00  0.00    +0.000 C 
ATOM     26  C   UNL     1       7.577   6.248  18.158  0.00  0.00    +0.000 C 
ENDBRANCH  24  26
ENDBRANCH  23  24
ENDBRANCH  22  23
ENDBRANCH   1  22
TORSDOF 5
ENDMDL
MODEL 2
REMARK VINA RESULT:      -7.2      1.531      3.971
REMARK  Name = 
REMARK  8 active torsions:
REMARK  status: ('A' for Active; 'I' for Inactive)
REMARK    1  A    between atoms: C_1  and  C_2
REMARK    2  A    between atoms: C_2  and  C_3
REMARK    3  A    between atoms: C_3  and  C_4
REMARK    4  A    between atoms: C_4  and  C_5
REMARK    5  A    between atoms: C_5  and  C_6
REMARK    6  A    between atoms: C_9  and  C_10
REMARK    7  A    between atoms: C_21  and  O_22
REMARK    8  A    between atoms: O_22  and  C_23
REMARK                            x       y       z     vdW  Elec       q    Type
REMARK                         _______ _______ _______ _____ _____    ______ ____
ROOT
ATOM      1  C   UNL     1       3.076   5.335  20.051  0.00  0.00    +0.000 A 
ATOM      2  C   UNL     1       2.658   6.601  19.585  0.00  0.00    +0.000 A 
ATOM      3  C   UNL     1       3.198   7.155  18.403  0.00  0.00    +0.000 A 
ATOM      4  C   UNL     1       4.173   6.477  17.658  0.00  0.00    +0.000 A 
ATOM      5  C   UNL     1       4.767   7.037  16.399  0.00  0.00    +0.000 C 
ATOM      6  C   UNL     1       4.574   5.230  18.127  0.00  0.00    +0.000 A 
ATOM      7  C   UNL     1       4.025   4.670  19.270  0.00  0.00    +0.000 A 
ATOM      8  C   UNL     1       4.609   3.332  19.430  0.00  0.00    +0.000 C 
ATOM      9  O   UNL     1       4.319   2.487  20.251  0.00  0.00    +0.000 OA
ATOM     10  O   UNL     1       5.540   3.178  18.441  0.00  0.00    +0.000 OA
ATOM     11  C   UNL     1       5.589   4.314  17.566  0.00  0.00    +0.000 C 
ATOM     12  O   UNL     1       2.793   8.382  17.931  0.00  0.00    +0.000 OA
ATOM     13  C   UNL     1       1.833   9.028  18.659  0.00  0.00    +0.000 A 
ATOM     14  C   UNL     1       1.393  10.262  18.182  0.00  0.00    +0.000 A 
ATOM     15  C   UNL     1       0.413  10.970  18.883  0.00  0.00    +0.000 A 
ATOM     16  C   UNL     1      -0.124  10.443  20.058  0.00  0.00    +0.000 A 
ATOM     17  C   UNL     1       0.327   9.204  20.526  0.00  0.00    +0.000 A 
ATOM     18  C   UNL     1       1.304   8.495  19.825  0.00  0.00    +0.000 A 
ATOM     19  O   UNL     1       1.712   7.283  20.322  0.00  0.00    +0.000 OA
ENDROOT
BRANCH  16  20
ATOM     20  O   UNL     1      -1.085  11.038  20.832  0.00  0.00    +0.000 OA
ATOM     21  C   UNL     1      -0.758  11.272  22.198  0.00  0.00    +0.000 C 
ENDBRANCH  16  20
BRANCH   1  22
ATOM     22  C   UNL     1       2.547   4.747  21.339  0.00  0.00    +0.000 C 
BRANCH  22  23
ATOM     23  C   UNL     1       1.518   3.621  21.153  0.00  0.00    +0.000 C 
BRANCH  23  24
ATOM     24  C   UNL     1       0.731   3.721  19.846  0.00  0.00    +0.000 C 
BRANCH  24  26
ATOM     25  C   UNL     1       1.718   2.496  17.887  0.00  0.00    +0.000 C 
ATOM     26  C   UNL     1       0.778   2.401  19.077  0.00  0.00    +0.000 C 
ENDBRANCH  24  26
ENDBRANCH  23  24
ENDBRANCH  22  23
ENDBRANCH   1  22
TORSDOF 5
ENDMDL
MODEL 3
REMARK VINA RESULT:      -6.9      1.129      1.398
REMARK  Name = 
REMARK  8 active torsions:
REMARK  status: ('A' for Active; 'I' for Inactive)
REMARK    1  A    between atoms: C_1  and  C_2
REMARK    2  A    between atoms: C_2  and  C_3
REMARK    3  A    between atoms: C_3  and  C_4
REMARK    4  A    between atoms: C_4  and  C_5
REMARK    5  A    between atoms: C_5  and  C_6
REMARK    6  A    between atoms: C_9  and  C_10
REMARK    7  A    between atoms: C_21  and  O_22
REMARK    8  A    between atoms: O_22  and  C_23
REMARK                            x       y       z     vdW  Elec       q    Type
REMARK                         _______ _______ _______ _____ _____    ______ ____
ROOT
ATOM      1  C   UNL     1       3.825   5.969  17.649  0.00  0.00    +0.000 A 
ATOM      2  C   UNL     1       2.987   6.853  18.364  0.00  0.00    +0.000 A 
ATOM      3  C   UNL     1       2.266   6.415  19.496  0.00  0.00    +0.000 A 
ATOM      4  C   UNL     1       2.344   5.089  19.944  0.00  0.00    +0.000 A 
ATOM      5  C   UNL     1       1.591   4.591  21.143  0.00  0.00    +0.000 C 
ATOM      6  C   UNL     1       3.175   4.229  19.233  0.00  0.00    +0.000 A 
ATOM      7  C   UNL     1       3.908   4.663  18.139  0.00  0.00    +0.000 A 
ATOM      8  C   UNL     1       4.728   3.533  17.682  0.00  0.00    +0.000 C 
ATOM      9  O   UNL     1       5.574   3.532  16.812  0.00  0.00    +0.000 OA
ATOM     10  O   UNL     1       4.393   2.455  18.451  0.00  0.00    +0.000 OA
ATOM     11  C   UNL     1       3.429   2.791  19.460  0.00  0.00    +0.000 C 
ATOM     12  O   UNL     1       1.454   7.267  20.208  0.00  0.00    +0.000 OA
ATOM     13  C   UNL     1       1.394   8.560  19.770  0.00  0.00    +0.000 A 
ATOM     14  C   UNL     1       0.595   9.444  20.494  0.00  0.00    +0.000 A 
ATOM     15  C   UNL     1       0.494  10.779  20.095  0.00  0.00    +0.000 A 
ATOM     16  C   UNL     1       1.192  11.228  18.971  0.00  0.00    +0.000 A 
ATOM     17  C   UNL     1       1.990  10.330  18.253  0.00  0.00    +0.000 A 
ATOM     18  C   UNL     1       2.093   8.997  18.654  0.00  0.00    +0.000 A 
ATOM     19  O   UNL     1       2.889   8.156  17.918  0.00  0.00    +0.000 OA
ENDROOT
BRANCH  16  20
ATOM     20  O   UNL     1       1.175  12.506  18.480  0.00  0.00    +0.000 OA
ATOM     21  C   UNL     1       2.433  13.088  18.156  0.00  0.00    +0.000 C 
ENDBRANCH  16  20
BRANCH   1  22
ATOM     22  C   UNL     1       4.567   6.405  16.407  0.00  0.00    +0.000 C 
BRANCH  22  23
ATOM     23  C   UNL     1       5.812   7.265  16.674  0.00  0.00    +0.000 C 
BRANCH  23  24
ATOM     24  C   UNL     1       7.056   6.448  17.026  0.00  0.00    +0.000 C 
BRANCH  24  26
ATOM     25  C   UNL     1       8.109   8.552  17.910  0.00  0.00    +0.000 C 
ATOM     26  C   UNL     1       7.818   7.086  18.187  0.00  0.00    +0.000 C 
ENDBRANCH  24  26
ENDBRANCH  23  24
ENDBRANCH  22  23
ENDBRANCH   1  22
TORSDOF 5
ENDMDL
MODEL 4
REMARK VINA RESULT:      -6.9      1.576      3.970
REMARK  Name = 
REMARK  8 active torsions:
REMARK  status: ('A' for Active; 'I' for Inactive)
REMARK    1  A    between atoms: C_1  and  C_2
REMARK    2  A    between atoms: C_2  and  C_3
REMARK    3  A    between atoms: C_3  and  C_4
REMARK    4  A    between atoms: C_4  and  C_5
REMARK    5  A    between atoms: C_5  and  C_6
REMARK    6  A    between atoms: C_9  and  C_10
REMARK    7  A    between atoms: C_21  and  O_22
REMARK    8  A    between atoms: O_22  and  C_23
REMARK                            x       y       z     vdW  Elec       q    Type
REMARK                         _______ _______ _______ _____ _____    ______ ____
ROOT
ATOM      1  C   UNL     1       2.922   5.135  20.271  0.00  0.00    +0.000 A 
ATOM      2  C   UNL     1       2.401   6.439  20.123  0.00  0.00    +0.000 A 
ATOM      3  C   UNL     1       2.704   7.218  18.986  0.00  0.00    +0.000 A 
ATOM      4  C   UNL     1       3.541   6.734  17.971  0.00  0.00    +0.000 A 
ATOM      5  C   UNL     1       3.884   7.536  16.750  0.00  0.00    +0.000 C 
ATOM      6  C   UNL     1       4.047   5.448  18.128  0.00  0.00    +0.000 A 
ATOM      7  C   UNL     1       3.727   4.668  19.229  0.00  0.00    +0.000 A 
ATOM      8  C   UNL     1       4.359   3.356  19.038  0.00  0.00    +0.000 C 
ATOM      9  O   UNL     1       4.240   2.366  19.730  0.00  0.00    +0.000 OA
ATOM     10  O   UNL     1       5.096   3.426  17.890  0.00  0.00    +0.000 OA
ATOM     11  C   UNL     1       4.962   4.699  17.241  0.00  0.00    +0.000 C 
ATOM     12  O   UNL     1       2.195   8.485  18.822  0.00  0.00    +0.000 OA
ATOM     13  C   UNL     1       1.370   8.942  19.812  0.00  0.00    +0.000 A 
ATOM     14  C   UNL     1       0.825  10.216  19.652  0.00  0.00    +0.000 A 
ATOM     15  C   UNL     1      -0.026  10.738  20.630  0.00  0.00    +0.000 A 
ATOM     16  C   UNL     1      -0.329   9.986  21.766  0.00  0.00    +0.000 A 
ATOM     17  C   UNL     1       0.226   8.709  21.915  0.00  0.00    +0.000 A 
ATOM     18  C   UNL     1       1.073   8.187  20.937  0.00  0.00    +0.000 A 
ATOM     19  O   UNL     1       1.590   6.930  21.127  0.00  0.00    +0.000 OA
ENDROOT
BRANCH  16  20
ATOM     20  O   UNL     1      -1.145  10.384  22.791  0.00  0.00    +0.000 OA
ATOM     21  C   UNL     1      -1.526  11.756  22.815  0.00  0.00    +0.000 C 
ENDBRANCH  16  20
BRANCH   1  22
ATOM     22  C   UNL     1       2.649   4.304  21.504  0.00  0.00    +0.000 C 
BRANCH  22  23
ATOM     23  C   UNL     1       1.630   3.172  21.299  0.00  0.00    +0.000 C 
BRANCH  23  24
ATOM     24  C   UNL     1       0.562   3.492  20.252  0.00  0.00    +0.000 C 
BRANCH  24  26
ATOM     25  C   UNL     1       1.009   3.361  17.783  0.00  0.00    +0.000 C 
ATOM     26  C   UNL     1       0.692   2.569  19.040  0.00  0.00    +0.000 C 
ENDBRANCH  24  26
ENDBRANCH  23  24
ENDBRANCH  22  23
ENDBRANCH   1  22
TORSDOF 5
ENDMDL
MODEL 5
REMARK VINA RESULT:      -6.5      0.903      1.319
REMARK  Name = 
REMARK  8 active torsions:
REMARK  status: ('A' for Active; 'I' for Inactive)
REMARK    1  A    between atoms: C_1  and  C_2
REMARK    2  A    between atoms: C_2  and  C_3
REMARK    3  A    between atoms: C_3  and  C_4
REMARK    4  A    between atoms: C_4  and  C_5
REMARK    5  A    between atoms: C_5  and  C_6
REMARK    6  A    between atoms: C_9  and  C_10
REMARK    7  A    between atoms: C_21  and  O_22
REMARK    8  A    between atoms: O_22  and  C_23
REMARK                            x       y       z     vdW  Elec       q    Type
REMARK                         _______ _______ _______ _____ _____    ______ ____
ROOT
ATOM      1  C   UNL     1       3.314   5.513  18.161  0.00  0.00    +0.000 A 
ATOM      2  C   UNL     1       2.542   6.242  19.093  0.00  0.00    +0.000 A 
ATOM      3  C   UNL     1       1.894   5.591  20.165  0.00  0.00    +0.000 A 
ATOM      4  C   UNL     1       1.980   4.202  20.336  0.00  0.00    +0.000 A 
ATOM      5  C   UNL     1       1.303   3.480  21.464  0.00  0.00    +0.000 C 
ATOM      6  C   UNL     1       2.745   3.497  19.413  0.00  0.00    +0.000 A 
ATOM      7  C   UNL     1       3.408   4.137  18.377  0.00  0.00    +0.000 A 
ATOM      8  C   UNL     1       4.174   3.116  17.648  0.00  0.00    +0.000 C 
ATOM      9  O   UNL     1       4.959   3.285  16.738  0.00  0.00    +0.000 OA
ATOM     10  O   UNL     1       3.875   1.909  18.212  0.00  0.00    +0.000 OA
ATOM     11  C   UNL     1       2.989   2.041  19.333  0.00  0.00    +0.000 C 
ATOM     12  O   UNL     1       1.148   6.288  21.087  0.00  0.00    +0.000 OA
ATOM     13  C   UNL     1       1.081   7.642  20.917  0.00  0.00    +0.000 A 
ATOM     14  C   UNL     1       0.349   8.368  21.856  0.00  0.00    +0.000 A 
ATOM     15  C   UNL     1       0.244   9.757  21.736  0.00  0.00    +0.000 A 
ATOM     16  C   UNL     1       0.870  10.416  20.676  0.00  0.00    +0.000 A 
ATOM     17  C   UNL     1       1.601   9.675  19.740  0.00  0.00    +0.000 A 
ATOM     18  C   UNL     1       1.708   8.289  19.862  0.00  0.00    +0.000 A 
ATOM     19  O   UNL     1       2.437   7.607  18.921  0.00  0.00    +0.000 OA
ENDROOT
BRANCH  16  20
ATOM     20  O   UNL     1       0.841  11.766  20.449  0.00  0.00    +0.000 OA
ATOM     21  C   UNL     1       0.095  12.558  21.368  0.00  0.00    +0.000 C 
ENDBRANCH  16  20
BRANCH   1  22
ATOM     22  C   UNL     1       3.976   6.184  16.979  0.00  0.00    +0.000 C 
BRANCH  22  23
ATOM     23  C   UNL     1       5.371   6.758  17.269  0.00  0.00    +0.000 C 
BRANCH  23  24
ATOM     24  C   UNL     1       6.458   6.231  16.331  0.00  0.00    +0.000 C 
BRANCH  24  26
ATOM     25  C   UNL     1       6.816   4.770  14.318  0.00  0.00    +0.000 C 
ATOM     26  C   UNL     1       5.849   5.698  15.034  0.00  0.00    +0.000 C 
ENDBRANCH  24  26
ENDBRANCH  23  24
ENDBRANCH  22  23
ENDBRANCH   1  22
TORSDOF 5
ENDMDL
MODEL 6
REMARK VINA RESULT:      -6.5      2.698      7.975
REMARK  Name = 
REMARK  8 active torsions:
REMARK  status: ('A' for Active; 'I' for Inactive)
REMARK    1  A    between atoms: C_1  and  C_2
REMARK    2  A    between atoms: C_2  and  C_3
REMARK    3  A    between atoms: C_3  and  C_4
REMARK    4  A    between atoms: C_4  and  C_5
REMARK    5  A    between atoms: C_5  and  C_6
REMARK    6  A    between atoms: C_9  and  C_10
REMARK    7  A    between atoms: C_21  and  O_22
REMARK    8  A    between atoms: O_22  and  C_23
REMARK                            x       y       z     vdW  Elec       q    Type
REMARK                         _______ _______ _______ _____ _____    ______ ____
ROOT
ATOM      1  C   UNL     1      -0.416  11.294  19.770  0.00  0.00    +0.000 A 
ATOM      2  C   UNL     1       0.344  10.116  19.943  0.00  0.00    +0.000 A 
ATOM      3  C   UNL     1       0.411   9.472  21.198  0.00  0.00    +0.000 A 
ATOM      4  C   UNL     1      -0.259   9.983  22.318  0.00  0.00    +0.000 A 
ATOM      5  C   UNL     1      -0.208   9.325  23.665  0.00  0.00    +0.000 C 
ATOM      6  C   UNL     1      -1.005  11.143  22.134  0.00  0.00    +0.000 A 
ATOM      7  C   UNL     1      -1.099  11.761  20.896  0.00  0.00    +0.000 A 
ATOM      8  C   UNL     1      -2.017  12.898  21.039  0.00  0.00    +0.000 C 
ATOM      9  O   UNL     1      -2.435  13.631  20.167  0.00  0.00    +0.000 OA
ATOM     10  O   UNL     1      -2.365  12.972  22.358  0.00  0.00    +0.000 OA
ATOM     11  C   UNL     1      -1.785  11.909  23.129  0.00  0.00    +0.000 C 
ATOM     12  O   UNL     1       1.138   8.319  21.379  0.00  0.00    +0.000 OA
ATOM     13  C   UNL     1       1.778   7.823  20.278  0.00  0.00    +0.000 A 
ATOM     14  C   UNL     1       2.500   6.641  20.436  0.00  0.00    +0.000 A 
ATOM     15  C   UNL     1       3.175   6.084  19.347  0.00  0.00    +0.000 A 
ATOM     16  C   UNL     1       3.128   6.712  18.101  0.00  0.00    +0.000 A 
ATOM     17  C   UNL     1       2.400   7.899  17.955  0.00  0.00    +0.000 A 
ATOM     18  C   UNL     1       1.724   8.453  19.043  0.00  0.00    +0.000 A 
ATOM     19  O   UNL     1       1.022   9.616  18.850  0.00  0.00    +0.000 OA
ENDROOT
BRANCH  16  20
ATOM     20  O   UNL     1       3.745   6.269  16.961  0.00  0.00    +0.000 OA
ATOM     21  C   UNL     1       4.560   5.109  17.080  0.00  0.00    +0.000 C 
ENDBRANCH  16  20
BRANCH   1  22
ATOM     22  C   UNL     1      -0.461  12.025  18.448  0.00  0.00    +0.000 C 
BRANCH  22  23
ATOM     23  C   UNL     1      -1.695  11.712  17.587  0.00  0.00    +0.000 C 
BRANCH  23  24
ATOM     24  C   UNL     1      -1.847  10.228  17.252  0.00  0.00    +0.000 C 
BRANCH  24  26
ATOM     25  C   UNL     1      -2.913  10.277  14.977  0.00  0.00    +0.000 C 
ATOM     26  C   UNL     1      -3.125   9.976  16.451  0.00  0.00    +0.000 C 
ENDBRANCH  24  26
ENDBRANCH  23  24
ENDBRANCH  22  23
ENDBRANCH   1  22
TORSDOF 5
ENDMDL
MODEL 7
REMARK VINA RESULT:      -6.4      1.793      2.245
REMARK  Name = 
REMARK  8 active torsions:
REMARK  status: ('A' for Active; 'I' for Inactive)
REMARK    1  A    between atoms: C_1  and  C_2
REMARK    2  A    between atoms: C_2  and  C_3
REMARK    3  A    between atoms: C_3  and  C_4
REMARK    4  A    between atoms: C_4  and  C_5
REMARK    5  A    between atoms: C_5  and  C_6
REMARK    6  A    between atoms: C_9  and  C_10
REMARK    7  A    between atoms: C_21  and  O_22
REMARK    8  A    between atoms: O_22  and  C_23
REMARK                            x       y       z     vdW  Elec       q    Type
REMARK                         _______ _______ _______ _____ _____    ______ ____
ROOT
ATOM      1  C   UNL     1       4.385   6.403  18.079  0.00  0.00    +0.000 A 
ATOM      2  C   UNL     1       3.315   7.164  18.599  0.00  0.00    +0.000 A 
ATOM      3  C   UNL     1       2.454   6.630  19.582  0.00  0.00    +0.000 A 
ATOM      4  C   UNL     1       2.620   5.326  20.067  0.00  0.00    +0.000 A 
ATOM      5  C   UNL     1       1.723   4.728  21.111  0.00  0.00    +0.000 C 
ATOM      6  C   UNL     1       3.679   4.587  19.549  0.00  0.00    +0.000 A 
ATOM      7  C   UNL     1       4.545   5.119  18.605  0.00  0.00    +0.000 A 
ATOM      8  C   UNL     1       5.580   4.111  18.340  0.00  0.00    +0.000 C 
ATOM      9  O   UNL     1       6.570   4.227  17.649  0.00  0.00    +0.000 OA
ATOM     10  O   UNL     1       5.249   2.996  19.056  0.00  0.00    +0.000 OA
ATOM     11  C   UNL     1       4.073   3.196  19.853  0.00  0.00    +0.000 C 
ATOM     12  O   UNL     1       1.414   7.363  20.106  0.00  0.00    +0.000 OA
ATOM     13  C   UNL     1       1.270   8.637  19.634  0.00  0.00    +0.000 A 
ATOM     14  C   UNL     1       0.236   9.404  20.171  0.00  0.00    +0.000 A 
ATOM     15  C   UNL     1       0.038  10.715  19.729  0.00  0.00    +0.000 A 
ATOM     16  C   UNL     1       0.873  11.256  18.750  0.00  0.00    +0.000 A 
ATOM     17  C   UNL     1       1.907  10.476  18.219  0.00  0.00    +0.000 A 
ATOM     18  C   UNL     1       2.106   9.167  18.662  0.00  0.00    +0.000 A 
ATOM     19  O   UNL     1       3.134   8.444  18.113  0.00  0.00    +0.000 OA
ENDROOT
BRANCH  16  20
ATOM     20  O   UNL     1       0.781  12.522  18.235  0.00  0.00    +0.000 OA
ATOM     21  C   UNL     1      -0.501  13.139  18.268  0.00  0.00    +0.000 C 
ENDBRANCH  16  20
BRANCH   1  22
ATOM     22  C   UNL     1       5.288   6.939  16.991  0.00  0.00    +0.000 C 
BRANCH  22  23
ATOM     23  C   UNL     1       4.938   6.456  15.575  0.00  0.00    +0.000 C 
BRANCH  23  24
ATOM     24  C   UNL     1       6.015   5.571  14.946  0.00  0.00    +0.000 C 
BRANCH  24  26
ATOM     25  C   UNL     1       6.179   3.758  13.214  0.00  0.00    +0.000 C 
ATOM     26  C   UNL     1       5.413   4.266  14.424  0.00  0.00    +0.000 C 
ENDBRANCH  24  26
ENDBRANCH  23  24
ENDBRANCH  22  23
ENDBRANCH   1  22
TORSDOF 5
ENDMDL
MODEL 8
REMARK VINA RESULT:      -6.3      2.089      7.698
REMARK  Name = 
REMARK  8 active torsions:
REMARK  status: ('A' for Active; 'I' for Inactive)
REMARK    1  A    between atoms: C_1  and  C_2
REMARK    2  A    between atoms: C_2  and  C_3
REMARK    3  A    between atoms: C_3  and  C_4
REMARK    4  A    between atoms: C_4  and  C_5
REMARK    5  A    between atoms: C_5  and  C_6
REMARK    6  A    between atoms: C_9  and  C_10
REMARK    7  A    between atoms: C_21  and  O_22
REMARK    8  A    between atoms: O_22  and  C_23
REMARK                            x       y       z     vdW  Elec       q    Type
REMARK                         _______ _______ _______ _____ _____    ______ ____
ROOT
ATOM      1  C   UNL     1       0.624  11.583  19.630  0.00  0.00    +0.000 A 
ATOM      2  C   UNL     1       1.003  10.239  19.843  0.00  0.00    +0.000 A 
ATOM      3  C   UNL     1       0.676   9.574  21.045  0.00  0.00    +0.000 A 
ATOM      4  C   UNL     1      -0.021  10.225  22.073  0.00  0.00    +0.000 A 
ATOM      5  C   UNL     1      -0.384   9.548  23.362  0.00  0.00    +0.000 C 
ATOM      6  C   UNL     1      -0.390  11.547  21.849  0.00  0.00    +0.000 A 
ATOM      7  C   UNL     1      -0.098  12.193  20.658  0.00  0.00    +0.000 A 
ATOM      8  C   UNL     1      -0.694  13.534  20.727  0.00  0.00    +0.000 C 
ATOM      9  O   UNL     1      -0.743  14.372  19.850  0.00  0.00    +0.000 OA
ATOM     10  O   UNL     1      -1.235  13.671  21.973  0.00  0.00    +0.000 OA
ATOM     11  C   UNL     1      -1.102  12.475  22.754  0.00  0.00    +0.000 C 
ATOM     12  O   UNL     1       1.029   8.263  21.264  0.00  0.00    +0.000 OA
ATOM     13  C   UNL     1       1.698   7.636  20.250  0.00  0.00    +0.000 A 
ATOM     14  C   UNL     1       2.042   6.298  20.444  0.00  0.00    +0.000 A 
ATOM     15  C   UNL     1       2.727   5.603  19.444  0.00  0.00    +0.000 A 
ATOM     16  C   UNL     1       3.067   6.247  18.252  0.00  0.00    +0.000 A 
ATOM     17  C   UNL     1       2.716   7.590  18.071  0.00  0.00    +0.000 A 
ATOM     18  C   UNL     1       2.030   8.283  19.069  0.00  0.00    +0.000 A 
ATOM     19  O   UNL     1       1.706   9.597  18.844  0.00  0.00    +0.000 OA
ENDROOT
BRANCH  16  20
ATOM     20  O   UNL     1       3.735   5.677  17.201  0.00  0.00    +0.000 OA
ATOM     21  C   UNL     1       4.868   6.380  16.702  0.00  0.00    +0.000 C 
ENDBRANCH  16  20
BRANCH   1  22
ATOM     22  C   UNL     1       1.007  12.327  18.370  0.00  0.00    +0.000 C 
BRANCH  22  23
ATOM     23  C   UNL     1       2.470  12.795  18.324  0.00  0.00    +0.000 C 
BRANCH  23  24
ATOM     24  C   UNL     1       2.756  13.999  19.221  0.00  0.00    +0.000 C 
BRANCH  24  26
ATOM     25  C   UNL     1       3.499  15.611  17.442  0.00  0.00    +0.000 C 
ATOM     26  C   UNL     1       2.446  15.308  18.495  0.00  0.00    +0.000 C 
ENDBRANCH  24  26
ENDBRANCH  23  24
ENDBRANCH  22  23
ENDBRANCH   1  22
TORSDOF 5
ENDMDL
MODEL 9
REMARK VINA RESULT:      -6.3      4.655      7.739
REMARK  Name = 
REMARK  8 active torsions:
REMARK  status: ('A' for Active; 'I' for Inactive)
REMARK    1  A    between atoms: C_1  and  C_2
REMARK    2  A    between atoms: C_2  and  C_3
REMARK    3  A    between atoms: C_3  and  C_4
REMARK    4  A    between atoms: C_4  and  C_5
REMARK    5  A    between atoms: C_5  and  C_6
REMARK    6  A    between atoms: C_9  and  C_10
REMARK    7  A    between atoms: C_21  and  O_22
REMARK    8  A    between atoms: O_22  and  C_23
REMARK                            x       y       z     vdW  Elec       q    Type
REMARK                         _______ _______ _______ _____ _____    ______ ____
ROOT
ATOM      1  C   UNL     1      -0.789  11.278  19.650  0.00  0.00    +0.000 A 
ATOM      2  C   UNL     1      -1.455  11.761  20.798  0.00  0.00    +0.000 A 
ATOM      3  C   UNL     1      -1.225  11.189  22.068  0.00  0.00    +0.000 A 
ATOM      4  C   UNL     1      -0.339  10.115  22.234  0.00  0.00    +0.000 A 
ATOM      5  C   UNL     1      -0.072   9.483  23.569  0.00  0.00    +0.000 C 
ATOM      6  C   UNL     1       0.312   9.649  21.097  0.00  0.00    +0.000 A 
ATOM      7  C   UNL     1       0.111  10.229  19.853  0.00  0.00    +0.000 A 
ATOM      8  C   UNL     1       1.004   9.552  18.903  0.00  0.00    +0.000 C 
ATOM      9  O   UNL     1       1.196   9.830  17.737  0.00  0.00    +0.000 OA
ATOM     10  O   UNL     1       1.631   8.548  19.583  0.00  0.00    +0.000 OA
ATOM     11  C   UNL     1       1.268   8.529  20.971  0.00  0.00    +0.000 C 
ATOM     12  O   UNL     1      -1.858  11.656  23.196  0.00  0.00    +0.000 OA
ATOM     13  C   UNL     1      -2.710  12.711  23.023  0.00  0.00    +0.000 A 
ATOM     14  C   UNL     1      -3.342  13.214  24.159  0.00  0.00    +0.000 A 
ATOM     15  C   UNL     1      -4.224  14.292  24.047  0.00  0.00    +0.000 A 
ATOM     16  C   UNL     1      -4.472  14.864  22.798  0.00  0.00    +0.000 A 
ATOM     17  C   UNL     1      -3.831  14.350  21.665  0.00  0.00    +0.000 A 
ATOM     18  C   UNL     1      -2.948  13.274  21.778  0.00  0.00    +0.000 A 
ATOM     19  O   UNL     1      -2.343  12.807  20.640  0.00  0.00    +0.000 OA
ENDROOT
BRANCH  16  20
ATOM     20  O   UNL     1      -5.312  15.919  22.558  0.00  0.00    +0.000 OA
ATOM     21  C   UNL     1      -6.577  15.616  21.980  0.00  0.00    +0.000 C 
ENDBRANCH  16  20
BRANCH   1  22
ATOM     22  C   UNL     1      -1.059  11.845  18.275  0.00  0.00    +0.000 C 
BRANCH  22  23
ATOM     23  C   UNL     1      -2.443  11.501  17.703  0.00  0.00    +0.000 C 
BRANCH  23  24
ATOM     24  C   UNL     1      -2.649  10.007  17.453  0.00  0.00    +0.000 C 
BRANCH  24  26
ATOM     25  C   UNL     1      -3.304  10.673  15.120  0.00  0.00    +0.000 C 
ATOM     26  C   UNL     1      -2.525   9.680  15.965  0.00  0.00    +0.000 C 
ENDBRANCH  24  26
ENDBRANCH  23  24
ENDBRANCH  22  23
ENDBRANCH   1  22
TORSDOF 5
ENDMDL
