MODEL 1
REMARK VINA RESULT:      -8.3      0.000      0.000
REMARK  Name = 
REMARK  10 active torsions:
REMARK  status: ('A' for Active; 'I' for Inactive)
REMARK    1  A    between atoms: C_1  and  O_2
REMARK    2  A    between atoms: O_2  and  C_3
REMARK    3  A    between atoms: C_6  and  C_7
REMARK    4  A    between atoms: N_9  and  C_10
REMARK    5  A    between atoms: C_10  and  C_11
REMARK    6  A    between atoms: C_10  and  C_15
REMARK    7  A    between atoms: C_11  and  C_12
REMARK    8  A    between atoms: C_12  and  O_14
REMARK    9  A    between atoms: C_23  and  C_24
REMARK   10  A    between atoms: C_27  and  C_28
REMARK                            x       y       z     vdW  Elec       q    Type
REMARK                         _______ _______ _______ _____ _____    ______ ____
ROOT
ATOM      1  C   UNL     1       1.309  11.278  18.789  0.00  0.00    +0.000 A 
ATOM      2  C   UNL     1       2.194  10.654  17.908  0.00  0.00    +0.000 A 
ATOM      3  C   UNL     1       2.445   9.291  18.024  0.00  0.00    +0.000 A 
ATOM      4  C   UNL     1       1.795   8.583  19.021  0.00  0.00    +0.000 A 
ATOM      5  N   UNL     1       0.881   9.138  19.856  0.00  0.00    +0.000 NA
ATOM      6  C   UNL     1       0.639  10.479  19.745  0.00  0.00    +0.000 A 
ENDROOT
BRANCH   6   7
ATOM      7  C   UNL     1      -0.396  10.990  20.683  0.00  0.00    +0.000 A 
ATOM      8  C   UNL     1      -0.240  10.922  22.083  0.00  0.00    +0.000 A 
ATOM      9  C   UNL     1      -1.195  11.447  22.964  0.00  0.00    +0.000 A 
ATOM     10  C   UNL     1      -2.334  12.092  22.474  0.00  0.00    +0.000 A 
ATOM     11  C   UNL     1      -2.514  12.162  21.088  0.00  0.00    +0.000 A 
ATOM     12  C   UNL     1      -1.567  11.613  20.219  0.00  0.00    +0.000 A 
ATOM     13  F   UNL     1      -1.827  11.694  18.904  0.00  0.00    +0.000 F 
BRANCH  10  14
ATOM     14  C   UNL     1      -3.338  12.720  23.407  0.00  0.00    +0.000 C 
ATOM     15  F   UNL     1      -2.896  13.874  23.980  0.00  0.00    +0.000 F 
ATOM     16  F   UNL     1      -4.501  13.040  22.779  0.00  0.00    +0.000 F 
ATOM     17  F   UNL     1      -3.678  11.899  24.437  0.00  0.00    +0.000 F 
ENDBRANCH  10  14
ENDBRANCH   6   7
BRANCH   4  18
ATOM     18  C   UNL     1       2.146   7.142  19.243  0.00  0.00    +0.000 C 
ATOM     19  O   UNL     1       2.034   6.637  20.358  0.00  0.00    +0.000 OA
ATOM     20  N   UNL     1       2.566   6.444  18.133  0.00  0.00    +0.000 N 
ATOM     21  H   UNL     1       2.750   6.986  17.288  0.00  0.00    +0.000 HD
BRANCH  20  22
ATOM     22  C   UNL     1       3.030   5.062  18.215  0.00  0.00    +0.000 C 
BRANCH  22  23
ATOM     23  C   UNL     1       4.437   4.875  17.674  0.00  0.00    +0.000 A 
ATOM     24  C   UNL     1       4.684   4.423  16.370  0.00  0.00    +0.000 A 
ATOM     25  C   UNL     1       5.991   4.247  15.908  0.00  0.00    +0.000 A 
ATOM     26  C   UNL     1       7.074   4.519  16.742  0.00  0.00    +0.000 A 
ATOM     27  C   UNL     1       6.849   4.963  18.042  0.00  0.00    +0.000 A 
ATOM     28  C   UNL     1       5.542   5.133  18.497  0.00  0.00    +0.000 A 
ATOM     29  F   UNL     1       5.352   5.538  19.761  0.00  0.00    +0.000 F 
ENDBRANCH  22  23
BRANCH  22  30
ATOM     30  C   UNL     1       2.023   4.064  17.623  0.00  0.00    +0.000 C 
BRANCH  30  31
ATOM     31  C   UNL     1       1.194   3.339  18.652  0.00  0.00    +0.000 C 
ATOM     32  O   UNL     1       0.521   2.341  18.444  0.00  0.00    +0.000 OA
BRANCH  31  33
ATOM     33  O   UNL     1       1.200   3.953  19.860  0.00  0.00    +0.000 OA
ATOM     34  H   UNL     1       0.312   4.144  20.221  0.00  0.00    +0.000 HD
ENDBRANCH  31  33
ENDBRANCH  30  31
ENDBRANCH  22  30
ENDBRANCH  20  22
ENDBRANCH   4  18
BRANCH   1  36
ATOM     35  C   UNL     1       2.186  13.508  18.763  0.00  0.00    +0.000 C 
ATOM     36  O   UNL     1       1.069  12.627  18.785  0.00  0.00    +0.000 OA
ENDBRANCH   1  36
TORSDOF 9
ENDMDL
MODEL 2
REMARK VINA RESULT:      -8.2      0.865      1.336
REMARK  Name = 
REMARK  10 active torsions:
REMARK  status: ('A' for Active; 'I' for Inactive)
REMARK    1  A    between atoms: C_1  and  O_2
REMARK    2  A    between atoms: O_2  and  C_3
REMARK    3  A    between atoms: C_6  and  C_7
REMARK    4  A    between atoms: N_9  and  C_10
REMARK    5  A    between atoms: C_10  and  C_11
REMARK    6  A    between atoms: C_10  and  C_15
REMARK    7  A    between atoms: C_11  and  C_12
REMARK    8  A    between atoms: C_12  and  O_14
REMARK    9  A    between atoms: C_23  and  C_24
REMARK   10  A    between atoms: C_27  and  C_28
REMARK                            x       y       z     vdW  Elec       q    Type
REMARK                         _______ _______ _______ _____ _____    ______ ____
ROOT
ATOM      1  C   UNL     1       1.212  11.291  18.831  0.00  0.00    +0.000 A 
ATOM      2  C   UNL     1       2.043  10.631  17.923  0.00  0.00    +0.000 A 
ATOM      3  C   UNL     1       2.270   9.265  18.054  0.00  0.00    +0.000 A 
ATOM      4  C   UNL     1       1.652   8.591  19.094  0.00  0.00    +0.000 A 
ATOM      5  N   UNL     1       0.789   9.181  19.958  0.00  0.00    +0.000 NA
ATOM      6  C   UNL     1       0.570  10.525  19.832  0.00  0.00    +0.000 A 
ENDROOT
BRANCH   6   7
ATOM      7  C   UNL     1      -0.409  11.076  20.805  0.00  0.00    +0.000 A 
ATOM      8  C   UNL     1      -1.444  11.952  20.415  0.00  0.00    +0.000 A 
ATOM      9  C   UNL     1      -2.394  12.433  21.325  0.00  0.00    +0.000 A 
ATOM     10  C   UNL     1      -2.363  12.029  22.662  0.00  0.00    +0.000 A 
ATOM     11  C   UNL     1      -1.339  11.169  23.075  0.00  0.00    +0.000 A 
ATOM     12  C   UNL     1      -0.382  10.715  22.163  0.00  0.00    +0.000 A 
ATOM     13  F   UNL     1       0.586   9.917  22.642  0.00  0.00    +0.000 F 
BRANCH  10  14
ATOM     14  C   UNL     1      -3.416  12.485  23.640  0.00  0.00    +0.000 C 
ATOM     15  F   UNL     1      -4.571  12.893  23.041  0.00  0.00    +0.000 F 
ATOM     16  F   UNL     1      -3.778  11.504  24.510  0.00  0.00    +0.000 F 
ATOM     17  F   UNL     1      -3.003  13.533  24.403  0.00  0.00    +0.000 F 
ENDBRANCH  10  14
ENDBRANCH   6   7
BRANCH   4  18
ATOM     18  C   UNL     1       1.982   7.147  19.328  0.00  0.00    +0.000 C 
ATOM     19  O   UNL     1       1.860   6.652  20.446  0.00  0.00    +0.000 OA
ATOM     20  N   UNL     1       2.397   6.434  18.225  0.00  0.00    +0.000 N 
ATOM     21  H   UNL     1       2.591   6.968  17.376  0.00  0.00    +0.000 HD
BRANCH  20  22
ATOM     22  C   UNL     1       2.842   5.048  18.319  0.00  0.00    +0.000 C 
BRANCH  22  23
ATOM     23  C   UNL     1       4.210   4.819  17.699  0.00  0.00    +0.000 A 
ATOM     24  C   UNL     1       4.368   4.321  16.398  0.00  0.00    +0.000 A 
ATOM     25  C   UNL     1       5.641   4.108  15.862  0.00  0.00    +0.000 A 
ATOM     26  C   UNL     1       6.778   4.388  16.619  0.00  0.00    +0.000 A 
ATOM     27  C   UNL     1       6.640   4.877  17.914  0.00  0.00    +0.000 A 
ATOM     28  C   UNL     1       5.367   5.084  18.443  0.00  0.00    +0.000 A 
ATOM     29  F   UNL     1       5.262   5.533  19.702  0.00  0.00    +0.000 F 
ENDBRANCH  22  23
BRANCH  22  30
ATOM     30  C   UNL     1       1.783   4.052  17.819  0.00  0.00    +0.000 C 
BRANCH  30  31
ATOM     31  C   UNL     1       1.080   3.295  18.917  0.00  0.00    +0.000 C 
ATOM     32  O   UNL     1       0.529   2.213  18.789  0.00  0.00    +0.000 OA
BRANCH  31  33
ATOM     33  O   UNL     1       1.046   3.977  20.088  0.00  0.00    +0.000 OA
ATOM     34  H   UNL     1       1.629   3.615  20.783  0.00  0.00    +0.000 HD
ENDBRANCH  31  33
ENDBRANCH  30  31
ENDBRANCH  22  30
ENDBRANCH  20  22
ENDBRANCH   4  18
BRANCH   1  36
ATOM     35  C   UNL     1       2.129  13.499  18.659  0.00  0.00    +0.000 C 
ATOM     36  O   UNL     1       1.001  12.645  18.810  0.00  0.00    +0.000 OA
ENDBRANCH   1  36
TORSDOF 9
ENDMDL
MODEL 3
REMARK VINA RESULT:      -8.2      2.898      4.714
REMARK  Name = 
REMARK  10 active torsions:
REMARK  status: ('A' for Active; 'I' for Inactive)
REMARK    1  A    between atoms: C_1  and  O_2
REMARK    2  A    between atoms: O_2  and  C_3
REMARK    3  A    between atoms: C_6  and  C_7
REMARK    4  A    between atoms: N_9  and  C_10
REMARK    5  A    between atoms: C_10  and  C_11
REMARK    6  A    between atoms: C_10  and  C_15
REMARK    7  A    between atoms: C_11  and  C_12
REMARK    8  A    between atoms: C_12  and  O_14
REMARK    9  A    between atoms: C_23  and  C_24
REMARK   10  A    between atoms: C_27  and  C_28
REMARK                            x       y       z     vdW  Elec       q    Type
REMARK                         _______ _______ _______ _____ _____    ______ ____
ROOT
ATOM      1  C   UNL     1       0.051  10.820  22.273  0.00  0.00    +0.000 A 
ATOM      2  C   UNL     1       0.265   9.504  22.688  0.00  0.00    +0.000 A 
ATOM      3  C   UNL     1       0.885   8.598  21.835  0.00  0.00    +0.000 A 
ATOM      4  C   UNL     1       1.283   9.037  20.582  0.00  0.00    +0.000 A 
ATOM      5  N   UNL     1       1.150  10.320  20.164  0.00  0.00    +0.000 NA
ATOM      6  C   UNL     1       0.536  11.209  21.002  0.00  0.00    +0.000 A 
ENDROOT
BRANCH   6   7
ATOM      7  C   UNL     1       0.461  12.595  20.469  0.00  0.00    +0.000 A 
ATOM      8  C   UNL     1       1.439  13.568  20.765  0.00  0.00    +0.000 A 
ATOM      9  C   UNL     1       1.392  14.860  20.225  0.00  0.00    +0.000 A 
ATOM     10  C   UNL     1       0.375  15.220  19.337  0.00  0.00    +0.000 A 
ATOM     11  C   UNL     1      -0.612  14.275  19.037  0.00  0.00    +0.000 A 
ATOM     12  C   UNL     1      -0.569  12.997  19.601  0.00  0.00    +0.000 A 
ATOM     13  F   UNL     1      -1.569  12.158  19.288  0.00  0.00    +0.000 F 
BRANCH  10  14
ATOM     14  C   UNL     1       0.347  16.584  18.695  0.00  0.00    +0.000 C 
ATOM     15  F   UNL     1       1.463  16.862  17.964  0.00  0.00    +0.000 F 
ATOM     16  F   UNL     1      -0.702  16.735  17.841  0.00  0.00    +0.000 F 
ATOM     17  F   UNL     1       0.239  17.588  19.606  0.00  0.00    +0.000 F 
ENDBRANCH  10  14
ENDBRANCH   6   7
BRANCH   4  18
ATOM     18  C   UNL     1       1.837   8.046  19.603  0.00  0.00    +0.000 C 
ATOM     19  O   UNL     1       1.770   8.259  18.395  0.00  0.00    +0.000 OA
ATOM     20  N   UNL     1       2.431   6.927  20.143  0.00  0.00    +0.000 N 
ATOM     21  H   UNL     1       2.317   6.783  21.148  0.00  0.00    +0.000 HD
BRANCH  20  22
ATOM     22  C   UNL     1       2.930   5.836  19.314  0.00  0.00    +0.000 C 
BRANCH  22  23
ATOM     23  C   UNL     1       2.206   4.523  19.560  0.00  0.00    +0.000 A 
ATOM     24  C   UNL     1       2.191   3.901  20.817  0.00  0.00    +0.000 A 
ATOM     25  C   UNL     1       1.527   2.686  21.007  0.00  0.00    +0.000 A 
ATOM     26  C   UNL     1       0.869   2.071  19.943  0.00  0.00    +0.000 A 
ATOM     27  C   UNL     1       0.877   2.671  18.688  0.00  0.00    +0.000 A 
ATOM     28  C   UNL     1       1.544   3.881  18.505  0.00  0.00    +0.000 A 
ATOM     29  F   UNL     1       1.558   4.425  17.279  0.00  0.00    +0.000 F 
ENDBRANCH  22  23
BRANCH  22  30
ATOM     30  C   UNL     1       4.459   5.698  19.374  0.00  0.00    +0.000 C 
BRANCH  30  31
ATOM     31  C   UNL     1       5.023   4.656  18.442  0.00  0.00    +0.000 C 
ATOM     32  O   UNL     1       4.889   4.646  17.228  0.00  0.00    +0.000 OA
BRANCH  31  33
ATOM     33  O   UNL     1       5.655   3.651  19.096  0.00  0.00    +0.000 OA
ATOM     34  H   UNL     1       6.104   3.924  19.919  0.00  0.00    +0.000 HD
ENDBRANCH  31  33
ENDBRANCH  30  31
ENDBRANCH  22  30
ENDBRANCH  20  22
ENDBRANCH   4  18
BRANCH   1  36
ATOM     35  C   UNL     1      -2.042  11.716  23.024  0.00  0.00    +0.000 C 
ATOM     36  O   UNL     1      -0.619  11.747  23.027  0.00  0.00    +0.000 OA
ENDBRANCH   1  36
TORSDOF 9
ENDMDL
MODEL 4
REMARK VINA RESULT:      -8.0      3.231      4.657
REMARK  Name = 
REMARK  10 active torsions:
REMARK  status: ('A' for Active; 'I' for Inactive)
REMARK    1  A    between atoms: C_1  and  O_2
REMARK    2  A    between atoms: O_2  and  C_3
REMARK    3  A    between atoms: C_6  and  C_7
REMARK    4  A    between atoms: N_9  and  C_10
REMARK    5  A    between atoms: C_10  and  C_11
REMARK    6  A    between atoms: C_10  and  C_15
REMARK    7  A    between atoms: C_11  and  C_12
REMARK    8  A    between atoms: C_12  and  O_14
REMARK    9  A    between atoms: C_23  and  C_24
REMARK   10  A    between atoms: C_27  and  C_28
REMARK                            x       y       z     vdW  Elec       q    Type
REMARK                         _______ _______ _______ _____ _____    ______ ____
ROOT
ATOM      1  C   UNL     1       0.492  10.452  21.328  0.00  0.00    +0.000 A 
ATOM      2  C   UNL     1       0.783   9.115  21.607  0.00  0.00    +0.000 A 
ATOM      3  C   UNL     1       1.425   8.330  20.656  0.00  0.00    +0.000 A 
ATOM      4  C   UNL     1       1.766   8.909  19.444  0.00  0.00    +0.000 A 
ATOM      5  N   UNL     1       1.558  10.218  19.157  0.00  0.00    +0.000 NA
ATOM      6  C   UNL     1       0.922  10.988  20.091  0.00  0.00    +0.000 A 
ENDROOT
BRANCH   6   7
ATOM      7  C   UNL     1       0.764  12.413  19.699  0.00  0.00    +0.000 A 
ATOM      8  C   UNL     1      -0.318  12.860  18.911  0.00  0.00    +0.000 A 
ATOM      9  C   UNL     1      -0.491  14.211  18.582  0.00  0.00    +0.000 A 
ATOM     10  C   UNL     1       0.400  15.177  19.059  0.00  0.00    +0.000 A 
ATOM     11  C   UNL     1       1.487  14.755  19.833  0.00  0.00    +0.000 A 
ATOM     12  C   UNL     1       1.663  13.402  20.135  0.00  0.00    +0.000 A 
ATOM     13  F   UNL     1       2.746  13.074  20.858  0.00  0.00    +0.000 F 
BRANCH  10  14
ATOM     14  C   UNL     1       0.192  16.641  18.769  0.00  0.00    +0.000 C 
ATOM     15  F   UNL     1       1.340  17.296  18.437  0.00  0.00    +0.000 F 
ATOM     16  F   UNL     1      -0.665  16.849  17.733  0.00  0.00    +0.000 F 
ATOM     17  F   UNL     1      -0.327  17.316  19.830  0.00  0.00    +0.000 F 
ENDBRANCH  10  14
ENDBRANCH   6   7
BRANCH   4  18
ATOM     18  C   UNL     1       2.344   8.049  18.360  0.00  0.00    +0.000 C 
ATOM     19  O   UNL     1       2.299   8.410  17.187  0.00  0.00    +0.000 OA
ATOM     20  N   UNL     1       2.932   6.872  18.769  0.00  0.00    +0.000 N 
ATOM     21  H   UNL     1       2.799   6.605  19.746  0.00  0.00    +0.000 HD
BRANCH  20  22
ATOM     22  C   UNL     1       3.451   5.893  17.820  0.00  0.00    +0.000 C 
BRANCH  22  23
ATOM     23  C   UNL     1       3.149   4.459  18.221  0.00  0.00    +0.000 A 
ATOM     24  C   UNL     1       4.095   3.644  18.858  0.00  0.00    +0.000 A 
ATOM     25  C   UNL     1       3.790   2.324  19.200  0.00  0.00    +0.000 A 
ATOM     26  C   UNL     1       2.533   1.796  18.910  0.00  0.00    +0.000 A 
ATOM     27  C   UNL     1       1.583   2.588  18.273  0.00  0.00    +0.000 A 
ATOM     28  C   UNL     1       1.896   3.903  17.932  0.00  0.00    +0.000 A 
ATOM     29  F   UNL     1       0.970   4.636  17.296  0.00  0.00    +0.000 F 
ENDBRANCH  22  23
BRANCH  22  30
ATOM     30  C   UNL     1       4.933   6.122  17.486  0.00  0.00    +0.000 C 
BRANCH  30  31
ATOM     31  C   UNL     1       5.294   5.837  16.050  0.00  0.00    +0.000 C 
ATOM     32  O   UNL     1       5.723   4.774  15.627  0.00  0.00    +0.000 OA
BRANCH  31  33
ATOM     33  O   UNL     1       5.165   6.922  15.249  0.00  0.00    +0.000 OA
ATOM     34  H   UNL     1       4.794   6.731  14.366  0.00  0.00    +0.000 HD
ENDBRANCH  31  33
ENDBRANCH  30  31
ENDBRANCH  22  30
ENDBRANCH  20  22
ENDBRANCH   4  18
BRANCH   1  36
ATOM     35  C   UNL     1      -1.046  10.656  23.156  0.00  0.00    +0.000 C 
ATOM     36  O   UNL     1      -0.204  11.265  22.184  0.00  0.00    +0.000 OA
ENDBRANCH   1  36
TORSDOF 9
ENDMDL
MODEL 5
REMARK VINA RESULT:      -8.0      3.126      4.850
REMARK  Name = 
REMARK  10 active torsions:
REMARK  status: ('A' for Active; 'I' for Inactive)
REMARK    1  A    between atoms: C_1  and  O_2
REMARK    2  A    between atoms: O_2  and  C_3
REMARK    3  A    between atoms: C_6  and  C_7
REMARK    4  A    between atoms: N_9  and  C_10
REMARK    5  A    between atoms: C_10  and  C_11
REMARK    6  A    between atoms: C_10  and  C_15
REMARK    7  A    between atoms: C_11  and  C_12
REMARK    8  A    between atoms: C_12  and  O_14
REMARK    9  A    between atoms: C_23  and  C_24
REMARK   10  A    between atoms: C_27  and  C_28
REMARK                            x       y       z     vdW  Elec       q    Type
REMARK                         _______ _______ _______ _____ _____    ______ ____
ROOT
ATOM      1  C   UNL     1       0.256  10.763  21.839  0.00  0.00    +0.000 A 
ATOM      2  C   UNL     1       0.460   9.461  22.301  0.00  0.00    +0.000 A 
ATOM      3  C   UNL     1       1.088   8.525  21.487  0.00  0.00    +0.000 A 
ATOM      4  C   UNL     1       1.502   8.919  20.226  0.00  0.00    +0.000 A 
ATOM      5  N   UNL     1       1.379  10.188  19.763  0.00  0.00    +0.000 NA
ATOM      6  C   UNL     1       0.758  11.107  20.562  0.00  0.00    +0.000 A 
ENDROOT
BRANCH   6   7
ATOM      7  C   UNL     1       0.695  12.475  19.982  0.00  0.00    +0.000 A 
ATOM      8  C   UNL     1      -0.359  12.886  19.139  0.00  0.00    +0.000 A 
ATOM      9  C   UNL     1      -0.441  14.189  18.631  0.00  0.00    +0.000 A 
ATOM     10  C   UNL     1       0.517  15.146  18.976  0.00  0.00    +0.000 A 
ATOM     11  C   UNL     1       1.578  14.758  19.803  0.00  0.00    +0.000 A 
ATOM     12  C   UNL     1       1.663  13.449  20.283  0.00  0.00    +0.000 A 
ATOM     13  F   UNL     1       2.726  13.147  21.046  0.00  0.00    +0.000 F 
BRANCH  10  14
ATOM     14  C   UNL     1       0.408  16.569  18.492  0.00  0.00    +0.000 C 
ATOM     15  F   UNL     1       1.464  16.964  17.726  0.00  0.00    +0.000 F 
ATOM     16  F   UNL     1      -0.699  16.775  17.729  0.00  0.00    +0.000 F 
ATOM     17  F   UNL     1       0.334  17.465  19.513  0.00  0.00    +0.000 F 
ENDBRANCH  10  14
ENDBRANCH   6   7
BRANCH   4  18
ATOM     18  C   UNL     1       2.065   7.895  19.286  0.00  0.00    +0.000 C 
ATOM     19  O   UNL     1       1.867   7.981  18.077  0.00  0.00    +0.000 OA
ATOM     20  N   UNL     1       2.817   6.895  19.862  0.00  0.00    +0.000 N 
ATOM     21  H   UNL     1       2.809   6.839  20.882  0.00  0.00    +0.000 HD
BRANCH  20  22
ATOM     22  C   UNL     1       3.348   5.779  19.086  0.00  0.00    +0.000 C 
BRANCH  22  23
ATOM     23  C   UNL     1       2.430   4.569  19.078  0.00  0.00    +0.000 A 
ATOM     24  C   UNL     1       1.586   4.263  20.155  0.00  0.00    +0.000 A 
ATOM     25  C   UNL     1       0.763   3.134  20.122  0.00  0.00    +0.000 A 
ATOM     26  C   UNL     1       0.770   2.291  19.011  0.00  0.00    +0.000 A 
ATOM     27  C   UNL     1       1.606   2.576  17.935  0.00  0.00    +0.000 A 
ATOM     28  C   UNL     1       2.426   3.703  17.977  0.00  0.00    +0.000 A 
ATOM     29  F   UNL     1       3.239   3.941  16.938  0.00  0.00    +0.000 F 
ENDBRANCH  22  23
BRANCH  22  30
ATOM     30  C   UNL     1       4.795   5.430  19.467  0.00  0.00    +0.000 C 
BRANCH  30  31
ATOM     31  C   UNL     1       5.740   5.347  18.296  0.00  0.00    +0.000 C 
ATOM     32  O   UNL     1       5.849   6.185  17.414  0.00  0.00    +0.000 OA
BRANCH  31  33
ATOM     33  O   UNL     1       6.435   4.184  18.262  0.00  0.00    +0.000 OA
ATOM     34  H   UNL     1       7.215   4.196  17.675  0.00  0.00    +0.000 HD
ENDBRANCH  31  33
ENDBRANCH  30  31
ENDBRANCH  22  30
ENDBRANCH  20  22
ENDBRANCH   4  18
BRANCH   1  36
ATOM     35  C   UNL     1      -1.842  11.695  22.528  0.00  0.00    +0.000 C 
ATOM     36  O   UNL     1      -0.420  11.717  22.553  0.00  0.00    +0.000 OA
ENDBRANCH   1  36
TORSDOF 9
ENDMDL
MODEL 6
REMARK VINA RESULT:      -7.9      3.286      4.921
REMARK  Name = 
REMARK  10 active torsions:
REMARK  status: ('A' for Active; 'I' for Inactive)
REMARK    1  A    between atoms: C_1  and  O_2
REMARK    2  A    between atoms: O_2  and  C_3
REMARK    3  A    between atoms: C_6  and  C_7
REMARK    4  A    between atoms: N_9  and  C_10
REMARK    5  A    between atoms: C_10  and  C_11
REMARK    6  A    between atoms: C_10  and  C_15
REMARK    7  A    between atoms: C_11  and  C_12
REMARK    8  A    between atoms: C_12  and  O_14
REMARK    9  A    between atoms: C_23  and  C_24
REMARK   10  A    between atoms: C_27  and  C_28
REMARK                            x       y       z     vdW  Elec       q    Type
REMARK                         _______ _______ _______ _____ _____    ______ ____
ROOT
ATOM      1  C   UNL     1       0.134  10.815  21.295  0.00  0.00    +0.000 A 
ATOM      2  C   UNL     1       0.301   9.473  21.642  0.00  0.00    +0.000 A 
ATOM      3  C   UNL     1       0.994   8.617  20.794  0.00  0.00    +0.000 A 
ATOM      4  C   UNL     1       1.509   9.130  19.615  0.00  0.00    +0.000 A 
ATOM      5  N   UNL     1       1.423  10.439  19.270  0.00  0.00    +0.000 NA
ATOM      6  C   UNL     1       0.737  11.280  20.103  0.00  0.00    +0.000 A 
ENDROOT
BRANCH   6   7
ATOM      7  C   UNL     1       0.720  12.698  19.657  0.00  0.00    +0.000 A 
ATOM      8  C   UNL     1      -0.330  13.228  18.878  0.00  0.00    +0.000 A 
ATOM      9  C   UNL     1      -0.368  14.576  18.498  0.00  0.00    +0.000 A 
ATOM     10  C   UNL     1       0.634  15.458  18.913  0.00  0.00    +0.000 A 
ATOM     11  C   UNL     1       1.691  14.952  19.677  0.00  0.00    +0.000 A 
ATOM     12  C   UNL     1       1.731  13.600  20.029  0.00  0.00    +0.000 A 
ATOM     13  F   UNL     1       2.794  13.186  20.738  0.00  0.00    +0.000 F 
BRANCH  10  14
ATOM     14  C   UNL     1       0.574  16.924  18.568  0.00  0.00    +0.000 C 
ATOM     15  F   UNL     1       0.663  17.740  19.656  0.00  0.00    +0.000 F 
ATOM     16  F   UNL     1       1.582  17.304  17.737  0.00  0.00    +0.000 F 
ATOM     17  F   UNL     1      -0.583  17.267  17.940  0.00  0.00    +0.000 F 
ENDBRANCH  10  14
ENDBRANCH   6   7
BRANCH   4  18
ATOM     18  C   UNL     1       2.148   8.199  18.628  0.00  0.00    +0.000 C 
ATOM     19  O   UNL     1       2.259   8.521  17.448  0.00  0.00    +0.000 OA
ATOM     20  N   UNL     1       2.607   7.003  19.135  0.00  0.00    +0.000 N 
ATOM     21  H   UNL     1       2.347   6.778  20.097  0.00  0.00    +0.000 HD
BRANCH  20  22
ATOM     22  C   UNL     1       3.165   5.961  18.280  0.00  0.00    +0.000 C 
BRANCH  22  23
ATOM     23  C   UNL     1       2.499   4.610  18.478  0.00  0.00    +0.000 A 
ATOM     24  C   UNL     1       1.622   4.356  19.541  0.00  0.00    +0.000 A 
ATOM     25  C   UNL     1       1.037   3.097  19.704  0.00  0.00    +0.000 A 
ATOM     26  C   UNL     1       1.321   2.070  18.806  0.00  0.00    +0.000 A 
ATOM     27  C   UNL     1       2.194   2.301  17.747  0.00  0.00    +0.000 A 
ATOM     28  C   UNL     1       2.776   3.559  17.593  0.00  0.00    +0.000 A 
ATOM     29  F   UNL     1       3.632   3.748  16.579  0.00  0.00    +0.000 F 
ENDBRANCH  22  23
BRANCH  22  30
ATOM     30  C   UNL     1       4.698   5.891  18.356  0.00  0.00    +0.000 C 
BRANCH  30  31
ATOM     31  C   UNL     1       5.406   6.611  17.237  0.00  0.00    +0.000 C 
ATOM     32  O   UNL     1       6.573   6.971  17.254  0.00  0.00    +0.000 OA
BRANCH  31  33
ATOM     33  O   UNL     1       4.587   6.902  16.197  0.00  0.00    +0.000 OA
ATOM     34  H   UNL     1       3.897   6.233  16.027  0.00  0.00    +0.000 HD
ENDBRANCH  31  33
ENDBRANCH  30  31
ENDBRANCH  22  30
ENDBRANCH  20  22
ENDBRANCH   4  18
BRANCH   1  36
ATOM     35  C   UNL     1      -1.401  11.185  23.099  0.00  0.00    +0.000 C 
ATOM     36  O   UNL     1      -0.599  11.699  22.042  0.00  0.00    +0.000 OA
ENDBRANCH   1  36
TORSDOF 9
ENDMDL
MODEL 7
REMARK VINA RESULT:      -7.9      2.980      4.870
REMARK  Name = 
REMARK  10 active torsions:
REMARK  status: ('A' for Active; 'I' for Inactive)
REMARK    1  A    between atoms: C_1  and  O_2
REMARK    2  A    between atoms: O_2  and  C_3
REMARK    3  A    between atoms: C_6  and  C_7
REMARK    4  A    between atoms: N_9  and  C_10
REMARK    5  A    between atoms: C_10  and  C_11
REMARK    6  A    between atoms: C_10  and  C_15
REMARK    7  A    between atoms: C_11  and  C_12
REMARK    8  A    between atoms: C_12  and  O_14
REMARK    9  A    between atoms: C_23  and  C_24
REMARK   10  A    between atoms: C_27  and  C_28
REMARK                            x       y       z     vdW  Elec       q    Type
REMARK                         _______ _______ _______ _____ _____    ______ ____
ROOT
ATOM      1  C   UNL     1       0.190  10.885  21.355  0.00  0.00    +0.000 A 
ATOM      2  C   UNL     1       0.304   9.525  21.653  0.00  0.00    +0.000 A 
ATOM      3  C   UNL     1       0.955   8.672  20.770  0.00  0.00    +0.000 A 
ATOM      4  C   UNL     1       1.483   9.205  19.606  0.00  0.00    +0.000 A 
ATOM      5  N   UNL     1       1.449  10.527  19.308  0.00  0.00    +0.000 NA
ATOM      6  C   UNL     1       0.805  11.366  20.175  0.00  0.00    +0.000 A 
ENDROOT
BRANCH   6   7
ATOM      7  C   UNL     1       0.843  12.798  19.778  0.00  0.00    +0.000 A 
ATOM      8  C   UNL     1       1.857  13.673  20.222  0.00  0.00    +0.000 A 
ATOM      9  C   UNL     1       1.918  15.011  19.809  0.00  0.00    +0.000 A 
ATOM     10  C   UNL     1       0.979  15.519  18.908  0.00  0.00    +0.000 A 
ATOM     11  C   UNL     1      -0.042  14.672  18.463  0.00  0.00    +0.000 A 
ATOM     12  C   UNL     1      -0.108  13.346  18.900  0.00  0.00    +0.000 A 
ATOM     13  F   UNL     1      -1.134  12.606  18.451  0.00  0.00    +0.000 F 
BRANCH  10  14
ATOM     14  C   UNL     1       1.069  16.936  18.403  0.00  0.00    +0.000 C 
ATOM     15  F   UNL     1       1.921  17.083  17.350  0.00  0.00    +0.000 F 
ATOM     16  F   UNL     1      -0.132  17.413  17.977  0.00  0.00    +0.000 F 
ATOM     17  F   UNL     1       1.503  17.804  19.357  0.00  0.00    +0.000 F 
ENDBRANCH  10  14
ENDBRANCH   6   7
BRANCH   4  18
ATOM     18  C   UNL     1       2.076   8.283  18.582  0.00  0.00    +0.000 C 
ATOM     19  O   UNL     1       2.098   8.599  17.396  0.00  0.00    +0.000 OA
ATOM     20  N   UNL     1       2.600   7.103  19.062  0.00  0.00    +0.000 N 
ATOM     21  H   UNL     1       2.414   6.879  20.041  0.00  0.00    +0.000 HD
BRANCH  20  22
ATOM     22  C   UNL     1       3.125   6.069  18.176  0.00  0.00    +0.000 C 
BRANCH  22  23
ATOM     23  C   UNL     1       2.503   4.705  18.421  0.00  0.00    +0.000 A 
ATOM     24  C   UNL     1       1.639   4.458  19.497  0.00  0.00    +0.000 A 
ATOM     25  C   UNL     1       1.095   3.187  19.702  0.00  0.00    +0.000 A 
ATOM     26  C   UNL     1       1.408   2.141  18.836  0.00  0.00    +0.000 A 
ATOM     27  C   UNL     1       2.269   2.365  17.766  0.00  0.00    +0.000 A 
ATOM     28  C   UNL     1       2.809   3.635  17.569  0.00  0.00    +0.000 A 
ATOM     29  F   UNL     1       3.655   3.818  16.545  0.00  0.00    +0.000 F 
ENDBRANCH  22  23
BRANCH  22  30
ATOM     30  C   UNL     1       4.661   6.033  18.153  0.00  0.00    +0.000 C 
BRANCH  30  31
ATOM     31  C   UNL     1       5.278   6.723  16.963  0.00  0.00    +0.000 C 
ATOM     32  O   UNL     1       4.828   6.713  15.828  0.00  0.00    +0.000 OA
BRANCH  31  33
ATOM     33  O   UNL     1       6.459   7.319  17.255  0.00  0.00    +0.000 OA
ATOM     34  H   UNL     1       7.247   6.791  17.022  0.00  0.00    +0.000 HD
ENDBRANCH  31  33
ENDBRANCH  30  31
ENDBRANCH  22  30
ENDBRANCH  20  22
ENDBRANCH   4  18
BRANCH   1  36
ATOM     35  C   UNL     1      -1.450  11.255  23.063  0.00  0.00    +0.000 C 
ATOM     36  O   UNL     1      -0.500  11.772  22.138  0.00  0.00    +0.000 OA
ENDBRANCH   1  36
TORSDOF 9
ENDMDL
MODEL 8
REMARK VINA RESULT:      -7.9      2.799      4.649
REMARK  Name = 
REMARK  10 active torsions:
REMARK  status: ('A' for Active; 'I' for Inactive)
REMARK    1  A    between atoms: C_1  and  O_2
REMARK    2  A    between atoms: O_2  and  C_3
REMARK    3  A    between atoms: C_6  and  C_7
REMARK    4  A    between atoms: N_9  and  C_10
REMARK    5  A    between atoms: C_10  and  C_11
REMARK    6  A    between atoms: C_10  and  C_15
REMARK    7  A    between atoms: C_11  and  C_12
REMARK    8  A    between atoms: C_12  and  O_14
REMARK    9  A    between atoms: C_23  and  C_24
REMARK   10  A    between atoms: C_27  and  C_28
REMARK                            x       y       z     vdW  Elec       q    Type
REMARK                         _______ _______ _______ _____ _____    ______ ____
ROOT
ATOM      1  C   UNL     1       0.484  10.764  21.508  0.00  0.00    +0.000 A 
ATOM      2  C   UNL     1       0.704   9.415  21.792  0.00  0.00    +0.000 A 
ATOM      3  C   UNL     1       1.264   8.583  20.828  0.00  0.00    +0.000 A 
ATOM      4  C   UNL     1       1.596   9.128  19.599  0.00  0.00    +0.000 A 
ATOM      5  N   UNL     1       1.457  10.445  19.304  0.00  0.00    +0.000 NA
ATOM      6  C   UNL     1       0.902  11.261  20.251  0.00  0.00    +0.000 A 
ENDROOT
BRANCH   6   7
ATOM      7  C   UNL     1       0.815  12.689  19.848  0.00  0.00    +0.000 A 
ATOM      8  C   UNL     1       1.834  13.618  20.149  0.00  0.00    +0.000 A 
ATOM      9  C   UNL     1       1.772  14.953  19.728  0.00  0.00    +0.000 A 
ATOM     10  C   UNL     1       0.697  15.404  18.957  0.00  0.00    +0.000 A 
ATOM     11  C   UNL     1      -0.330  14.504  18.655  0.00  0.00    +0.000 A 
ATOM     12  C   UNL     1      -0.270  13.181  19.101  0.00  0.00    +0.000 A 
ATOM     13  F   UNL     1      -1.309  12.386  18.796  0.00  0.00    +0.000 F 
BRANCH  10  14
ATOM     14  C   UNL     1       0.648  16.819  18.440  0.00  0.00    +0.000 C 
ATOM     15  F   UNL     1      -0.449  17.078  17.673  0.00  0.00    +0.000 F 
ATOM     16  F   UNL     1       0.622  17.739  19.443  0.00  0.00    +0.000 F 
ATOM     17  F   UNL     1       1.724  17.133  17.669  0.00  0.00    +0.000 F 
ENDBRANCH  10  14
ENDBRANCH   6   7
BRANCH   4  18
ATOM     18  C   UNL     1       2.082   8.225  18.506  0.00  0.00    +0.000 C 
ATOM     19  O   UNL     1       2.067   8.598  17.335  0.00  0.00    +0.000 OA
ATOM     20  N   UNL     1       2.554   6.993  18.903  0.00  0.00    +0.000 N 
ATOM     21  H   UNL     1       2.400   6.732  19.878  0.00  0.00    +0.000 HD
BRANCH  20  22
ATOM     22  C   UNL     1       2.971   5.976  17.944  0.00  0.00    +0.000 C 
BRANCH  22  23
ATOM     23  C   UNL     1       2.415   4.598  18.260  0.00  0.00    +0.000 A 
ATOM     24  C   UNL     1       1.604   4.356  19.378  0.00  0.00    +0.000 A 
ATOM     25  C   UNL     1       1.120   3.073  19.648  0.00  0.00    +0.000 A 
ATOM     26  C   UNL     1       1.439   2.010  18.806  0.00  0.00    +0.000 A 
ATOM     27  C   UNL     1       2.248   2.229  17.695  0.00  0.00    +0.000 A 
ATOM     28  C   UNL     1       2.729   3.511  17.433  0.00  0.00    +0.000 A 
ATOM     29  F   UNL     1       3.526   3.690  16.370  0.00  0.00    +0.000 F 
ENDBRANCH  22  23
BRANCH  22  30
ATOM     30  C   UNL     1       4.490   5.970  17.711  0.00  0.00    +0.000 C 
BRANCH  30  31
ATOM     31  C   UNL     1       5.272   5.208  18.750  0.00  0.00    +0.000 C 
ATOM     32  O   UNL     1       6.042   4.288  18.523  0.00  0.00    +0.000 OA
BRANCH  31  33
ATOM     33  O   UNL     1       4.983   5.598  20.016  0.00  0.00    +0.000 OA
ATOM     34  H   UNL     1       5.347   5.016  20.711  0.00  0.00    +0.000 HD
ENDBRANCH  31  33
ENDBRANCH  30  31
ENDBRANCH  22  30
ENDBRANCH  20  22
ENDBRANCH   4  18
BRANCH   1  36
ATOM     35  C   UNL     1      -1.337  11.203  23.004  0.00  0.00    +0.000 C 
ATOM     36  O   UNL     1      -0.130  11.626  22.378  0.00  0.00    +0.000 OA
ENDBRANCH   1  36
TORSDOF 9
ENDMDL
MODEL 9
REMARK VINA RESULT:      -7.9      2.603      9.912
REMARK  Name = 
REMARK  10 active torsions:
REMARK  status: ('A' for Active; 'I' for Inactive)
REMARK    1  A    between atoms: C_1  and  O_2
REMARK    2  A    between atoms: O_2  and  C_3
REMARK    3  A    between atoms: C_6  and  C_7
REMARK    4  A    between atoms: N_9  and  C_10
REMARK    5  A    between atoms: C_10  and  C_11
REMARK    6  A    between atoms: C_10  and  C_15
REMARK    7  A    between atoms: C_11  and  C_12
REMARK    8  A    between atoms: C_12  and  O_14
REMARK    9  A    between atoms: C_23  and  C_24
REMARK   10  A    between atoms: C_27  and  C_28
REMARK                            x       y       z     vdW  Elec       q    Type
REMARK                         _______ _______ _______ _____ _____    ______ ____
ROOT
ATOM      1  C   UNL     1       2.377   6.233  20.206  0.00  0.00    +0.000 A 
ATOM      2  C   UNL     1       1.435   6.846  21.034  0.00  0.00    +0.000 A 
ATOM      3  C   UNL     1       0.915   8.090  20.695  0.00  0.00    +0.000 A 
ATOM      4  C   UNL     1       1.350   8.691  19.525  0.00  0.00    +0.000 A 
ATOM      5  N   UNL     1       2.216   8.103  18.662  0.00  0.00    +0.000 NA
ATOM      6  C   UNL     1       2.730   6.882  18.999  0.00  0.00    +0.000 A 
ENDROOT
BRANCH   6   7
ATOM      7  C   UNL     1       3.647   6.306  17.980  0.00  0.00    +0.000 A 
ATOM      8  C   UNL     1       4.828   6.963  17.575  0.00  0.00    +0.000 A 
ATOM      9  C   UNL     1       5.715   6.396  16.649  0.00  0.00    +0.000 A 
ATOM     10  C   UNL     1       5.467   5.129  16.114  0.00  0.00    +0.000 A 
ATOM     11  C   UNL     1       4.296   4.463  16.493  0.00  0.00    +0.000 A 
ATOM     12  C   UNL     1       3.407   5.048  17.399  0.00  0.00    +0.000 A 
ATOM     13  F   UNL     1       2.291   4.360  17.689  0.00  0.00    +0.000 F 
BRANCH  10  14
ATOM     14  C   UNL     1       6.443   4.478  15.168  0.00  0.00    +0.000 C 
ATOM     15  F   UNL     1       6.665   5.203  14.035  0.00  0.00    +0.000 F 
ATOM     16  F   UNL     1       7.667   4.290  15.732  0.00  0.00    +0.000 F 
ATOM     17  F   UNL     1       6.028   3.252  14.750  0.00  0.00    +0.000 F 
ENDBRANCH  10  14
ENDBRANCH   6   7
BRANCH   4  18
ATOM     18  C   UNL     1       0.899  10.085  19.207  0.00  0.00    +0.000 C 
ATOM     19  O   UNL     1       1.671  10.887  18.688  0.00  0.00    +0.000 OA
ATOM     20  N   UNL     1      -0.412  10.380  19.508  0.00  0.00    +0.000 N 
ATOM     21  H   UNL     1      -0.928   9.689  20.055  0.00  0.00    +0.000 HD
BRANCH  20  22
ATOM     22  C   UNL     1      -0.965  11.720  19.340  0.00  0.00    +0.000 C 
BRANCH  22  23
ATOM     23  C   UNL     1      -1.940  12.103  20.441  0.00  0.00    +0.000 A 
ATOM     24  C   UNL     1      -3.244  12.537  20.167  0.00  0.00    +0.000 A 
ATOM     25  C   UNL     1      -4.112  12.896  21.202  0.00  0.00    +0.000 A 
ATOM     26  C   UNL     1      -3.690  12.827  22.528  0.00  0.00    +0.000 A 
ATOM     27  C   UNL     1      -2.396  12.404  22.819  0.00  0.00    +0.000 A 
ATOM     28  C   UNL     1      -1.535  12.051  21.781  0.00  0.00    +0.000 A 
ATOM     29  F   UNL     1      -0.286  11.670  22.087  0.00  0.00    +0.000 F 
ENDBRANCH  22  23
BRANCH  22  30
ATOM     30  C   UNL     1      -1.529  11.956  17.931  0.00  0.00    +0.000 C 
BRANCH  30  31
ATOM     31  C   UNL     1      -2.187  10.746  17.318  0.00  0.00    +0.000 C 
ATOM     32  O   UNL     1      -2.648   9.801  17.939  0.00  0.00    +0.000 OA
BRANCH  31  33
ATOM     33  O   UNL     1      -2.159  10.761  15.963  0.00  0.00    +0.000 OA
ATOM     34  H   UNL     1      -2.976  10.437  15.539  0.00  0.00    +0.000 HD
ENDBRANCH  31  33
ENDBRANCH  30  31
ENDBRANCH  22  30
ENDBRANCH  20  22
ENDBRANCH   4  18
BRANCH   1  36
ATOM     35  C   UNL     1       2.222   4.045  21.170  0.00  0.00    +0.000 C 
ATOM     36  O   UNL     1       2.988   5.046  20.511  0.00  0.00    +0.000 OA
ENDBRANCH   1  36
TORSDOF 9
ENDMDL
