MODEL 1
REMARK VINA RESULT:      -9.6      0.000      0.000
REMARK  Name = 
REMARK  3 active torsions:
REMARK  status: ('A' for Active; 'I' for Inactive)
REMARK    1  A    between atoms: N_7  and  C_8
REMARK    2  A    between atoms: C_8  and  C_9
REMARK    3  A    between atoms: N_24  and  C_25
REMARK                            x       y       z     vdW  Elec       q    Type
REMARK                         _______ _______ _______ _____ _____    ______ ____
ROOT
ATOM      1  C   UNL     1       2.763   5.275  18.430  0.00  0.00    +0.000 A 
ATOM      2  C   UNL     1       2.714   6.656  18.292  0.00  0.00    +0.000 A 
ATOM      3  C   UNL     1       2.253   7.429  19.348  0.00  0.00    +0.000 A 
ATOM      4  C   UNL     1       1.834   6.826  20.528  0.00  0.00    +0.000 A 
ATOM      5  N   UNL     1       1.426   7.560  21.638  0.00  0.00    +0.000 N 
ATOM      6  C   UNL     1       0.809   8.803  21.693  0.00  0.00    +0.000 A 
ATOM      7  N   UNL     1       0.353   9.190  22.904  0.00  0.00    +0.000 NA
ATOM      8  C   UNL     1      -0.360  10.337  23.011  0.00  0.00    +0.000 A 
ATOM      9  C   UNL     1      -0.616  11.100  21.878  0.00  0.00    +0.000 A 
ATOM     10  C   UNL     1      -1.364  12.253  21.530  0.00  0.00    +0.000 A 
ATOM     11  C   UNL     1      -2.369  13.023  22.129  0.00  0.00    +0.000 A 
ATOM     12  C   UNL     1      -2.694  14.206  21.478  0.00  0.00    +0.000 A 
ATOM     13  N   UNL     1      -2.043  14.698  20.403  0.00  0.00    +0.000 NA
ATOM     14  C   UNL     1      -1.114  13.931  19.795  0.00  0.00    +0.000 A 
ATOM     15  C   UNL     1      -0.896  12.648  20.276  0.00  0.00    +0.000 A 
ATOM     16  N   UNL     1      -0.403  11.493  19.690  0.00  0.00    +0.000 N 
ATOM     17  C   UNL     1      -0.036  10.642  20.709  0.00  0.00    +0.000 A 
ATOM     18  N   UNL     1       0.650   9.508  20.563  0.00  0.00    +0.000 NA
ATOM     19  N   UNL     1       1.841   5.482  20.664  0.00  0.00    +0.000 NA
ATOM     20  C   UNL     1       2.284   4.738  19.618  0.00  0.00    +0.000 A 
ATOM     21  H   UNL     1       1.204   6.993  22.439  0.00  0.00    +0.000 HD
ENDROOT
BRANCH  16  22
ATOM     22  C   UNL     1      -0.855  10.971  18.397  0.00  0.00    +0.000 C 
ATOM     23  C   UNL     1      -1.959   9.917  18.588  0.00  0.00    +0.000 C 
ATOM     24  C   UNL     1      -2.705   9.862  17.270  0.00  0.00    +0.000 C 
ATOM     25  C   UNL     1      -2.534  11.231  16.629  0.00  0.00    +0.000 C 
ATOM     26  C   UNL     1      -1.439  11.970  17.398  0.00  0.00    +0.000 C 
ENDBRANCH  16  22
BRANCH   1  27
ATOM     27  C   UNL     1       3.390   4.418  17.370  0.00  0.00    +0.000 C 
BRANCH  27  34
ATOM     28  O   UNL     1       5.346   3.678  19.186  0.00  0.00    +0.000 OA
ATOM     29  C   UNL     1       5.707   4.263  18.162  0.00  0.00    +0.000 C 
ATOM     30  C   UNL     1       7.156   4.759  18.018  0.00  0.00    +0.000 C 
ATOM     31  N   UNL     1       7.619   4.913  16.623  0.00  0.00    +0.000 NA
ATOM     32  C   UNL     1       6.647   5.710  15.873  0.00  0.00    +0.000 C 
ATOM     33  C   UNL     1       5.291   5.005  15.834  0.00  0.00    +0.000 C 
ATOM     34  N   UNL     1       4.815   4.628  17.162  0.00  0.00    +0.000 N 
ATOM     35  H   UNL     1       7.682   3.982  16.209  0.00  0.00    +0.000 HD
ENDBRANCH  27  34
ENDBRANCH   1  27
TORSDOF 3
ENDMDL
MODEL 2
REMARK VINA RESULT:      -9.3      0.849      1.154
REMARK  Name = 
REMARK  3 active torsions:
REMARK  status: ('A' for Active; 'I' for Inactive)
REMARK    1  A    between atoms: N_7  and  C_8
REMARK    2  A    between atoms: C_8  and  C_9
REMARK    3  A    between atoms: N_24  and  C_25
REMARK                            x       y       z     vdW  Elec       q    Type
REMARK                         _______ _______ _______ _____ _____    ______ ____
ROOT
ATOM      1  C   UNL     1       2.841   5.379  18.301  0.00  0.00    +0.000 A 
ATOM      2  C   UNL     1       2.739   6.760  18.195  0.00  0.00    +0.000 A 
ATOM      3  C   UNL     1       2.263   7.491  19.274  0.00  0.00    +0.000 A 
ATOM      4  C   UNL     1       1.881   6.847  20.445  0.00  0.00    +0.000 A 
ATOM      5  N   UNL     1       1.460   7.541  21.576  0.00  0.00    +0.000 N 
ATOM      6  C   UNL     1       0.798   8.758  21.666  0.00  0.00    +0.000 A 
ATOM      7  N   UNL     1       0.343   9.100  22.892  0.00  0.00    +0.000 NA
ATOM      8  C   UNL     1      -0.411  10.217  23.032  0.00  0.00    +0.000 A 
ATOM      9  C   UNL     1      -0.709  10.995  21.921  0.00  0.00    +0.000 A 
ATOM     10  C   UNL     1      -1.504  12.127  21.608  0.00  0.00    +0.000 A 
ATOM     11  C   UNL     1      -2.529  12.844  22.235  0.00  0.00    +0.000 A 
ATOM     12  C   UNL     1      -2.907  14.029  21.616  0.00  0.00    +0.000 A 
ATOM     13  N   UNL     1      -2.288  14.568  20.545  0.00  0.00    +0.000 NA
ATOM     14  C   UNL     1      -1.338  13.851  19.908  0.00  0.00    +0.000 A 
ATOM     15  C   UNL     1      -1.067  12.566  20.358  0.00  0.00    +0.000 A 
ATOM     16  N   UNL     1      -0.538  11.445  19.740  0.00  0.00    +0.000 N 
ATOM     17  C   UNL     1      -0.127  10.585  20.735  0.00  0.00    +0.000 A 
ATOM     18  N   UNL     1       0.598   9.482  20.555  0.00  0.00    +0.000 NA
ATOM     19  N   UNL     1       1.941   5.501  20.550  0.00  0.00    +0.000 NA
ATOM     20  C   UNL     1       2.397   4.798  19.482  0.00  0.00    +0.000 A 
ATOM     21  H   UNL     1       1.269   6.947  22.367  0.00  0.00    +0.000 HD
ENDROOT
BRANCH  16  22
ATOM     22  C   UNL     1      -0.987  10.935  18.441  0.00  0.00    +0.000 C 
ATOM     23  C   UNL     1      -2.139   9.930  18.615  0.00  0.00    +0.000 C 
ATOM     24  C   UNL     1      -2.861   9.900  17.282  0.00  0.00    +0.000 C 
ATOM     25  C   UNL     1      -2.617  11.256  16.638  0.00  0.00    +0.000 C 
ATOM     26  C   UNL     1      -1.507  11.952  17.425  0.00  0.00    +0.000 C 
ENDBRANCH  16  22
BRANCH   1  27
ATOM     27  C   UNL     1       3.485   4.570  17.215  0.00  0.00    +0.000 C 
BRANCH  27  34
ATOM     28  O   UNL     1       4.869   4.490  14.817  0.00  0.00    +0.000 OA
ATOM     29  C   UNL     1       5.527   4.610  15.854  0.00  0.00    +0.000 C 
ATOM     30  C   UNL     1       7.060   4.487  15.822  0.00  0.00    +0.000 C 
ATOM     31  N   UNL     1       7.755   5.179  16.926  0.00  0.00    +0.000 NA
ATOM     32  C   UNL     1       7.160   4.781  18.203  0.00  0.00    +0.000 C 
ATOM     33  C   UNL     1       5.687   5.190  18.258  0.00  0.00    +0.000 C 
ATOM     34  N   UNL     1       4.929   4.717  17.103  0.00  0.00    +0.000 N 
ATOM     35  H   UNL     1       7.630   6.185  16.794  0.00  0.00    +0.000 HD
ENDBRANCH  27  34
ENDBRANCH   1  27
TORSDOF 3
ENDMDL
MODEL 3
REMARK VINA RESULT:      -9.2      0.928      1.004
REMARK  Name = 
REMARK  3 active torsions:
REMARK  status: ('A' for Active; 'I' for Inactive)
REMARK    1  A    between atoms: N_7  and  C_8
REMARK    2  A    between atoms: C_8  and  C_9
REMARK    3  A    between atoms: N_24  and  C_25
REMARK                            x       y       z     vdW  Elec       q    Type
REMARK                         _______ _______ _______ _____ _____    ______ ____
ROOT
ATOM      1  C   UNL     1       2.653   6.137  18.552  0.00  0.00    +0.000 A 
ATOM      2  C   UNL     1       2.531   7.519  18.505  0.00  0.00    +0.000 A 
ATOM      3  C   UNL     1       1.976   8.190  19.586  0.00  0.00    +0.000 A 
ATOM      4  C   UNL     1       1.538   7.484  20.700  0.00  0.00    +0.000 A 
ATOM      5  N   UNL     1       1.036   8.116  21.834  0.00  0.00    +0.000 N 
ATOM      6  C   UNL     1       0.347   9.317  21.941  0.00  0.00    +0.000 A 
ATOM      7  N   UNL     1      -0.188   9.592  23.151  0.00  0.00    +0.000 NA
ATOM      8  C   UNL     1      -0.970  10.689  23.298  0.00  0.00    +0.000 A 
ATOM      9  C   UNL     1      -1.216  11.514  22.207  0.00  0.00    +0.000 A 
ATOM     10  C   UNL     1      -2.012  12.646  21.900  0.00  0.00    +0.000 A 
ATOM     11  C   UNL     1      -3.088  13.316  22.497  0.00  0.00    +0.000 A 
ATOM     12  C   UNL     1      -3.450  14.522  21.912  0.00  0.00    +0.000 A 
ATOM     13  N   UNL     1      -2.779  15.122  20.907  0.00  0.00    +0.000 NA
ATOM     14  C   UNL     1      -1.778  14.452  20.296  0.00  0.00    +0.000 A 
ATOM     15  C   UNL     1      -1.510  13.152  20.701  0.00  0.00    +0.000 A 
ATOM     16  N   UNL     1      -0.923  12.070  20.064  0.00  0.00    +0.000 N 
ATOM     17  C   UNL     1      -0.556  11.171  21.042  0.00  0.00    +0.000 A 
ATOM     18  N   UNL     1       0.200  10.089  20.854  0.00  0.00    +0.000 NA
ATOM     19  N   UNL     1       1.617   6.137  20.745  0.00  0.00    +0.000 NA
ATOM     20  C   UNL     1       2.150   5.493  19.675  0.00  0.00    +0.000 A 
ATOM     21  H   UNL     1       0.810   7.483  22.583  0.00  0.00    +0.000 HD
ENDROOT
BRANCH  16  22
ATOM     22  C   UNL     1      -1.283  11.616  18.718  0.00  0.00    +0.000 C 
ATOM     23  C   UNL     1      -0.533  10.321  18.359  0.00  0.00    +0.000 C 
ATOM     24  C   UNL     1      -1.346   9.669  17.259  0.00  0.00    +0.000 C 
ATOM     25  C   UNL     1      -2.779  10.139  17.455  0.00  0.00    +0.000 C 
ATOM     26  C   UNL     1      -2.755  11.300  18.450  0.00  0.00    +0.000 C 
ENDBRANCH  16  22
BRANCH   1  27
ATOM     27  C   UNL     1       3.377   5.392  17.471  0.00  0.00    +0.000 C 
BRANCH  27  34
ATOM     28  O   UNL     1       5.103   3.630  18.731  0.00  0.00    +0.000 OA
ATOM     29  C   UNL     1       5.595   4.620  18.185  0.00  0.00    +0.000 C 
ATOM     30  C   UNL     1       7.077   4.972  18.398  0.00  0.00    +0.000 C 
ATOM     31  N   UNL     1       7.680   5.777  17.316  0.00  0.00    +0.000 NA
ATOM     32  C   UNL     1       6.833   6.939  17.043  0.00  0.00    +0.000 C 
ATOM     33  C   UNL     1       5.449   6.495  16.570  0.00  0.00    +0.000 C 
ATOM     34  N   UNL     1       4.825   5.536  17.478  0.00  0.00    +0.000 N 
ATOM     35  H   UNL     1       7.730   5.192  16.480  0.00  0.00    +0.000 HD
ENDBRANCH  27  34
ENDBRANCH   1  27
TORSDOF 3
ENDMDL
MODEL 4
REMARK VINA RESULT:      -9.2      1.787      2.263
REMARK  Name = 
REMARK  3 active torsions:
REMARK  status: ('A' for Active; 'I' for Inactive)
REMARK    1  A    between atoms: N_7  and  C_8
REMARK    2  A    between atoms: C_8  and  C_9
REMARK    3  A    between atoms: N_24  and  C_25
REMARK                            x       y       z     vdW  Elec       q    Type
REMARK                         _______ _______ _______ _____ _____    ______ ____
ROOT
ATOM      1  C   UNL     1       2.488   6.421  18.873  0.00  0.00    +0.000 A 
ATOM      2  C   UNL     1       2.359   7.799  18.762  0.00  0.00    +0.000 A 
ATOM      3  C   UNL     1       1.780   8.514  19.802  0.00  0.00    +0.000 A 
ATOM      4  C   UNL     1       1.325   7.856  20.938  0.00  0.00    +0.000 A 
ATOM      5  N   UNL     1       0.798   8.534  22.033  0.00  0.00    +0.000 N 
ATOM      6  C   UNL     1       0.100   9.733  22.073  0.00  0.00    +0.000 A 
ATOM      7  N   UNL     1      -0.458  10.058  23.260  0.00  0.00    +0.000 NA
ATOM      8  C   UNL     1      -1.250  11.155  23.343  0.00  0.00    +0.000 A 
ATOM      9  C   UNL     1      -1.480  11.929  22.213  0.00  0.00    +0.000 A 
ATOM     10  C   UNL     1      -2.277  13.042  21.841  0.00  0.00    +0.000 A 
ATOM     11  C   UNL     1      -3.367  13.730  22.387  0.00  0.00    +0.000 A 
ATOM     12  C   UNL     1      -3.726  14.906  21.742  0.00  0.00    +0.000 A 
ATOM     13  N   UNL     1      -3.040  15.466  20.724  0.00  0.00    +0.000 NA
ATOM     14  C   UNL     1      -2.024  14.776  20.162  0.00  0.00    +0.000 A 
ATOM     15  C   UNL     1      -1.756  13.497  20.630  0.00  0.00    +0.000 A 
ATOM     16  N   UNL     1      -1.151  12.392  20.053  0.00  0.00    +0.000 N 
ATOM     17  C   UNL     1      -0.796  11.539  21.076  0.00  0.00    +0.000 A 
ATOM     18  N   UNL     1      -0.031  10.456  20.951  0.00  0.00    +0.000 NA
ATOM     19  N   UNL     1       1.411   6.512  21.045  0.00  0.00    +0.000 NA
ATOM     20  C   UNL     1       1.968   5.824  20.015  0.00  0.00    +0.000 A 
ATOM     21  H   UNL     1       0.562   7.933  22.806  0.00  0.00    +0.000 HD
ENDROOT
BRANCH  16  22
ATOM     22  C   UNL     1      -1.483  11.875  18.722  0.00  0.00    +0.000 C 
ATOM     23  C   UNL     1      -0.681  10.598  18.415  0.00  0.00    +0.000 C 
ATOM     24  C   UNL     1      -1.461   9.876  17.334  0.00  0.00    +0.000 C 
ATOM     25  C   UNL     1      -2.912  10.298  17.505  0.00  0.00    +0.000 C 
ATOM     26  C   UNL     1      -2.940  11.494  18.456  0.00  0.00    +0.000 C 
ENDBRANCH  16  22
BRANCH   1  27
ATOM     27  C   UNL     1       3.236   5.633  17.839  0.00  0.00    +0.000 C 
BRANCH  27  34
ATOM     28  O   UNL     1       1.860   3.480  16.772  0.00  0.00    +0.000 OA
ATOM     29  C   UNL     1       2.717   3.244  17.628  0.00  0.00    +0.000 C 
ATOM     30  C   UNL     1       2.845   1.837  18.235  0.00  0.00    +0.000 C 
ATOM     31  N   UNL     1       4.182   1.521  18.780  0.00  0.00    +0.000 NA
ATOM     32  C   UNL     1       4.604   2.592  19.684  0.00  0.00    +0.000 C 
ATOM     33  C   UNL     1       4.715   3.918  18.930  0.00  0.00    +0.000 C 
ATOM     34  N   UNL     1       3.502   4.245  18.186  0.00  0.00    +0.000 N 
ATOM     35  H   UNL     1       4.834   1.464  17.996  0.00  0.00    +0.000 HD
ENDBRANCH  27  34
ENDBRANCH   1  27
TORSDOF 3
ENDMDL
MODEL 5
REMARK VINA RESULT:      -9.2      1.212      1.513
REMARK  Name = 
REMARK  3 active torsions:
REMARK  status: ('A' for Active; 'I' for Inactive)
REMARK    1  A    between atoms: N_7  and  C_8
REMARK    2  A    between atoms: C_8  and  C_9
REMARK    3  A    between atoms: N_24  and  C_25
REMARK                            x       y       z     vdW  Elec       q    Type
REMARK                         _______ _______ _______ _____ _____    ______ ____
ROOT
ATOM      1  C   UNL     1       2.730   6.149  18.441  0.00  0.00    +0.000 A 
ATOM      2  C   UNL     1       2.596   7.531  18.418  0.00  0.00    +0.000 A 
ATOM      3  C   UNL     1       2.039   8.178  19.512  0.00  0.00    +0.000 A 
ATOM      4  C   UNL     1       1.610   7.449  20.615  0.00  0.00    +0.000 A 
ATOM      5  N   UNL     1       1.106   8.057  21.762  0.00  0.00    +0.000 N 
ATOM      6  C   UNL     1       0.407   9.249  21.891  0.00  0.00    +0.000 A 
ATOM      7  N   UNL     1      -0.126   9.499  23.108  0.00  0.00    +0.000 NA
ATOM      8  C   UNL     1      -0.917  10.586  23.276  0.00  0.00    +0.000 A 
ATOM      9  C   UNL     1      -1.173  11.428  22.201  0.00  0.00    +0.000 A 
ATOM     10  C   UNL     1      -1.980  12.559  21.916  0.00  0.00    +0.000 A 
ATOM     11  C   UNL     1      -3.059  13.209  22.528  0.00  0.00    +0.000 A 
ATOM     12  C   UNL     1      -3.433  14.422  21.965  0.00  0.00    +0.000 A 
ATOM     13  N   UNL     1      -2.769  15.046  20.969  0.00  0.00    +0.000 NA
ATOM     14  C   UNL     1      -1.766  14.395  20.344  0.00  0.00    +0.000 A 
ATOM     15  C   UNL     1      -1.485  13.090  20.725  0.00  0.00    +0.000 A 
ATOM     16  N   UNL     1      -0.892  12.025  20.067  0.00  0.00    +0.000 N 
ATOM     17  C   UNL     1      -0.514  11.111  21.028  0.00  0.00    +0.000 A 
ATOM     18  N   UNL     1       0.251  10.040  20.819  0.00  0.00    +0.000 NA
ATOM     19  N   UNL     1       1.700   6.102  20.636  0.00  0.00    +0.000 NA
ATOM     20  C   UNL     1       2.235   5.481  19.554  0.00  0.00    +0.000 A 
ATOM     21  H   UNL     1       0.887   7.408  22.500  0.00  0.00    +0.000 HD
ENDROOT
BRANCH  16  22
ATOM     22  C   UNL     1      -1.251  11.591  18.714  0.00  0.00    +0.000 C 
ATOM     23  C   UNL     1      -0.529  10.283  18.348  0.00  0.00    +0.000 C 
ATOM     24  C   UNL     1      -1.349   9.660  17.236  0.00  0.00    +0.000 C 
ATOM     25  C   UNL     1      -2.772  10.162  17.427  0.00  0.00    +0.000 C 
ATOM     26  C   UNL     1      -2.728  11.313  18.432  0.00  0.00    +0.000 C 
ENDBRANCH  16  22
BRANCH   1  27
ATOM     27  C   UNL     1       3.457   5.429  17.344  0.00  0.00    +0.000 C 
BRANCH  27  34
ATOM     28  O   UNL     1       4.998   6.796  15.492  0.00  0.00    +0.000 OA
ATOM     29  C   UNL     1       5.587   6.185  16.389  0.00  0.00    +0.000 C 
ATOM     30  C   UNL     1       7.114   6.008  16.336  0.00  0.00    +0.000 C 
ATOM     31  N   UNL     1       7.753   5.792  17.651  0.00  0.00    +0.000 NA
ATOM     32  C   UNL     1       7.060   4.716  18.360  0.00  0.00    +0.000 C 
ATOM     33  C   UNL     1       5.600   5.095  18.614  0.00  0.00    +0.000 C 
ATOM     34  N   UNL     1       4.908   5.515  17.399  0.00  0.00    +0.000 N 
ATOM     35  H   UNL     1       7.669   6.658  18.186  0.00  0.00    +0.000 HD
ENDBRANCH  27  34
ENDBRANCH   1  27
TORSDOF 3
ENDMDL
MODEL 6
REMARK VINA RESULT:      -8.9      1.898      2.453
REMARK  Name = 
REMARK  3 active torsions:
REMARK  status: ('A' for Active; 'I' for Inactive)
REMARK    1  A    between atoms: N_7  and  C_8
REMARK    2  A    between atoms: C_8  and  C_9
REMARK    3  A    between atoms: N_24  and  C_25
REMARK                            x       y       z     vdW  Elec       q    Type
REMARK                         _______ _______ _______ _____ _____    ______ ____
ROOT
ATOM      1  C   UNL     1       2.438   6.722  18.768  0.00  0.00    +0.000 A 
ATOM      2  C   UNL     1       2.017   8.026  18.540  0.00  0.00    +0.000 A 
ATOM      3  C   UNL     1       1.506   8.770  19.595  0.00  0.00    +0.000 A 
ATOM      4  C   UNL     1       1.406   8.211  20.863  0.00  0.00    +0.000 A 
ATOM      5  N   UNL     1       0.962   8.936  21.966  0.00  0.00    +0.000 N 
ATOM      6  C   UNL     1       0.057   9.988  22.021  0.00  0.00    +0.000 A 
ATOM      7  N   UNL     1      -0.331  10.376  23.256  0.00  0.00    +0.000 NA
ATOM      8  C   UNL     1      -1.298  11.318  23.383  0.00  0.00    +0.000 A 
ATOM      9  C   UNL     1      -1.879  11.869  22.248  0.00  0.00    +0.000 A 
ATOM     10  C   UNL     1      -2.937  12.759  21.932  0.00  0.00    +0.000 A 
ATOM     11  C   UNL     1      -4.025  13.317  22.614  0.00  0.00    +0.000 A 
ATOM     12  C   UNL     1      -4.723  14.307  21.936  0.00  0.00    +0.000 A 
ATOM     13  N   UNL     1      -4.359  14.827  20.745  0.00  0.00    +0.000 NA
ATOM     14  C   UNL     1      -3.345  14.253  20.063  0.00  0.00    +0.000 A 
ATOM     15  C   UNL     1      -2.746  13.121  20.598  0.00  0.00    +0.000 A 
ATOM     16  N   UNL     1      -2.047  12.068  20.030  0.00  0.00    +0.000 N 
ATOM     17  C   UNL     1      -1.349  11.446  21.043  0.00  0.00    +0.000 A 
ATOM     18  N   UNL     1      -0.418  10.507  20.879  0.00  0.00    +0.000 NA
ATOM     19  N   UNL     1       1.777   6.933  21.092  0.00  0.00    +0.000 NA
ATOM     20  C   UNL     1       2.264   6.213  20.049  0.00  0.00    +0.000 A 
ATOM     21  H   UNL     1       0.995   8.420  22.829  0.00  0.00    +0.000 HD
ENDROOT
BRANCH  16  22
ATOM     22  C   UNL     1      -2.504  11.316  18.858  0.00  0.00    +0.000 C 
ATOM     23  C   UNL     1      -3.984  11.615  18.558  0.00  0.00    +0.000 C 
ATOM     24  C   UNL     1      -4.186  11.261  17.099  0.00  0.00    +0.000 C 
ATOM     25  C   UNL     1      -2.830  11.430  16.430  0.00  0.00    +0.000 C 
ATOM     26  C   UNL     1      -1.781  11.564  17.534  0.00  0.00    +0.000 C 
ENDBRANCH  16  22
BRANCH   1  27
ATOM     27  C   UNL     1       3.129   5.938  17.692  0.00  0.00    +0.000 C 
BRANCH  27  34
ATOM     28  O   UNL     1       1.306   3.958  17.039  0.00  0.00    +0.000 OA
ATOM     29  C   UNL     1       2.322   3.621  17.653  0.00  0.00    +0.000 C 
ATOM     30  C   UNL     1       2.450   2.200  18.227  0.00  0.00    +0.000 C 
ATOM     31  N   UNL     1       3.840   1.737  18.420  0.00  0.00    +0.000 NA
ATOM     32  C   UNL     1       4.589   2.745  19.172  0.00  0.00    +0.000 C 
ATOM     33  C   UNL     1       4.646   4.061  18.396  0.00  0.00    +0.000 C 
ATOM     34  N   UNL     1       3.325   4.525  17.980  0.00  0.00    +0.000 N 
ATOM     35  H   UNL     1       4.263   1.621  17.498  0.00  0.00    +0.000 HD
ENDBRANCH  27  34
ENDBRANCH   1  27
TORSDOF 3
ENDMDL
MODEL 7
REMARK VINA RESULT:      -8.9      1.173      1.259
REMARK  Name = 
REMARK  3 active torsions:
REMARK  status: ('A' for Active; 'I' for Inactive)
REMARK    1  A    between atoms: N_7  and  C_8
REMARK    2  A    between atoms: C_8  and  C_9
REMARK    3  A    between atoms: N_24  and  C_25
REMARK                            x       y       z     vdW  Elec       q    Type
REMARK                         _______ _______ _______ _____ _____    ______ ____
ROOT
ATOM      1  C   UNL     1       2.616   6.347  18.525  0.00  0.00    +0.000 A 
ATOM      2  C   UNL     1       2.229   7.669  18.349  0.00  0.00    +0.000 A 
ATOM      3  C   UNL     1       1.763   8.392  19.439  0.00  0.00    +0.000 A 
ATOM      4  C   UNL     1       1.674   7.794  20.690  0.00  0.00    +0.000 A 
ATOM      5  N   UNL     1       1.275   8.494  21.826  0.00  0.00    +0.000 N 
ATOM      6  C   UNL     1       0.403   9.568  21.936  0.00  0.00    +0.000 A 
ATOM      7  N   UNL     1       0.053   9.926  23.191  0.00  0.00    +0.000 NA
ATOM      8  C   UNL     1      -0.883  10.890  23.371  0.00  0.00    +0.000 A 
ATOM      9  C   UNL     1      -1.472  11.496  22.269  0.00  0.00    +0.000 A 
ATOM     10  C   UNL     1      -2.510  12.426  22.006  0.00  0.00    +0.000 A 
ATOM     11  C   UNL     1      -3.566  12.991  22.730  0.00  0.00    +0.000 A 
ATOM     12  C   UNL     1      -4.249  14.023  22.101  0.00  0.00    +0.000 A 
ATOM     13  N   UNL     1      -3.895  14.572  20.920  0.00  0.00    +0.000 NA
ATOM     14  C   UNL     1      -2.914  13.993  20.196  0.00  0.00    +0.000 A 
ATOM     15  C   UNL     1      -2.336  12.827  20.681  0.00  0.00    +0.000 A 
ATOM     16  N   UNL     1      -1.681  11.774  20.062  0.00  0.00    +0.000 N 
ATOM     17  C   UNL     1      -0.981  11.099  21.038  0.00  0.00    +0.000 A 
ATOM     18  N   UNL     1      -0.081  10.140  20.823  0.00  0.00    +0.000 NA
ATOM     19  N   UNL     1       2.012   6.498  20.868  0.00  0.00    +0.000 NA
ATOM     20  C   UNL     1       2.455   5.801  19.791  0.00  0.00    +0.000 A 
ATOM     21  H   UNL     1       1.311   7.948  22.671  0.00  0.00    +0.000 HD
ENDROOT
BRANCH  16  22
ATOM     22  C   UNL     1      -2.186  11.075  18.877  0.00  0.00    +0.000 C 
ATOM     23  C   UNL     1      -3.636  11.490  18.573  0.00  0.00    +0.000 C 
ATOM     24  C   UNL     1      -3.854  11.172  17.107  0.00  0.00    +0.000 C 
ATOM     25  C   UNL     1      -2.484  11.248  16.449  0.00  0.00    +0.000 C 
ATOM     26  C   UNL     1      -1.436  11.287  17.561  0.00  0.00    +0.000 C 
ENDBRANCH  16  22
BRANCH   1  27
ATOM     27  C   UNL     1       3.261   5.581  17.408  0.00  0.00    +0.000 C 
BRANCH  27  34
ATOM     28  O   UNL     1       4.839   3.509  18.351  0.00  0.00    +0.000 OA
ATOM     29  C   UNL     1       5.410   4.524  17.944  0.00  0.00    +0.000 C 
ATOM     30  C   UNL     1       6.920   4.712  18.170  0.00  0.00    +0.000 C 
ATOM     31  N   UNL     1       7.579   5.615  17.204  0.00  0.00    +0.000 NA
ATOM     32  C   UNL     1       6.835   6.873  17.127  0.00  0.00    +0.000 C 
ATOM     33  C   UNL     1       5.411   6.624  16.628  0.00  0.00    +0.000 C 
ATOM     34  N   UNL     1       4.716   5.597  17.400  0.00  0.00    +0.000 N 
ATOM     35  H   UNL     1       7.566   5.159  16.290  0.00  0.00    +0.000 HD
ENDBRANCH  27  34
ENDBRANCH   1  27
TORSDOF 3
ENDMDL
MODEL 8
REMARK VINA RESULT:      -8.8      1.883      2.621
REMARK  Name = 
REMARK  3 active torsions:
REMARK  status: ('A' for Active; 'I' for Inactive)
REMARK    1  A    between atoms: N_7  and  C_8
REMARK    2  A    between atoms: C_8  and  C_9
REMARK    3  A    between atoms: N_24  and  C_25
REMARK                            x       y       z     vdW  Elec       q    Type
REMARK                         _______ _______ _______ _____ _____    ______ ____
ROOT
ATOM      1  C   UNL     1       2.263   7.702  18.591  0.00  0.00    +0.000 A 
ATOM      2  C   UNL     1       1.636   8.919  18.355  0.00  0.00    +0.000 A 
ATOM      3  C   UNL     1       1.096   9.624  19.422  0.00  0.00    +0.000 A 
ATOM      4  C   UNL     1       1.174   9.112  20.712  0.00  0.00    +0.000 A 
ATOM      5  N   UNL     1       0.707   9.810  21.822  0.00  0.00    +0.000 N 
ATOM      6  C   UNL     1      -0.339  10.719  21.914  0.00  0.00    +0.000 A 
ATOM      7  N   UNL     1      -0.690  11.099  23.162  0.00  0.00    +0.000 NA
ATOM      8  C   UNL     1      -1.775  11.892  23.335  0.00  0.00    +0.000 A 
ATOM      9  C   UNL     1      -2.513  12.303  22.232  0.00  0.00    +0.000 A 
ATOM     10  C   UNL     1      -3.713  13.014  21.971  0.00  0.00    +0.000 A 
ATOM     11  C   UNL     1      -4.820  13.434  22.718  0.00  0.00    +0.000 A 
ATOM     12  C   UNL     1      -5.705  14.281  22.065  0.00  0.00    +0.000 A 
ATOM     13  N   UNL     1      -5.511  14.797  20.834  0.00  0.00    +0.000 NA
ATOM     14  C   UNL     1      -4.475  14.349  20.093  0.00  0.00    +0.000 A 
ATOM     15  C   UNL     1      -3.675  13.342  20.616  0.00  0.00    +0.000 A 
ATOM     16  N   UNL     1      -2.869  12.380  20.028  0.00  0.00    +0.000 N 
ATOM     17  C   UNL     1      -2.015  11.911  21.003  0.00  0.00    +0.000 A 
ATOM     18  N   UNL     1      -0.968  11.113  20.797  0.00  0.00    +0.000 NA
ATOM     19  N   UNL     1       1.748   7.913  20.951  0.00  0.00    +0.000 NA
ATOM     20  C   UNL     1       2.260   7.229  19.896  0.00  0.00    +0.000 A 
ATOM     21  H   UNL     1       0.879   9.342  22.696  0.00  0.00    +0.000 HD
ENDROOT
BRANCH  16  22
ATOM     22  C   UNL     1      -3.293  11.519  18.920  0.00  0.00    +0.000 C 
ATOM     23  C   UNL     1      -4.732  11.851  18.488  0.00  0.00    +0.000 C 
ATOM     24  C   UNL     1      -4.861  11.339  17.067  0.00  0.00    +0.000 C 
ATOM     25  C   UNL     1      -3.459  11.365  16.479  0.00  0.00    +0.000 C 
ATOM     26  C   UNL     1      -2.475  11.577  17.629  0.00  0.00    +0.000 C 
ENDBRANCH  16  22
BRANCH   1  27
ATOM     27  C   UNL     1       2.983   6.983  17.489  0.00  0.00    +0.000 C 
BRANCH  27  34
ATOM     28  O   UNL     1       2.202   4.326  17.552  0.00  0.00    +0.000 OA
ATOM     29  C   UNL     1       3.335   4.600  17.958  0.00  0.00    +0.000 C 
ATOM     30  C   UNL     1       4.181   3.537  18.680  0.00  0.00    +0.000 C 
ATOM     31  N   UNL     1       5.640   3.763  18.613  0.00  0.00    +0.000 NA
ATOM     32  C   UNL     1       5.940   5.134  19.026  0.00  0.00    +0.000 C 
ATOM     33  C   UNL     1       5.275   6.136  18.082  0.00  0.00    +0.000 C 
ATOM     34  N   UNL     1       3.845   5.891  17.918  0.00  0.00    +0.000 N 
ATOM     35  H   UNL     1       5.933   3.630  17.644  0.00  0.00    +0.000 HD
ENDBRANCH  27  34
ENDBRANCH   1  27
TORSDOF 3
ENDMDL
MODEL 9
REMARK VINA RESULT:      -8.4      3.274      9.870
REMARK  Name = 
REMARK  3 active torsions:
REMARK  status: ('A' for Active; 'I' for Inactive)
REMARK    1  A    between atoms: N_7  and  C_8
REMARK    2  A    between atoms: C_8  and  C_9
REMARK    3  A    between atoms: N_24  and  C_25
REMARK                            x       y       z     vdW  Elec       q    Type
REMARK                         _______ _______ _______ _____ _____    ______ ____
ROOT
ATOM      1  C   UNL     1      -1.112  10.741  22.250  0.00  0.00    +0.000 A 
ATOM      2  C   UNL     1      -0.027   9.885  22.388  0.00  0.00    +0.000 A 
ATOM      3  C   UNL     1       0.781   9.630  21.289  0.00  0.00    +0.000 A 
ATOM      4  C   UNL     1       0.501  10.218  20.061  0.00  0.00    +0.000 A 
ATOM      5  N   UNL     1       1.318  10.046  18.947  0.00  0.00    +0.000 N 
ATOM      6  C   UNL     1       2.110   8.961  18.595  0.00  0.00    +0.000 A 
ATOM      7  N   UNL     1       2.651   8.994  17.357  0.00  0.00    +0.000 NA
ATOM      8  C   UNL     1       3.338   7.918  16.903  0.00  0.00    +0.000 A 
ATOM      9  C   UNL     1       3.478   6.796  17.710  0.00  0.00    +0.000 A 
ATOM     10  C   UNL     1       4.000   5.482  17.608  0.00  0.00    +0.000 A 
ATOM     11  C   UNL     1       4.414   4.638  16.570  0.00  0.00    +0.000 A 
ATOM     12  C   UNL     1       5.040   3.461  16.959  0.00  0.00    +0.000 A 
ATOM     13  N   UNL     1       5.363   3.145  18.230  0.00  0.00    +0.000 NA
ATOM     14  C   UNL     1       4.915   3.929  19.234  0.00  0.00    +0.000 A 
ATOM     15  C   UNL     1       4.102   5.008  18.916  0.00  0.00    +0.000 A 
ATOM     16  N   UNL     1       3.149   5.713  19.635  0.00  0.00    +0.000 N 
ATOM     17  C   UNL     1       2.945   6.908  18.982  0.00  0.00    +0.000 A 
ATOM     18  N   UNL     1       2.243   7.939  19.453  0.00  0.00    +0.000 NA
ATOM     19  N   UNL     1      -0.572  11.024  19.903  0.00  0.00    +0.000 NA
ATOM     20  C   UNL     1      -1.361  11.254  20.984  0.00  0.00    +0.000 A 
ATOM     21  H   UNL     1       1.023  10.575  18.143  0.00  0.00    +0.000 HD
ENDROOT
BRANCH  16  22
ATOM     22  C   UNL     1       2.076   5.085  20.412  0.00  0.00    +0.000 C 
ATOM     23  C   UNL     1       1.227   4.160  19.523  0.00  0.00    +0.000 C 
ATOM     24  C   UNL     1       0.551   3.188  20.470  0.00  0.00    +0.000 C 
ATOM     25  C   UNL     1       1.459   3.084  21.687  0.00  0.00    +0.000 C 
ATOM     26  C   UNL     1       2.482   4.216  21.602  0.00  0.00    +0.000 C 
ENDBRANCH  16  22
BRANCH   1  27
ATOM     27  C   UNL     1      -1.921  11.154  23.444  0.00  0.00    +0.000 C 
BRANCH  27  34
ATOM     28  O   UNL     1      -4.454  12.001  24.177  0.00  0.00    +0.000 OA
ATOM     29  C   UNL     1      -3.652  12.858  23.796  0.00  0.00    +0.000 C 
ATOM     30  C   UNL     1      -4.120  14.298  23.524  0.00  0.00    +0.000 C 
ATOM     31  N   UNL     1      -3.059  15.321  23.632  0.00  0.00    +0.000 NA
ATOM     32  C   UNL     1      -1.907  14.915  22.825  0.00  0.00    +0.000 C 
ATOM     33  C   UNL     1      -1.330  13.596  23.340  0.00  0.00    +0.000 C 
ATOM     34  N   UNL     1      -2.340  12.548  23.459  0.00  0.00    +0.000 N 
ATOM     35  H   UNL     1      -2.780  15.380  24.613  0.00  0.00    +0.000 HD
ENDBRANCH  27  34
ENDBRANCH   1  27
TORSDOF 3
ENDMDL
