MODEL 1
REMARK VINA RESULT:      -8.7      0.000      0.000
REMARK  Name = 
REMARK  6 active torsions:
REMARK  status: ('A' for Active; 'I' for Inactive)
REMARK    1  A    between atoms: C_1  and  C_2
REMARK    2  A    between atoms: C_2  and  S_3
REMARK    3  A    between atoms: S_3  and  N_6
REMARK    4  A    between atoms: N_6  and  C_7
REMARK    5  A    between atoms: C_7  and  C_8
REMARK    6  A    between atoms: C_13  and  C_14
REMARK                            x       y       z     vdW  Elec       q    Type
REMARK                         _______ _______ _______ _____ _____    ______ ____
ROOT
ATOM      1  C   UNL     1       2.367   6.420  18.712  0.00  0.00    +0.000 A 
ATOM      2  C   UNL     1       2.431   7.468  17.798  0.00  0.00    +0.000 A 
ATOM      3  N   UNL     1       2.110   8.775  18.078  0.00  0.00    +0.000 NA
ATOM      4  C   UNL     1       1.655   9.088  19.322  0.00  0.00    +0.000 A 
ATOM      5  C   UNL     1       1.539   8.092  20.284  0.00  0.00    +0.000 A 
ATOM      6  C   UNL     1       1.926   6.781  19.974  0.00  0.00    +0.000 A 
ATOM      7  C   UNL     1       1.047   8.299  21.671  0.00  0.00    +0.000 C 
ATOM      8  C   UNL     1       0.338   9.603  21.901  0.00  0.00    +0.000 C 
ATOM      9  C   UNL     1       0.653  10.722  20.928  0.00  0.00    +0.000 C 
ATOM     10  N   UNL     1       1.293  10.421  19.650  0.00  0.00    +0.000 N 
ATOM     11  C   UNL     1       1.492  11.555  18.866  0.00  0.00    +0.000 C 
ATOM     12  N   UNL     1       2.139  11.382  17.685  0.00  0.00    +0.000 N 
ATOM     13  O   UNL     1       1.141  12.688  19.196  0.00  0.00    +0.000 OA
ATOM     14  H   UNL     1       1.649  10.691  17.128  0.00  0.00    +0.000 HD
ATOM     15  H   UNL     1       3.022  10.913  17.841  0.00  0.00    +0.000 HD
ENDROOT
BRANCH   1  21
ATOM     16  C   UNL     1       3.809   4.310  18.729  0.00  0.00    +0.000 A 
ATOM     17  C   UNL     1       3.852   2.909  18.616  0.00  0.00    +0.000 A 
ATOM     18  C   UNL     1       2.734   2.231  18.171  0.00  0.00    +0.000 A 
ATOM     19  N   UNL     1       1.567   2.837  17.886  0.00  0.00    +0.000 NA
ATOM     20  C   UNL     1       1.529   4.184  18.028  0.00  0.00    +0.000 A 
ATOM     21  C   UNL     1       2.599   4.989  18.435  0.00  0.00    +0.000 A 
BRANCH  16  22
ATOM     22  C   UNL     1       5.070   5.011  19.182  0.00  0.00    +0.000 C 
BRANCH  22  23
ATOM     23  N   UNL     1       6.347   4.315  18.848  0.00  0.00    +0.000 NA
ATOM     24  H   UNL     1       6.855   4.123  19.713  0.00  0.00    +0.000 HD
BRANCH  23  25
ATOM     25  S   UNL     1       7.334   5.193  17.782  0.00  0.00    +0.000 S 
ATOM     26  O   UNL     1       8.175   4.213  17.124  0.00  0.00    +0.000 OA
ATOM     27  O   UNL     1       7.874   6.335  18.480  0.00  0.00    +0.000 OA
BRANCH  25  29
ATOM     28  C   UNL     1       5.852   4.703  15.582  0.00  0.00    +0.000 C 
ATOM     29  C   UNL     1       6.147   5.794  16.593  0.00  0.00    +0.000 C 
ENDBRANCH  25  29
ENDBRANCH  23  25
ENDBRANCH  22  23
ENDBRANCH  16  22
ENDBRANCH   1  21
TORSDOF 5
ENDMDL
MODEL 2
REMARK VINA RESULT:      -8.7      1.032      1.209
REMARK  Name = 
REMARK  6 active torsions:
REMARK  status: ('A' for Active; 'I' for Inactive)
REMARK    1  A    between atoms: C_1  and  C_2
REMARK    2  A    between atoms: C_2  and  S_3
REMARK    3  A    between atoms: S_3  and  N_6
REMARK    4  A    between atoms: N_6  and  C_7
REMARK    5  A    between atoms: C_7  and  C_8
REMARK    6  A    between atoms: C_13  and  C_14
REMARK                            x       y       z     vdW  Elec       q    Type
REMARK                         _______ _______ _______ _____ _____    ______ ____
ROOT
ATOM      1  C   UNL     1       2.357   6.293  18.747  0.00  0.00    +0.000 A 
ATOM      2  C   UNL     1       2.418   7.330  17.820  0.00  0.00    +0.000 A 
ATOM      3  N   UNL     1       2.102   8.642  18.086  0.00  0.00    +0.000 NA
ATOM      4  C   UNL     1       1.654   8.970  19.329  0.00  0.00    +0.000 A 
ATOM      5  C   UNL     1       1.543   7.986  20.304  0.00  0.00    +0.000 A 
ATOM      6  C   UNL     1       1.924   6.671  20.007  0.00  0.00    +0.000 A 
ATOM      7  C   UNL     1       1.059   8.211  21.691  0.00  0.00    +0.000 C 
ATOM      8  C   UNL     1       0.355   9.519  21.909  0.00  0.00    +0.000 C 
ATOM      9  C   UNL     1       0.666  10.626  20.921  0.00  0.00    +0.000 C 
ATOM     10  N   UNL     1       1.298  10.308  19.643  0.00  0.00    +0.000 N 
ATOM     11  C   UNL     1       1.494  11.433  18.844  0.00  0.00    +0.000 C 
ATOM     12  N   UNL     1       2.133  11.244  17.661  0.00  0.00    +0.000 N 
ATOM     13  O   UNL     1       1.148  12.570  19.163  0.00  0.00    +0.000 OA
ATOM     14  H   UNL     1       1.639  10.547  17.115  0.00  0.00    +0.000 HD
ATOM     15  H   UNL     1       3.017  10.775  17.818  0.00  0.00    +0.000 HD
ENDROOT
BRANCH   1  21
ATOM     16  C   UNL     1       3.784   4.175  18.806  0.00  0.00    +0.000 A 
ATOM     17  C   UNL     1       3.820   2.772  18.705  0.00  0.00    +0.000 A 
ATOM     18  C   UNL     1       2.705   2.098  18.246  0.00  0.00    +0.000 A 
ATOM     19  N   UNL     1       1.548   2.709  17.936  0.00  0.00    +0.000 NA
ATOM     20  C   UNL     1       1.516   4.058  18.066  0.00  0.00    +0.000 A 
ATOM     21  C   UNL     1       2.585   4.859  18.485  0.00  0.00    +0.000 A 
BRANCH  16  22
ATOM     22  C   UNL     1       5.042   4.871  19.273  0.00  0.00    +0.000 C 
BRANCH  22  23
ATOM     23  N   UNL     1       6.322   4.289  18.775  0.00  0.00    +0.000 NA
ATOM     24  H   UNL     1       6.974   4.205  19.557  0.00  0.00    +0.000 HD
BRANCH  23  25
ATOM     25  S   UNL     1       7.032   5.193  17.527  0.00  0.00    +0.000 S 
ATOM     26  O   UNL     1       5.931   5.741  16.759  0.00  0.00    +0.000 OA
ATOM     27  O   UNL     1       8.084   4.409  16.923  0.00  0.00    +0.000 OA
BRANCH  25  29
ATOM     28  C   UNL     1       7.734   7.795  17.602  0.00  0.00    +0.000 C 
ATOM     29  C   UNL     1       7.798   6.527  18.429  0.00  0.00    +0.000 C 
ENDBRANCH  25  29
ENDBRANCH  23  25
ENDBRANCH  22  23
ENDBRANCH  16  22
ENDBRANCH   1  21
TORSDOF 5
ENDMDL
MODEL 3
REMARK VINA RESULT:      -8.6      0.931      1.093
REMARK  Name = 
REMARK  6 active torsions:
REMARK  status: ('A' for Active; 'I' for Inactive)
REMARK    1  A    between atoms: C_1  and  C_2
REMARK    2  A    between atoms: C_2  and  S_3
REMARK    3  A    between atoms: S_3  and  N_6
REMARK    4  A    between atoms: N_6  and  C_7
REMARK    5  A    between atoms: C_7  and  C_8
REMARK    6  A    between atoms: C_13  and  C_14
REMARK                            x       y       z     vdW  Elec       q    Type
REMARK                         _______ _______ _______ _____ _____    ______ ____
ROOT
ATOM      1  C   UNL     1       2.177   6.306  19.359  0.00  0.00    +0.000 A 
ATOM      2  C   UNL     1       2.307   7.215  18.313  0.00  0.00    +0.000 A 
ATOM      3  N   UNL     1       2.028   8.559  18.401  0.00  0.00    +0.000 NA
ATOM      4  C   UNL     1       1.550   9.055  19.576  0.00  0.00    +0.000 A 
ATOM      5  C   UNL     1       1.371   8.205  20.660  0.00  0.00    +0.000 A 
ATOM      6  C   UNL     1       1.716   6.852  20.545  0.00  0.00    +0.000 A 
ATOM      7  C   UNL     1       0.848   8.618  21.989  0.00  0.00    +0.000 C 
ATOM      8  C   UNL     1       0.183   9.964  22.015  0.00  0.00    +0.000 C 
ATOM      9  C   UNL     1       0.567  10.927  20.910  0.00  0.00    +0.000 C 
ATOM     10  N   UNL     1       1.230  10.432  19.706  0.00  0.00    +0.000 N 
ATOM     11  C   UNL     1       1.493  11.440  18.781  0.00  0.00    +0.000 C 
ATOM     12  N   UNL     1       2.166  11.084  17.657  0.00  0.00    +0.000 N 
ATOM     13  O   UNL     1       1.176  12.619  18.942  0.00  0.00    +0.000 OA
ATOM     14  H   UNL     1       1.666  10.339  17.183  0.00  0.00    +0.000 HD
ATOM     15  H   UNL     1       3.026  10.612  17.904  0.00  0.00    +0.000 HD
ENDROOT
BRANCH   1  21
ATOM     16  C   UNL     1       3.629   4.207  19.228  0.00  0.00    +0.000 A 
ATOM     17  C   UNL     1       3.700   2.809  19.371  0.00  0.00    +0.000 A 
ATOM     18  C   UNL     1       2.532   2.084  19.514  0.00  0.00    +0.000 A 
ATOM     19  N   UNL     1       1.314   2.650  19.580  0.00  0.00    +0.000 NA
ATOM     20  C   UNL     1       1.262   4.000  19.471  0.00  0.00    +0.000 A 
ATOM     21  C   UNL     1       2.364   4.844  19.288  0.00  0.00    +0.000 A 
BRANCH  16  22
ATOM     22  C   UNL     1       4.930   4.953  19.034  0.00  0.00    +0.000 C 
BRANCH  22  23
ATOM     23  N   UNL     1       6.105   4.111  18.666  0.00  0.00    +0.000 NA
ATOM     24  H   UNL     1       6.338   3.504  19.455  0.00  0.00    +0.000 HD
BRANCH  23  25
ATOM     25  S   UNL     1       7.467   5.016  18.213  0.00  0.00    +0.000 S 
ATOM     26  O   UNL     1       8.093   4.277  17.134  0.00  0.00    +0.000 OA
ATOM     27  O   UNL     1       8.185   5.407  19.403  0.00  0.00    +0.000 OA
BRANCH  25  29
ATOM     28  C   UNL     1       7.696   7.638  17.626  0.00  0.00    +0.000 C 
ATOM     29  C   UNL     1       6.721   6.482  17.523  0.00  0.00    +0.000 C 
ENDBRANCH  25  29
ENDBRANCH  23  25
ENDBRANCH  22  23
ENDBRANCH  16  22
ENDBRANCH   1  21
TORSDOF 5
ENDMDL
MODEL 4
REMARK VINA RESULT:      -8.4      1.442      2.258
REMARK  Name = 
REMARK  6 active torsions:
REMARK  status: ('A' for Active; 'I' for Inactive)
REMARK    1  A    between atoms: C_1  and  C_2
REMARK    2  A    between atoms: C_2  and  S_3
REMARK    3  A    between atoms: S_3  and  N_6
REMARK    4  A    between atoms: N_6  and  C_7
REMARK    5  A    between atoms: C_7  and  C_8
REMARK    6  A    between atoms: C_13  and  C_14
REMARK                            x       y       z     vdW  Elec       q    Type
REMARK                         _______ _______ _______ _____ _____    ______ ____
ROOT
ATOM      1  C   UNL     1       2.110   5.994  19.132  0.00  0.00    +0.000 A 
ATOM      2  C   UNL     1       1.752   6.271  20.449  0.00  0.00    +0.000 A 
ATOM      3  N   UNL     1       1.392   7.511  20.921  0.00  0.00    +0.000 NA
ATOM      4  C   UNL     1       1.421   8.572  20.068  0.00  0.00    +0.000 A 
ATOM      5  C   UNL     1       1.792   8.381  18.743  0.00  0.00    +0.000 A 
ATOM      6  C   UNL     1       2.101   7.092  18.289  0.00  0.00    +0.000 A 
ATOM      7  C   UNL     1       1.874   9.454  17.717  0.00  0.00    +0.000 C 
ATOM      8  C   UNL     1       1.865  10.852  18.264  0.00  0.00    +0.000 C 
ATOM      9  C   UNL     1       1.267  11.032  19.645  0.00  0.00    +0.000 C 
ATOM     10  N   UNL     1       1.077   9.875  20.516  0.00  0.00    +0.000 N 
ATOM     11  C   UNL     1       0.539  10.214  21.756  0.00  0.00    +0.000 C 
ATOM     12  N   UNL     1       0.269   9.195  22.610  0.00  0.00    +0.000 N 
ATOM     13  O   UNL     1       0.275  11.368  22.096  0.00  0.00    +0.000 OA
ATOM     14  H   UNL     1       1.110   8.650  22.767  0.00  0.00    +0.000 HD
ATOM     15  H   UNL     1      -0.322   8.510  22.155  0.00  0.00    +0.000 HD
ENDROOT
BRANCH   1  21
ATOM     16  C   UNL     1       3.959   4.301  18.634  0.00  0.00    +0.000 A 
ATOM     17  C   UNL     1       4.286   2.977  18.292  0.00  0.00    +0.000 A 
ATOM     18  C   UNL     1       3.285   2.116  17.883  0.00  0.00    +0.000 A 
ATOM     19  N   UNL     1       1.986   2.460  17.844  0.00  0.00    +0.000 NA
ATOM     20  C   UNL     1       1.680   3.731  18.204  0.00  0.00    +0.000 A 
ATOM     21  C   UNL     1       2.601   4.707  18.602  0.00  0.00    +0.000 A 
BRANCH  16  22
ATOM     22  C   UNL     1       5.094   5.217  19.036  0.00  0.00    +0.000 C 
BRANCH  22  23
ATOM     23  N   UNL     1       5.609   6.112  17.959  0.00  0.00    +0.000 NA
ATOM     24  H   UNL     1       4.937   6.124  17.189  0.00  0.00    +0.000 HD
BRANCH  23  25
ATOM     25  S   UNL     1       7.139   5.658  17.381  0.00  0.00    +0.000 S 
ATOM     26  O   UNL     1       7.725   4.833  18.420  0.00  0.00    +0.000 OA
ATOM     27  O   UNL     1       7.803   6.825  16.850  0.00  0.00    +0.000 OA
BRANCH  25  29
ATOM     28  C   UNL     1       5.486   5.152  15.312  0.00  0.00    +0.000 C 
ATOM     29  C   UNL     1       6.715   4.602  16.008  0.00  0.00    +0.000 C 
ENDBRANCH  25  29
ENDBRANCH  23  25
ENDBRANCH  22  23
ENDBRANCH  16  22
ENDBRANCH   1  21
TORSDOF 5
ENDMDL
MODEL 5
REMARK VINA RESULT:      -8.4      1.693      2.523
REMARK  Name = 
REMARK  6 active torsions:
REMARK  status: ('A' for Active; 'I' for Inactive)
REMARK    1  A    between atoms: C_1  and  C_2
REMARK    2  A    between atoms: C_2  and  S_3
REMARK    3  A    between atoms: S_3  and  N_6
REMARK    4  A    between atoms: N_6  and  C_7
REMARK    5  A    between atoms: C_7  and  C_8
REMARK    6  A    between atoms: C_13  and  C_14
REMARK                            x       y       z     vdW  Elec       q    Type
REMARK                         _______ _______ _______ _____ _____    ______ ____
ROOT
ATOM      1  C   UNL     1       2.071   6.115  19.117  0.00  0.00    +0.000 A 
ATOM      2  C   UNL     1       1.712   6.369  20.438  0.00  0.00    +0.000 A 
ATOM      3  N   UNL     1       1.352   7.601  20.931  0.00  0.00    +0.000 NA
ATOM      4  C   UNL     1       1.379   8.676  20.097  0.00  0.00    +0.000 A 
ATOM      5  C   UNL     1       1.750   8.508  18.768  0.00  0.00    +0.000 A 
ATOM      6  C   UNL     1       2.060   7.228  18.292  0.00  0.00    +0.000 A 
ATOM      7  C   UNL     1       1.831   9.599  17.762  0.00  0.00    +0.000 C 
ATOM      8  C   UNL     1       1.820  10.987  18.333  0.00  0.00    +0.000 C 
ATOM      9  C   UNL     1       1.222  11.142  19.717  0.00  0.00    +0.000 C 
ATOM     10  N   UNL     1       1.034   9.970  20.568  0.00  0.00    +0.000 N 
ATOM     11  C   UNL     1       0.495  10.288  21.813  0.00  0.00    +0.000 C 
ATOM     12  N   UNL     1       0.226   9.254  22.650  0.00  0.00    +0.000 N 
ATOM     13  O   UNL     1       0.230  11.435  22.174  0.00  0.00    +0.000 OA
ATOM     14  H   UNL     1       1.068   8.707  22.797  0.00  0.00    +0.000 HD
ATOM     15  H   UNL     1      -0.364   8.576  22.183  0.00  0.00    +0.000 HD
ENDROOT
BRANCH   1  21
ATOM     16  C   UNL     1       3.922   4.437  18.582  0.00  0.00    +0.000 A 
ATOM     17  C   UNL     1       4.252   3.119  18.219  0.00  0.00    +0.000 A 
ATOM     18  C   UNL     1       3.252   2.261  17.802  0.00  0.00    +0.000 A 
ATOM     19  N   UNL     1       1.951   2.602  17.774  0.00  0.00    +0.000 NA
ATOM     20  C   UNL     1       1.643   3.865  18.156  0.00  0.00    +0.000 A 
ATOM     21  C   UNL     1       2.563   4.838  18.564  0.00  0.00    +0.000 A 
BRANCH  16  22
ATOM     22  C   UNL     1       5.056   5.350  18.992  0.00  0.00    +0.000 C 
BRANCH  22  23
ATOM     23  N   UNL     1       5.643   6.176  17.898  0.00  0.00    +0.000 NA
ATOM     24  H   UNL     1       5.090   6.042  17.049  0.00  0.00    +0.000 HD
BRANCH  23  25
ATOM     25  S   UNL     1       7.273   5.819  17.585  0.00  0.00    +0.000 S 
ATOM     26  O   UNL     1       7.469   6.069  16.171  0.00  0.00    +0.000 OA
ATOM     27  O   UNL     1       7.601   4.556  18.202  0.00  0.00    +0.000 OA
BRANCH  25  29
ATOM     28  C   UNL     1       7.943   8.425  17.774  0.00  0.00    +0.000 C 
ATOM     29  C   UNL     1       8.111   7.103  18.497  0.00  0.00    +0.000 C 
ENDBRANCH  25  29
ENDBRANCH  23  25
ENDBRANCH  22  23
ENDBRANCH  16  22
ENDBRANCH   1  21
TORSDOF 5
ENDMDL
MODEL 6
REMARK VINA RESULT:      -8.3      1.045      1.148
REMARK  Name = 
REMARK  6 active torsions:
REMARK  status: ('A' for Active; 'I' for Inactive)
REMARK    1  A    between atoms: C_1  and  C_2
REMARK    2  A    between atoms: C_2  and  S_3
REMARK    3  A    between atoms: S_3  and  N_6
REMARK    4  A    between atoms: N_6  and  C_7
REMARK    5  A    between atoms: C_7  and  C_8
REMARK    6  A    between atoms: C_13  and  C_14
REMARK                            x       y       z     vdW  Elec       q    Type
REMARK                         _______ _______ _______ _____ _____    ______ ____
ROOT
ATOM      1  C   UNL     1       2.382   6.670  18.522  0.00  0.00    +0.000 A 
ATOM      2  C   UNL     1       2.406   7.766  17.664  0.00  0.00    +0.000 A 
ATOM      3  N   UNL     1       2.062   9.049  18.018  0.00  0.00    +0.000 NA
ATOM      4  C   UNL     1       1.622   9.285  19.285  0.00  0.00    +0.000 A 
ATOM      5  C   UNL     1       1.547   8.237  20.195  0.00  0.00    +0.000 A 
ATOM      6  C   UNL     1       1.957   6.954  19.809  0.00  0.00    +0.000 A 
ATOM      7  C   UNL     1       1.076   8.359  21.599  0.00  0.00    +0.000 C 
ATOM      8  C   UNL     1       0.343   9.632  21.910  0.00  0.00    +0.000 C 
ATOM      9  C   UNL     1       0.614  10.808  20.993  0.00  0.00    +0.000 C 
ATOM     10  N   UNL     1       1.237  10.590  19.690  0.00  0.00    +0.000 N 
ATOM     11  C   UNL     1       1.395  11.768  18.963  0.00  0.00    +0.000 C 
ATOM     12  N   UNL     1       2.024  11.673  17.764  0.00  0.00    +0.000 N 
ATOM     13  O   UNL     1       1.025  12.873  19.359  0.00  0.00    +0.000 OA
ATOM     14  H   UNL     1       1.540  11.000  17.179  0.00  0.00    +0.000 HD
ATOM     15  H   UNL     1       2.921  11.217  17.879  0.00  0.00    +0.000 HD
ENDROOT
BRANCH   1  21
ATOM     16  C   UNL     1       3.920   4.650  18.225  0.00  0.00    +0.000 A 
ATOM     17  C   UNL     1       4.020   3.257  18.064  0.00  0.00    +0.000 A 
ATOM     18  C   UNL     1       2.881   2.522  17.798  0.00  0.00    +0.000 A 
ATOM     19  N   UNL     1       1.651   3.063  17.736  0.00  0.00    +0.000 NA
ATOM     20  C   UNL     1       1.564   4.402  17.924  0.00  0.00    +0.000 A 
ATOM     21  C   UNL     1       2.642   5.262  18.165  0.00  0.00    +0.000 A 
BRANCH  16  22
ATOM     22  C   UNL     1       5.200   5.416  18.475  0.00  0.00    +0.000 C 
BRANCH  22  23
ATOM     23  N   UNL     1       6.364   5.013  17.633  0.00  0.00    +0.000 NA
ATOM     24  H   UNL     1       7.205   5.004  18.213  0.00  0.00    +0.000 HD
BRANCH  23  25
ATOM     25  S   UNL     1       6.602   6.018  16.287  0.00  0.00    +0.000 S 
ATOM     26  O   UNL     1       7.763   6.829  16.599  0.00  0.00    +0.000 OA
ATOM     27  O   UNL     1       5.335   6.593  15.903  0.00  0.00    +0.000 OA
BRANCH  25  29
ATOM     28  C   UNL     1       5.827   4.151  14.503  0.00  0.00    +0.000 C 
ATOM     29  C   UNL     1       7.068   4.843  15.029  0.00  0.00    +0.000 C 
ENDBRANCH  25  29
ENDBRANCH  23  25
ENDBRANCH  22  23
ENDBRANCH  16  22
ENDBRANCH   1  21
TORSDOF 5
ENDMDL
MODEL 7
REMARK VINA RESULT:      -8.2      1.531      2.428
REMARK  Name = 
REMARK  6 active torsions:
REMARK  status: ('A' for Active; 'I' for Inactive)
REMARK    1  A    between atoms: C_1  and  C_2
REMARK    2  A    between atoms: C_2  and  S_3
REMARK    3  A    between atoms: S_3  and  N_6
REMARK    4  A    between atoms: N_6  and  C_7
REMARK    5  A    between atoms: C_7  and  C_8
REMARK    6  A    between atoms: C_13  and  C_14
REMARK                            x       y       z     vdW  Elec       q    Type
REMARK                         _______ _______ _______ _____ _____    ______ ____
ROOT
ATOM      1  C   UNL     1       2.022   5.707  19.375  0.00  0.00    +0.000 A 
ATOM      2  C   UNL     1       1.688   6.129  20.660  0.00  0.00    +0.000 A 
ATOM      3  N   UNL     1       1.397   7.426  21.010  0.00  0.00    +0.000 NA
ATOM      4  C   UNL     1       1.474   8.397  20.058  0.00  0.00    +0.000 A 
ATOM      5  C   UNL     1       1.825   8.059  18.757  0.00  0.00    +0.000 A 
ATOM      6  C   UNL     1       2.062   6.717  18.429  0.00  0.00    +0.000 A 
ATOM      7  C   UNL     1       1.954   9.021  17.631  0.00  0.00    +0.000 C 
ATOM      8  C   UNL     1       2.022  10.464  18.040  0.00  0.00    +0.000 C 
ATOM      9  C   UNL     1       1.445  10.808  19.399  0.00  0.00    +0.000 C 
ATOM     10  N   UNL     1       1.202   9.752  20.379  0.00  0.00    +0.000 N 
ATOM     11  C   UNL     1       0.692  10.238  21.581  0.00  0.00    +0.000 C 
ATOM     12  N   UNL     1       0.376   9.322  22.531  0.00  0.00    +0.000 N 
ATOM     13  O   UNL     1       0.491  11.431  21.809  0.00  0.00    +0.000 OA
ATOM     14  H   UNL     1       1.189   8.752  22.737  0.00  0.00    +0.000 HD
ATOM     15  H   UNL     1      -0.253   8.628  22.146  0.00  0.00    +0.000 HD
ENDROOT
BRANCH   1  21
ATOM     16  C   UNL     1       3.788   3.911  18.948  0.00  0.00    +0.000 A 
ATOM     17  C   UNL     1       4.058   2.545  18.747  0.00  0.00    +0.000 A 
ATOM     18  C   UNL     1       3.010   1.673  18.526  0.00  0.00    +0.000 A 
ATOM     19  N   UNL     1       1.719   2.049  18.544  0.00  0.00    +0.000 NA
ATOM     20  C   UNL     1       1.470   3.363  18.768  0.00  0.00    +0.000 A 
ATOM     21  C   UNL     1       2.440   4.351  18.971  0.00  0.00    +0.000 A 
BRANCH  16  22
ATOM     22  C   UNL     1       4.970   4.832  19.145  0.00  0.00    +0.000 C 
BRANCH  22  23
ATOM     23  N   UNL     1       6.305   4.240  18.840  0.00  0.00    +0.000 NA
ATOM     24  H   UNL     1       6.967   4.525  19.564  0.00  0.00    +0.000 HD
BRANCH  23  25
ATOM     25  S   UNL     1       6.900   4.672  17.311  0.00  0.00    +0.000 S 
ATOM     26  O   UNL     1       5.888   4.257  16.360  0.00  0.00    +0.000 OA
ATOM     27  O   UNL     1       8.277   4.253  17.210  0.00  0.00    +0.000 OA
BRANCH  25  29
ATOM     28  C   UNL     1       7.945   6.920  18.372  0.00  0.00    +0.000 C 
ATOM     29  C   UNL     1       6.880   6.454  17.400  0.00  0.00    +0.000 C 
ENDBRANCH  25  29
ENDBRANCH  23  25
ENDBRANCH  22  23
ENDBRANCH  16  22
ENDBRANCH   1  21
TORSDOF 5
ENDMDL
MODEL 8
REMARK VINA RESULT:      -8.0      1.474      1.728
REMARK  Name = 
REMARK  6 active torsions:
REMARK  status: ('A' for Active; 'I' for Inactive)
REMARK    1  A    between atoms: C_1  and  C_2
REMARK    2  A    between atoms: C_2  and  S_3
REMARK    3  A    between atoms: S_3  and  N_6
REMARK    4  A    between atoms: N_6  and  C_7
REMARK    5  A    between atoms: C_7  and  C_8
REMARK    6  A    between atoms: C_13  and  C_14
REMARK                            x       y       z     vdW  Elec       q    Type
REMARK                         _______ _______ _______ _____ _____    ______ ____
ROOT
ATOM      1  C   UNL     1       2.193   6.699  19.827  0.00  0.00    +0.000 A 
ATOM      2  C   UNL     1       2.371   7.535  18.728  0.00  0.00    +0.000 A 
ATOM      3  N   UNL     1       1.989   8.854  18.674  0.00  0.00    +0.000 NA
ATOM      4  C   UNL     1       1.349   9.397  19.746  0.00  0.00    +0.000 A 
ATOM      5  C   UNL     1       1.112   8.620  20.873  0.00  0.00    +0.000 A 
ATOM      6  C   UNL     1       1.565   7.294  20.908  0.00  0.00    +0.000 A 
ATOM      7  C   UNL     1       0.417   9.088  22.101  0.00  0.00    +0.000 C 
ATOM      8  C   UNL     1      -0.342  10.374  21.945  0.00  0.00    +0.000 C 
ATOM      9  C   UNL     1       0.091  11.279  20.809  0.00  0.00    +0.000 C 
ATOM     10  N   UNL     1       0.918  10.750  19.727  0.00  0.00    +0.000 N 
ATOM     11  C   UNL     1       1.209  11.703  18.753  0.00  0.00    +0.000 C 
ATOM     12  N   UNL     1       2.025  11.319  17.739  0.00  0.00    +0.000 N 
ATOM     13  O   UNL     1       0.792  12.861  18.781  0.00  0.00    +0.000 OA
ATOM     14  H   UNL     1       1.636  10.503  17.280  0.00  0.00    +0.000 HD
ATOM     15  H   UNL     1       2.885  10.938  18.114  0.00  0.00    +0.000 HD
ENDROOT
BRANCH   1  21
ATOM     16  C   UNL     1       3.678   4.665  19.396  0.00  0.00    +0.000 A 
ATOM     17  C   UNL     1       3.954   3.319  19.699  0.00  0.00    +0.000 A 
ATOM     18  C   UNL     1       3.039   2.589  20.432  0.00  0.00    +0.000 A 
ATOM     19  N   UNL     1       1.904   3.113  20.929  0.00  0.00    +0.000 NA
ATOM     20  C   UNL     1       1.665   4.418  20.656  0.00  0.00    +0.000 A 
ATOM     21  C   UNL     1       2.491   5.256  19.898  0.00  0.00    +0.000 A 
BRANCH  16  22
ATOM     22  C   UNL     1       4.691   5.411  18.557  0.00  0.00    +0.000 C 
BRANCH  22  23
ATOM     23  N   UNL     1       5.813   4.587  18.021  0.00  0.00    +0.000 NA
ATOM     24  H   UNL     1       6.313   4.160  18.803  0.00  0.00    +0.000 HD
BRANCH  23  25
ATOM     25  S   UNL     1       6.897   5.470  17.058  0.00  0.00    +0.000 S 
ATOM     26  O   UNL     1       6.076   6.278  16.178  0.00  0.00    +0.000 OA
ATOM     27  O   UNL     1       7.917   4.576  16.563  0.00  0.00    +0.000 OA
BRANCH  25  29
ATOM     28  C   UNL     1       7.805   7.936  17.660  0.00  0.00    +0.000 C 
ATOM     29  C   UNL     1       7.656   6.551  18.256  0.00  0.00    +0.000 C 
ENDBRANCH  25  29
ENDBRANCH  23  25
ENDBRANCH  22  23
ENDBRANCH  16  22
ENDBRANCH   1  21
TORSDOF 5
ENDMDL
MODEL 9
REMARK VINA RESULT:      -8.0      2.909      3.930
REMARK  Name = 
REMARK  6 active torsions:
REMARK  status: ('A' for Active; 'I' for Inactive)
REMARK    1  A    between atoms: C_1  and  C_2
REMARK    2  A    between atoms: C_2  and  S_3
REMARK    3  A    between atoms: S_3  and  N_6
REMARK    4  A    between atoms: N_6  and  C_7
REMARK    5  A    between atoms: C_7  and  C_8
REMARK    6  A    between atoms: C_13  and  C_14
REMARK                            x       y       z     vdW  Elec       q    Type
REMARK                         _______ _______ _______ _____ _____    ______ ____
ROOT
ATOM      1  C   UNL     1       2.844   7.680  18.343  0.00  0.00    +0.000 A 
ATOM      2  C   UNL     1       2.312   8.730  17.600  0.00  0.00    +0.000 A 
ATOM      3  N   UNL     1       1.416   9.657  18.079  0.00  0.00    +0.000 NA
ATOM      4  C   UNL     1       0.969   9.537  19.359  0.00  0.00    +0.000 A 
ATOM      5  C   UNL     1       1.435   8.500  20.158  0.00  0.00    +0.000 A 
ATOM      6  C   UNL     1       2.387   7.607  19.649  0.00  0.00    +0.000 A 
ATOM      7  C   UNL     1       1.019   8.254  21.564  0.00  0.00    +0.000 C 
ATOM      8  C   UNL     1      -0.216   8.991  21.995  0.00  0.00    +0.000 C 
ATOM      9  C   UNL     1      -0.570  10.234  21.203  0.00  0.00    +0.000 C 
ATOM     10  N   UNL     1       0.029  10.460  19.890  0.00  0.00    +0.000 N 
ATOM     11  C   UNL     1      -0.418  11.634  19.287  0.00  0.00    +0.000 C 
ATOM     12  N   UNL     1       0.132  11.959  18.089  0.00  0.00    +0.000 N 
ATOM     13  O   UNL     1      -1.251  12.389  19.789  0.00  0.00    +0.000 OA
ATOM     14  H   UNL     1       0.000  11.195  17.436  0.00  0.00    +0.000 HD
ATOM     15  H   UNL     1       1.141  11.975  18.166  0.00  0.00    +0.000 HD
ENDROOT
BRANCH   1  21
ATOM     16  C   UNL     1       3.272   5.304  17.505  0.00  0.00    +0.000 A 
ATOM     17  C   UNL     1       4.153   4.424  16.851  0.00  0.00    +0.000 A 
ATOM     18  C   UNL     1       5.453   4.825  16.606  0.00  0.00    +0.000 A 
ATOM     19  N   UNL     1       5.919   6.049  16.913  0.00  0.00    +0.000 NA
ATOM     20  C   UNL     1       5.051   6.898  17.515  0.00  0.00    +0.000 A 
ATOM     21  C   UNL     1       3.724   6.604  17.849  0.00  0.00    +0.000 A 
BRANCH  16  22
ATOM     22  C   UNL     1       1.873   4.806  17.787  0.00  0.00    +0.000 C 
BRANCH  22  23
ATOM     23  N   UNL     1       1.651   3.349  17.555  0.00  0.00    +0.000 NA
ATOM     24  H   UNL     1       0.860   3.231  16.919  0.00  0.00    +0.000 HD
BRANCH  23  25
ATOM     25  S   UNL     1       1.377   2.473  18.983  0.00  0.00    +0.000 S 
ATOM     26  O   UNL     1       2.623   1.792  19.274  0.00  0.00    +0.000 OA
ATOM     27  O   UNL     1       0.120   1.774  18.868  0.00  0.00    +0.000 OA
BRANCH  25  29
ATOM     28  C   UNL     1       1.907   3.421  21.451  0.00  0.00    +0.000 C 
ATOM     29  C   UNL     1       1.166   3.779  20.179  0.00  0.00    +0.000 C 
ENDBRANCH  25  29
ENDBRANCH  23  25
ENDBRANCH  22  23
ENDBRANCH  16  22
ENDBRANCH   1  21
TORSDOF 5
ENDMDL
