MODEL 1
REMARK VINA RESULT:      -8.9      0.000      0.000
REMARK  Name = 
REMARK  5 active torsions:
REMARK  status: ('A' for Active; 'I' for Inactive)
REMARK    1  A    between atoms: C_1  and  C_2
REMARK    2  A    between atoms: C_4  and  C_5
REMARK    3  A    between atoms: C_6  and  C_7
REMARK    4  A    between atoms: C_7  and  N_8
REMARK    5  A    between atoms: C_15  and  C_16
REMARK                            x       y       z     vdW  Elec       q    Type
REMARK                         _______ _______ _______ _____ _____    ______ ____
ROOT
ATOM      1  N   UNL     1       1.963   6.508  19.364  0.00  0.00    +0.000 N 
ATOM      2  C   UNL     1       3.065   5.692  19.210  0.00  0.00    +0.000 C 
ATOM      3  O   UNL     1       4.180   6.011  19.617  0.00  0.00    +0.000 OA
ATOM      4  N   UNL     1       2.841   4.493  18.581  0.00  0.00    +0.000 N 
ATOM      5  C   UNL     1       1.605   3.974  18.033  0.00  0.00    +0.000 C 
ATOM      6  C   UNL     1       1.737   2.471  18.210  0.00  0.00    +0.000 C 
ATOM      7  C   UNL     1       3.228   2.206  18.017  0.00  0.00    +0.000 C 
ATOM      8  C   UNL     1       3.922   3.514  18.442  0.00  0.00    +0.000 C 
ATOM      9  H   UNL     1       1.109   6.009  19.575  0.00  0.00    +0.000 HD
ENDROOT
BRANCH   8  10
ATOM     10  C   UNL     1       4.991   3.940  17.451  0.00  0.00    +0.000 A 
ATOM     11  C   UNL     1       6.270   4.300  17.911  0.00  0.00    +0.000 A 
ATOM     12  C   UNL     1       7.263   4.716  17.018  0.00  0.00    +0.000 A 
ATOM     13  C   UNL     1       6.990   4.774  15.654  0.00  0.00    +0.000 A 
ATOM     14  C   UNL     1       5.730   4.418  15.194  0.00  0.00    +0.000 A 
ATOM     15  F   UNL     1       5.466   4.476  13.882  0.00  0.00    +0.000 F 
ATOM     16  C   UNL     1       4.734   4.006  16.073  0.00  0.00    +0.000 A 
ENDBRANCH   8  10
BRANCH   1  17
ATOM     17  C   UNL     1       2.134   7.760  20.091  0.00  0.00    +0.000 C 
BRANCH  17  23
ATOM     18  C   UNL     1      -1.431  11.901  18.016  0.00  0.00    +0.000 C 
ATOM     19  C   UNL     1      -0.547  10.842  18.603  0.00  0.00    +0.000 A 
ATOM     20  C   UNL     1      -0.680  10.378  19.852  0.00  0.00    +0.000 A 
ATOM     21  C   UNL     1       0.213   9.356  20.372  0.00  0.00    +0.000 A 
ATOM     22  C   UNL     1      -0.060   8.900  21.780  0.00  0.00    +0.000 C 
ATOM     23  C   UNL     1       1.225   8.866  19.623  0.00  0.00    +0.000 A 
ATOM     24  C   UNL     1       1.334   9.338  18.193  0.00  0.00    +0.000 A 
ATOM     25  O   UNL     1       2.150   8.895  17.408  0.00  0.00    +0.000 OA
ATOM     26  N   UNL     1       0.439  10.323  17.807  0.00  0.00    +0.000 N 
ATOM     27  H   UNL     1       0.540  10.647  16.851  0.00  0.00    +0.000 HD
ENDBRANCH  17  23
ENDBRANCH   1  17
TORSDOF 3
ENDMDL
MODEL 2
REMARK VINA RESULT:      -8.5      0.997      1.386
REMARK  Name = 
REMARK  5 active torsions:
REMARK  status: ('A' for Active; 'I' for Inactive)
REMARK    1  A    between atoms: C_1  and  C_2
REMARK    2  A    between atoms: C_4  and  C_5
REMARK    3  A    between atoms: C_6  and  C_7
REMARK    4  A    between atoms: C_7  and  N_8
REMARK    5  A    between atoms: C_15  and  C_16
REMARK                            x       y       z     vdW  Elec       q    Type
REMARK                         _______ _______ _______ _____ _____    ______ ____
ROOT
ATOM      1  N   UNL     1       1.762   6.482  19.591  0.00  0.00    +0.000 N 
ATOM      2  C   UNL     1       2.843   5.637  19.443  0.00  0.00    +0.000 C 
ATOM      3  O   UNL     1       3.955   5.909  19.889  0.00  0.00    +0.000 OA
ATOM      4  N   UNL     1       2.600   4.463  18.774  0.00  0.00    +0.000 N 
ATOM      5  C   UNL     1       1.364   4.000  18.178  0.00  0.00    +0.000 C 
ATOM      6  C   UNL     1       1.445   2.489  18.314  0.00  0.00    +0.000 C 
ATOM      7  C   UNL     1       2.932   2.182  18.154  0.00  0.00    +0.000 C 
ATOM      8  C   UNL     1       3.653   3.455  18.636  0.00  0.00    +0.000 C 
ATOM      9  H   UNL     1       0.888   6.005  19.764  0.00  0.00    +0.000 HD
ENDROOT
BRANCH   8  10
ATOM     10  C   UNL     1       4.763   3.875  17.687  0.00  0.00    +0.000 A 
ATOM     11  C   UNL     1       4.525   3.913  16.302  0.00  0.00    +0.000 A 
ATOM     12  C   UNL     1       5.538   4.275  15.408  0.00  0.00    +0.000 A 
ATOM     13  C   UNL     1       6.801   4.605  15.890  0.00  0.00    +0.000 A 
ATOM     14  C   UNL     1       7.042   4.571  17.256  0.00  0.00    +0.000 A 
ATOM     15  F   UNL     1       8.259   4.887  17.720  0.00  0.00    +0.000 F 
ATOM     16  C   UNL     1       6.043   4.210  18.153  0.00  0.00    +0.000 A 
ENDBRANCH   8  10
BRANCH   1  17
ATOM     17  C   UNL     1       1.952   7.707  20.358  0.00  0.00    +0.000 C 
BRANCH  17  23
ATOM     18  C   UNL     1      -1.244  12.078  18.156  0.00  0.00    +0.000 C 
ATOM     19  C   UNL     1      -0.457  10.963  18.775  0.00  0.00    +0.000 A 
ATOM     20  C   UNL     1      -0.663  10.515  20.020  0.00  0.00    +0.000 A 
ATOM     21  C   UNL     1       0.139   9.435  20.572  0.00  0.00    +0.000 A 
ATOM     22  C   UNL     1      -0.212   9.006  21.971  0.00  0.00    +0.000 C 
ATOM     23  C   UNL     1       1.138   8.872  19.858  0.00  0.00    +0.000 A 
ATOM     24  C   UNL     1       1.327   9.329  18.431  0.00  0.00    +0.000 A 
ATOM     25  O   UNL     1       2.136   8.827  17.674  0.00  0.00    +0.000 OA
ATOM     26  N   UNL     1       0.516  10.372  18.013  0.00  0.00    +0.000 N 
ATOM     27  H   UNL     1       0.671  10.684  17.060  0.00  0.00    +0.000 HD
ENDBRANCH  17  23
ENDBRANCH   1  17
TORSDOF 3
ENDMDL
MODEL 3
REMARK VINA RESULT:      -8.1      1.256      1.725
REMARK  Name = 
REMARK  5 active torsions:
REMARK  status: ('A' for Active; 'I' for Inactive)
REMARK    1  A    between atoms: C_1  and  C_2
REMARK    2  A    between atoms: C_4  and  C_5
REMARK    3  A    between atoms: C_6  and  C_7
REMARK    4  A    between atoms: C_7  and  N_8
REMARK    5  A    between atoms: C_15  and  C_16
REMARK                            x       y       z     vdW  Elec       q    Type
REMARK                         _______ _______ _______ _____ _____    ______ ____
ROOT
ATOM      1  N   UNL     1       1.920   6.229  19.647  0.00  0.00    +0.000 N 
ATOM      2  C   UNL     1       3.051   5.474  19.414  0.00  0.00    +0.000 C 
ATOM      3  O   UNL     1       4.166   5.829  19.788  0.00  0.00    +0.000 OA
ATOM      4  N   UNL     1       2.856   4.291  18.745  0.00  0.00    +0.000 N 
ATOM      5  C   UNL     1       1.623   3.736  18.227  0.00  0.00    +0.000 C 
ATOM      6  C   UNL     1       1.832   2.235  18.335  0.00  0.00    +0.000 C 
ATOM      7  C   UNL     1       3.324   2.050  18.070  0.00  0.00    +0.000 C 
ATOM      8  C   UNL     1       3.974   3.372  18.521  0.00  0.00    +0.000 C 
ATOM      9  H   UNL     1       1.100   5.681  19.872  0.00  0.00    +0.000 HD
ENDROOT
BRANCH   8  10
ATOM     10  C   UNL     1       4.980   3.887  17.506  0.00  0.00    +0.000 A 
ATOM     11  C   UNL     1       6.254   4.304  17.930  0.00  0.00    +0.000 A 
ATOM     12  C   UNL     1       7.187   4.803  17.015  0.00  0.00    +0.000 A 
ATOM     13  C   UNL     1       6.858   4.888  15.665  0.00  0.00    +0.000 A 
ATOM     14  C   UNL     1       5.603   4.477  15.241  0.00  0.00    +0.000 A 
ATOM     15  F   UNL     1       5.285   4.562  13.942  0.00  0.00    +0.000 F 
ATOM     16  C   UNL     1       4.665   3.982  16.142  0.00  0.00    +0.000 A 
ENDBRANCH   8  10
BRANCH   1  17
ATOM     17  C   UNL     1       2.064   7.457  20.418  0.00  0.00    +0.000 C 
BRANCH  17  23
ATOM     18  C   UNL     1      -1.264  11.981  18.799  0.00  0.00    +0.000 C 
ATOM     19  C   UNL     1      -0.382  10.824  19.158  0.00  0.00    +0.000 A 
ATOM     20  C   UNL     1       0.563  10.335  18.345  0.00  0.00    +0.000 A 
ATOM     21  C   UNL     1       1.384   9.203  18.743  0.00  0.00    +0.000 A 
ATOM     22  C   UNL     1       2.429   8.769  17.751  0.00  0.00    +0.000 C 
ATOM     23  C   UNL     1       1.197   8.589  19.931  0.00  0.00    +0.000 A 
ATOM     24  C   UNL     1       0.179   9.180  20.877  0.00  0.00    +0.000 A 
ATOM     25  O   UNL     1      -0.005   8.761  22.003  0.00  0.00    +0.000 OA
ATOM     26  N   UNL     1      -0.556  10.250  20.390  0.00  0.00    +0.000 N 
ATOM     27  H   UNL     1      -1.252  10.621  21.027  0.00  0.00    +0.000 HD
ENDBRANCH  17  23
ENDBRANCH   1  17
TORSDOF 3
ENDMDL
MODEL 4
REMARK VINA RESULT:      -8.0      2.915      6.545
REMARK  Name = 
REMARK  5 active torsions:
REMARK  status: ('A' for Active; 'I' for Inactive)
REMARK    1  A    between atoms: C_1  and  C_2
REMARK    2  A    between atoms: C_4  and  C_5
REMARK    3  A    between atoms: C_6  and  C_7
REMARK    4  A    between atoms: C_7  and  N_8
REMARK    5  A    between atoms: C_15  and  C_16
REMARK                            x       y       z     vdW  Elec       q    Type
REMARK                         _______ _______ _______ _____ _____    ______ ____
ROOT
ATOM      1  N   UNL     1       5.510   3.733  18.869  0.00  0.00    +0.000 N 
ATOM      2  C   UNL     1       4.305   4.348  18.600  0.00  0.00    +0.000 C 
ATOM      3  O   UNL     1       4.166   5.145  17.675  0.00  0.00    +0.000 OA
ATOM      4  N   UNL     1       3.260   4.010  19.425  0.00  0.00    +0.000 N 
ATOM      5  C   UNL     1       3.257   3.108  20.558  0.00  0.00    +0.000 C 
ATOM      6  C   UNL     1       1.850   2.536  20.557  0.00  0.00    +0.000 C 
ATOM      7  C   UNL     1       0.982   3.690  20.061  0.00  0.00    +0.000 C 
ATOM      8  C   UNL     1       1.917   4.537  19.177  0.00  0.00    +0.000 C 
ATOM      9  H   UNL     1       5.422   2.768  19.158  0.00  0.00    +0.000 HD
ENDROOT
BRANCH   8  10
ATOM     10  C   UNL     1       1.792   6.022  19.475  0.00  0.00    +0.000 A 
ATOM     11  C   UNL     1       1.447   6.451  20.769  0.00  0.00    +0.000 A 
ATOM     12  C   UNL     1       1.305   7.811  21.060  0.00  0.00    +0.000 A 
ATOM     13  C   UNL     1       1.509   8.759  20.061  0.00  0.00    +0.000 A 
ATOM     14  C   UNL     1       1.851   8.342  18.782  0.00  0.00    +0.000 A 
ATOM     15  F   UNL     1       2.044   9.253  17.820  0.00  0.00    +0.000 F 
ATOM     16  C   UNL     1       1.992   6.991  18.481  0.00  0.00    +0.000 A 
ENDBRANCH   8  10
BRANCH   1  17
ATOM     17  C   UNL     1       6.630   4.003  17.976  0.00  0.00    +0.000 C 
BRANCH  17  23
ATOM     18  C   UNL     1       8.785   9.426  18.314  0.00  0.00    +0.000 C 
ATOM     19  C   UNL     1       8.216   8.048  18.168  0.00  0.00    +0.000 A 
ATOM     20  C   UNL     1       7.659   7.594  17.037  0.00  0.00    +0.000 A 
ATOM     21  C   UNL     1       7.113   6.249  16.956  0.00  0.00    +0.000 A 
ATOM     22  C   UNL     1       6.543   5.852  15.622  0.00  0.00    +0.000 C 
ATOM     23  C   UNL     1       7.121   5.427  18.028  0.00  0.00    +0.000 A 
ATOM     24  C   UNL     1       7.808   5.911  19.282  0.00  0.00    +0.000 A 
ATOM     25  O   UNL     1       7.950   5.219  20.272  0.00  0.00    +0.000 OA
ATOM     26  N   UNL     1       8.281   7.214  19.253  0.00  0.00    +0.000 N 
ATOM     27  H   UNL     1       8.719   7.533  20.110  0.00  0.00    +0.000 HD
ENDBRANCH  17  23
ENDBRANCH   1  17
TORSDOF 3
ENDMDL
MODEL 5
REMARK VINA RESULT:      -8.0      1.371      2.157
REMARK  Name = 
REMARK  5 active torsions:
REMARK  status: ('A' for Active; 'I' for Inactive)
REMARK    1  A    between atoms: C_1  and  C_2
REMARK    2  A    between atoms: C_4  and  C_5
REMARK    3  A    between atoms: C_6  and  C_7
REMARK    4  A    between atoms: C_7  and  N_8
REMARK    5  A    between atoms: C_15  and  C_16
REMARK                            x       y       z     vdW  Elec       q    Type
REMARK                         _______ _______ _______ _____ _____    ______ ____
ROOT
ATOM      1  N   UNL     1       1.910   7.262  18.169  0.00  0.00    +0.000 N 
ATOM      2  C   UNL     1       3.018   6.448  18.283  0.00  0.00    +0.000 C 
ATOM      3  O   UNL     1       4.128   6.886  18.579  0.00  0.00    +0.000 OA
ATOM      4  N   UNL     1       2.807   5.111  18.055  0.00  0.00    +0.000 N 
ATOM      5  C   UNL     1       1.579   4.438  17.686  0.00  0.00    +0.000 C 
ATOM      6  C   UNL     1       1.718   3.065  18.321  0.00  0.00    +0.000 C 
ATOM      7  C   UNL     1       3.212   2.765  18.230  0.00  0.00    +0.000 C 
ATOM      8  C   UNL     1       3.894   4.146  18.234  0.00  0.00    +0.000 C 
ATOM      9  H   UNL     1       1.057   6.846  18.518  0.00  0.00    +0.000 HD
ENDROOT
BRANCH   8  10
ATOM     10  C   UNL     1       4.971   4.253  17.167  0.00  0.00    +0.000 A 
ATOM     11  C   UNL     1       6.304   4.501  17.538  0.00  0.00    +0.000 A 
ATOM     12  C   UNL     1       7.307   4.625  16.572  0.00  0.00    +0.000 A 
ATOM     13  C   UNL     1       6.989   4.499  15.222  0.00  0.00    +0.000 A 
ATOM     14  C   UNL     1       5.676   4.252  14.850  0.00  0.00    +0.000 A 
ATOM     15  F   UNL     1       5.369   4.134  13.551  0.00  0.00    +0.000 F 
ATOM     16  C   UNL     1       4.669   4.130  15.803  0.00  0.00    +0.000 A 
ENDBRANCH   8  10
BRANCH   1  17
ATOM     17  C   UNL     1       2.068   8.679  18.473  0.00  0.00    +0.000 C 
BRANCH  17  23
ATOM     18  C   UNL     1      -0.990  10.419  23.141  0.00  0.00    +0.000 C 
ATOM     19  C   UNL     1      -0.221  10.027  21.916  0.00  0.00    +0.000 A 
ATOM     20  C   UNL     1      -0.092  10.816  20.840  0.00  0.00    +0.000 A 
ATOM     21  C   UNL     1       0.660  10.379  19.676  0.00  0.00    +0.000 A 
ATOM     22  C   UNL     1       0.754  11.370  18.547  0.00  0.00    +0.000 C 
ATOM     23  C   UNL     1       1.223   9.153  19.628  0.00  0.00    +0.000 A 
ATOM     24  C   UNL     1       1.137   8.289  20.864  0.00  0.00    +0.000 A 
ATOM     25  O   UNL     1       1.684   7.208  20.959  0.00  0.00    +0.000 OA
ATOM     26  N   UNL     1       0.385   8.799  21.911  0.00  0.00    +0.000 N 
ATOM     27  H   UNL     1       0.316   8.198  22.725  0.00  0.00    +0.000 HD
ENDBRANCH  17  23
ENDBRANCH   1  17
TORSDOF 3
ENDMDL
MODEL 6
REMARK VINA RESULT:      -7.9      3.256      6.736
REMARK  Name = 
REMARK  5 active torsions:
REMARK  status: ('A' for Active; 'I' for Inactive)
REMARK    1  A    between atoms: C_1  and  C_2
REMARK    2  A    between atoms: C_4  and  C_5
REMARK    3  A    between atoms: C_6  and  C_7
REMARK    4  A    between atoms: C_7  and  N_8
REMARK    5  A    between atoms: C_15  and  C_16
REMARK                            x       y       z     vdW  Elec       q    Type
REMARK                         _______ _______ _______ _____ _____    ______ ____
ROOT
ATOM      1  N   UNL     1       5.492   3.745  18.901  0.00  0.00    +0.000 N 
ATOM      2  C   UNL     1       4.282   4.346  18.622  0.00  0.00    +0.000 C 
ATOM      3  O   UNL     1       4.135   5.120  17.679  0.00  0.00    +0.000 OA
ATOM      4  N   UNL     1       3.242   4.020  19.457  0.00  0.00    +0.000 N 
ATOM      5  C   UNL     1       3.248   3.145  20.612  0.00  0.00    +0.000 C 
ATOM      6  C   UNL     1       1.845   2.564  20.628  0.00  0.00    +0.000 C 
ATOM      7  C   UNL     1       0.968   3.700  20.107  0.00  0.00    +0.000 C 
ATOM      8  C   UNL     1       1.895   4.533  19.201  0.00  0.00    +0.000 C 
ATOM      9  H   UNL     1       5.412   2.786  19.214  0.00  0.00    +0.000 HD
ENDROOT
BRANCH   8  10
ATOM     10  C   UNL     1       1.761   6.023  19.465  0.00  0.00    +0.000 A 
ATOM     11  C   UNL     1       1.959   6.941  18.418  0.00  0.00    +0.000 A 
ATOM     12  C   UNL     1       1.862   8.318  18.643  0.00  0.00    +0.000 A 
ATOM     13  C   UNL     1       1.563   8.793  19.917  0.00  0.00    +0.000 A 
ATOM     14  C   UNL     1       1.365   7.892  20.954  0.00  0.00    +0.000 A 
ATOM     15  F   UNL     1       1.081   8.349  22.180  0.00  0.00    +0.000 F 
ATOM     16  C   UNL     1       1.462   6.520  20.742  0.00  0.00    +0.000 A 
ENDBRANCH   8  10
BRANCH   1  17
ATOM     17  C   UNL     1       6.608   4.002  18.000  0.00  0.00    +0.000 C 
BRANCH  17  23
ATOM     18  C   UNL     1       8.800   9.412  18.289  0.00  0.00    +0.000 C 
ATOM     19  C   UNL     1       8.222   8.037  18.155  0.00  0.00    +0.000 A 
ATOM     20  C   UNL     1       7.668   7.574  17.026  0.00  0.00    +0.000 A 
ATOM     21  C   UNL     1       7.113   6.233  16.957  0.00  0.00    +0.000 A 
ATOM     22  C   UNL     1       6.547   5.825  15.624  0.00  0.00    +0.000 C 
ATOM     23  C   UNL     1       7.109   5.422  18.038  0.00  0.00    +0.000 A 
ATOM     24  C   UNL     1       7.793   5.916  19.291  0.00  0.00    +0.000 A 
ATOM     25  O   UNL     1       7.924   5.234  20.289  0.00  0.00    +0.000 OA
ATOM     26  N   UNL     1       8.275   7.214  19.249  0.00  0.00    +0.000 N 
ATOM     27  H   UNL     1       8.710   7.540  20.106  0.00  0.00    +0.000 HD
ENDBRANCH  17  23
ENDBRANCH   1  17
TORSDOF 3
ENDMDL
MODEL 7
REMARK VINA RESULT:      -7.7      1.616      2.211
REMARK  Name = 
REMARK  5 active torsions:
REMARK  status: ('A' for Active; 'I' for Inactive)
REMARK    1  A    between atoms: C_1  and  C_2
REMARK    2  A    between atoms: C_4  and  C_5
REMARK    3  A    between atoms: C_6  and  C_7
REMARK    4  A    between atoms: C_7  and  N_8
REMARK    5  A    between atoms: C_15  and  C_16
REMARK                            x       y       z     vdW  Elec       q    Type
REMARK                         _______ _______ _______ _____ _____    ______ ____
ROOT
ATOM      1  N   UNL     1       1.725   6.351  19.732  0.00  0.00    +0.000 N 
ATOM      2  C   UNL     1       2.821   5.535  19.545  0.00  0.00    +0.000 C 
ATOM      3  O   UNL     1       3.938   5.828  19.966  0.00  0.00    +0.000 OA
ATOM      4  N   UNL     1       2.590   4.364  18.867  0.00  0.00    +0.000 N 
ATOM      5  C   UNL     1       1.350   3.877  18.297  0.00  0.00    +0.000 C 
ATOM      6  C   UNL     1       1.472   2.367  18.412  0.00  0.00    +0.000 C 
ATOM      7  C   UNL     1       2.961   2.099  18.210  0.00  0.00    +0.000 C 
ATOM      8  C   UNL     1       3.663   3.384  18.688  0.00  0.00    +0.000 C 
ATOM      9  H   UNL     1       0.867   5.850  19.922  0.00  0.00    +0.000 HD
ENDROOT
BRANCH   8  10
ATOM     10  C   UNL     1       4.737   3.843  17.717  0.00  0.00    +0.000 A 
ATOM     11  C   UNL     1       4.474   3.857  16.336  0.00  0.00    +0.000 A 
ATOM     12  C   UNL     1       5.455   4.254  15.422  0.00  0.00    +0.000 A 
ATOM     13  C   UNL     1       6.711   4.645  15.878  0.00  0.00    +0.000 A 
ATOM     14  C   UNL     1       6.976   4.635  17.240  0.00  0.00    +0.000 A 
ATOM     15  F   UNL     1       8.185   5.008  17.680  0.00  0.00    +0.000 F 
ATOM     16  C   UNL     1       6.009   4.238  18.158  0.00  0.00    +0.000 A 
ENDBRANCH   8  10
BRANCH   1  17
ATOM     17  C   UNL     1       1.904   7.571  20.510  0.00  0.00    +0.000 C 
BRANCH  17  23
ATOM     18  C   UNL     1      -1.318  12.187  18.935  0.00  0.00    +0.000 C 
ATOM     19  C   UNL     1      -0.463  11.006  19.283  0.00  0.00    +0.000 A 
ATOM     20  C   UNL     1       0.476  10.507  18.468  0.00  0.00    +0.000 A 
ATOM     21  C   UNL     1       1.270   9.353  18.855  0.00  0.00    +0.000 A 
ATOM     22  C   UNL     1       2.310   8.910  17.862  0.00  0.00    +0.000 C 
ATOM     23  C   UNL     1       1.064   8.727  20.033  0.00  0.00    +0.000 A 
ATOM     24  C   UNL     1       0.054   9.328  20.983  0.00  0.00    +0.000 A 
ATOM     25  O   UNL     1      -0.144   8.898  22.102  0.00  0.00    +0.000 OA
ATOM     26  N   UNL     1      -0.654  10.420  20.506  0.00  0.00    +0.000 N 
ATOM     27  H   UNL     1      -1.346  10.797  21.145  0.00  0.00    +0.000 HD
ENDBRANCH  17  23
ENDBRANCH   1  17
TORSDOF 3
ENDMDL
MODEL 8
REMARK VINA RESULT:      -7.5      2.983      6.322
REMARK  Name = 
REMARK  5 active torsions:
REMARK  status: ('A' for Active; 'I' for Inactive)
REMARK    1  A    between atoms: C_1  and  C_2
REMARK    2  A    between atoms: C_4  and  C_5
REMARK    3  A    between atoms: C_6  and  C_7
REMARK    4  A    between atoms: C_7  and  N_8
REMARK    5  A    between atoms: C_15  and  C_16
REMARK                            x       y       z     vdW  Elec       q    Type
REMARK                         _______ _______ _______ _____ _____    ______ ____
ROOT
ATOM      1  N   UNL     1       5.734   3.899  18.552  0.00  0.00    +0.000 N 
ATOM      2  C   UNL     1       4.503   4.470  18.307  0.00  0.00    +0.000 C 
ATOM      3  O   UNL     1       4.318   5.265  17.389  0.00  0.00    +0.000 OA
ATOM      4  N   UNL     1       3.486   4.087  19.146  0.00  0.00    +0.000 N 
ATOM      5  C   UNL     1       3.536   3.181  20.275  0.00  0.00    +0.000 C 
ATOM      6  C   UNL     1       2.151   2.556  20.294  0.00  0.00    +0.000 C 
ATOM      7  C   UNL     1       1.232   3.678  19.819  0.00  0.00    +0.000 C 
ATOM      8  C   UNL     1       2.119   4.565  18.924  0.00  0.00    +0.000 C 
ATOM      9  H   UNL     1       5.688   2.930  18.837  0.00  0.00    +0.000 HD
ENDROOT
BRANCH   8  10
ATOM     10  C   UNL     1       1.943   6.042  19.233  0.00  0.00    +0.000 A 
ATOM     11  C   UNL     1       1.651   6.455  20.544  0.00  0.00    +0.000 A 
ATOM     12  C   UNL     1       1.463   7.807  20.846  0.00  0.00    +0.000 A 
ATOM     13  C   UNL     1       1.568   8.764  19.840  0.00  0.00    +0.000 A 
ATOM     14  C   UNL     1       1.858   8.362  18.544  0.00  0.00    +0.000 A 
ATOM     15  F   UNL     1       1.957   9.282  17.575  0.00  0.00    +0.000 F 
ATOM     16  C   UNL     1       2.044   7.020  18.232  0.00  0.00    +0.000 A 
ENDBRANCH   8  10
BRANCH   1  17
ATOM     17  C   UNL     1       6.829   4.216  17.642  0.00  0.00    +0.000 C 
BRANCH  17  23
ATOM     18  C   UNL     1       8.603   9.767  18.096  0.00  0.00    +0.000 C 
ATOM     19  C   UNL     1       8.173   8.332  18.037  0.00  0.00    +0.000 A 
ATOM     20  C   UNL     1       8.386   7.455  19.027  0.00  0.00    +0.000 A 
ATOM     21  C   UNL     1       7.954   6.072  18.910  0.00  0.00    +0.000 A 
ATOM     22  C   UNL     1       8.226   5.197  20.103  0.00  0.00    +0.000 C 
ATOM     23  C   UNL     1       7.354   5.620  17.787  0.00  0.00    +0.000 A 
ATOM     24  C   UNL     1       7.053   6.622  16.698  0.00  0.00    +0.000 A 
ATOM     25  O   UNL     1       6.438   6.341  15.687  0.00  0.00    +0.000 OA
ATOM     26  N   UNL     1       7.520   7.910  16.909  0.00  0.00    +0.000 N 
ATOM     27  H   UNL     1       7.332   8.566  16.159  0.00  0.00    +0.000 HD
ENDBRANCH  17  23
ENDBRANCH   1  17
TORSDOF 3
ENDMDL
MODEL 9
REMARK VINA RESULT:      -7.5      1.728      2.552
REMARK  Name = 
REMARK  5 active torsions:
REMARK  status: ('A' for Active; 'I' for Inactive)
REMARK    1  A    between atoms: C_1  and  C_2
REMARK    2  A    between atoms: C_4  and  C_5
REMARK    3  A    between atoms: C_6  and  C_7
REMARK    4  A    between atoms: C_7  and  N_8
REMARK    5  A    between atoms: C_15  and  C_16
REMARK                            x       y       z     vdW  Elec       q    Type
REMARK                         _______ _______ _______ _____ _____    ______ ____
ROOT
ATOM      1  N   UNL     1       1.797   7.430  18.226  0.00  0.00    +0.000 N 
ATOM      2  C   UNL     1       2.839   6.554  18.450  0.00  0.00    +0.000 C 
ATOM      3  O   UNL     1       3.933   6.927  18.868  0.00  0.00    +0.000 OA
ATOM      4  N   UNL     1       2.580   5.232  18.186  0.00  0.00    +0.000 N 
ATOM      5  C   UNL     1       1.363   4.631  17.679  0.00  0.00    +0.000 C 
ATOM      6  C   UNL     1       1.356   3.250  18.310  0.00  0.00    +0.000 C 
ATOM      7  C   UNL     1       2.832   2.866  18.378  0.00  0.00    +0.000 C 
ATOM      8  C   UNL     1       3.586   4.206  18.469  0.00  0.00    +0.000 C 
ATOM      9  H   UNL     1       0.890   7.061  18.477  0.00  0.00    +0.000 HD
ENDROOT
BRANCH   8  10
ATOM     10  C   UNL     1       4.776   4.257  17.526  0.00  0.00    +0.000 A 
ATOM     11  C   UNL     1       4.571   4.208  16.136  0.00  0.00    +0.000 A 
ATOM     12  C   UNL     1       5.653   4.231  15.250  0.00  0.00    +0.000 A 
ATOM     13  C   UNL     1       6.952   4.306  15.744  0.00  0.00    +0.000 A 
ATOM     14  C   UNL     1       7.160   4.356  17.115  0.00  0.00    +0.000 A 
ATOM     15  F   UNL     1       8.411   4.424  17.591  0.00  0.00    +0.000 F 
ATOM     16  C   UNL     1       6.092   4.330  18.005  0.00  0.00    +0.000 A 
ENDBRANCH   8  10
BRANCH   1  17
ATOM     17  C   UNL     1       2.000   8.834  18.561  0.00  0.00    +0.000 C 
BRANCH  17  23
ATOM     18  C   UNL     1      -1.150  10.620  23.149  0.00  0.00    +0.000 C 
ATOM     19  C   UNL     1      -0.354  10.218  21.945  0.00  0.00    +0.000 A 
ATOM     20  C   UNL     1      -0.162  11.015  20.885  0.00  0.00    +0.000 A 
ATOM     21  C   UNL     1       0.612  10.567  19.740  0.00  0.00    +0.000 A 
ATOM     22  C   UNL     1       0.778  11.568  18.629  0.00  0.00    +0.000 C 
ATOM     23  C   UNL     1       1.134   9.322  19.693  0.00  0.00    +0.000 A 
ATOM     24  C   UNL     1       0.977   8.447  20.914  0.00  0.00    +0.000 A 
ATOM     25  O   UNL     1       1.483   7.346  21.012  0.00  0.00    +0.000 OA
ATOM     26  N   UNL     1       0.209   8.969  21.943  0.00  0.00    +0.000 N 
ATOM     27  H   UNL     1       0.092   8.360  22.745  0.00  0.00    +0.000 HD
ENDBRANCH  17  23
ENDBRANCH   1  17
TORSDOF 3
ENDMDL
