MODEL 1
REMARK VINA RESULT:      -7.5      0.000      0.000
REMARK  Name = 
REMARK  4 active torsions:
REMARK  status: ('A' for Active; 'I' for Inactive)
REMARK    1  A    between atoms: C_1  and  C_2
REMARK    2  A    between atoms: C_2  and  C_3
REMARK    3  A    between atoms: C_17  and  S_18
REMARK    4  A    between atoms: S_18  and  C_19
REMARK                            x       y       z     vdW  Elec       q    Type
REMARK                         _______ _______ _______ _____ _____    ______ ____
ROOT
ATOM      1  C   UNL     1       4.832   1.017  19.575  0.00  0.00    +0.000 C 
ATOM      2  C   UNL     1       4.205   2.423  19.593  0.00  0.00    +0.000 C 
ATOM      3  C   UNL     1       3.305   2.548  20.826  0.00  0.00    +0.000 C 
ATOM      4  O   UNL     1       5.295   3.372  19.839  0.00  0.00    +0.000 OA
ATOM      5  C   UNL     1       5.370   4.130  18.685  0.00  0.00    +0.000 C 
ATOM      6  C   UNL     1       4.495   3.821  17.740  0.00  0.00    +0.000 C 
ATOM      7  C   UNL     1       4.574   4.430  16.413  0.00  0.00    +0.000 C 
ATOM      8  O   UNL     1       3.924   4.007  15.471  0.00  0.00    +0.000 OA
ATOM      9  C   UNL     1       5.568   5.582  16.242  0.00  0.00    +0.000 C 
ATOM     10  O   UNL     1       5.613   6.214  15.195  0.00  0.00    +0.000 OA
ATOM     11  C   UNL     1       6.477   5.901  17.370  0.00  0.00    +0.000 A 
ATOM     12  C   UNL     1       7.414   6.934  17.233  0.00  0.00    +0.000 A 
ATOM     13  C   UNL     1       8.261   7.247  18.295  0.00  0.00    +0.000 A 
ATOM     14  C   UNL     1       8.175   6.531  19.487  0.00  0.00    +0.000 A 
ATOM     15  C   UNL     1       7.243   5.495  19.621  0.00  0.00    +0.000 A 
ATOM     16  C   UNL     1       6.382   5.171  18.564  0.00  0.00    +0.000 A 
ATOM     17  C   UNL     1       3.578   2.742  18.185  0.00  0.00    +0.000 C 
ENDROOT
BRANCH  17  18
ATOM     18  S   UNL     1       1.843   3.367  18.121  0.00  0.00    +0.000 S 
BRANCH  18  19
ATOM     19  C   UNL     1       1.980   5.021  18.785  0.00  0.00    +0.000 A 
ATOM     20  C   UNL     1       1.742   5.193  20.156  0.00  0.00    +0.000 A 
ATOM     21  C   UNL     1       1.735   6.469  20.725  0.00  0.00    +0.000 A 
ATOM     22  C   UNL     1       1.983   7.585  19.933  0.00  0.00    +0.000 A 
ATOM     23  C   UNL     1       2.279   7.421  18.581  0.00  0.00    +0.000 A 
ATOM     24  C   UNL     1       2.291   6.143  18.013  0.00  0.00    +0.000 A 
ENDBRANCH  18  19
ENDBRANCH  17  18
TORSDOF 2
ENDMDL
MODEL 2
REMARK VINA RESULT:      -6.7      8.498     11.541
REMARK  Name = 
REMARK  4 active torsions:
REMARK  status: ('A' for Active; 'I' for Inactive)
REMARK    1  A    between atoms: C_1  and  C_2
REMARK    2  A    between atoms: C_2  and  C_3
REMARK    3  A    between atoms: C_17  and  S_18
REMARK    4  A    between atoms: S_18  and  C_19
REMARK                            x       y       z     vdW  Elec       q    Type
REMARK                         _______ _______ _______ _____ _____    ______ ____
ROOT
ATOM      1  C   UNL     1      -2.953  15.577  21.047  0.00  0.00    +0.000 C 
ATOM      2  C   UNL     1      -1.499  15.309  21.474  0.00  0.00    +0.000 C 
ATOM      3  C   UNL     1      -1.110  16.311  22.566  0.00  0.00    +0.000 C 
ATOM      4  O   UNL     1      -1.486  14.008  22.153  0.00  0.00    +0.000 OA
ATOM      5  C   UNL     1      -0.713  13.196  21.343  0.00  0.00    +0.000 C 
ATOM      6  C   UNL     1      -0.221  13.773  20.258  0.00  0.00    +0.000 C 
ATOM      7  C   UNL     1       0.473  12.988  19.237  0.00  0.00    +0.000 C 
ATOM      8  O   UNL     1       0.740  13.451  18.140  0.00  0.00    +0.000 OA
ATOM      9  C   UNL     1       0.785  11.530  19.584  0.00  0.00    +0.000 C 
ATOM     10  O   UNL     1       1.459  10.842  18.829  0.00  0.00    +0.000 OA
ATOM     11  C   UNL     1       0.242  10.975  20.848  0.00  0.00    +0.000 A 
ATOM     12  C   UNL     1       0.491   9.636  21.179  0.00  0.00    +0.000 A 
ATOM     13  C   UNL     1      -0.005   9.114  22.373  0.00  0.00    +0.000 A 
ATOM     14  C   UNL     1      -0.748   9.923  23.231  0.00  0.00    +0.000 A 
ATOM     15  C   UNL     1      -1.001  11.259  22.896  0.00  0.00    +0.000 A 
ATOM     16  C   UNL     1      -0.506  11.799  21.701  0.00  0.00    +0.000 A 
ATOM     17  C   UNL     1      -0.581  15.212  20.200  0.00  0.00    +0.000 C 
ENDROOT
BRANCH  17  18
ATOM     18  S   UNL     1       0.968  16.215  20.158  0.00  0.00    +0.000 S 
BRANCH  18  19
ATOM     19  C   UNL     1       0.774  17.202  18.680  0.00  0.00    +0.000 A 
ATOM     20  C   UNL     1      -0.475  17.797  18.454  0.00  0.00    +0.000 A 
ATOM     21  C   UNL     1      -0.728  18.500  17.274  0.00  0.00    +0.000 A 
ATOM     22  C   UNL     1       0.271  18.630  16.314  0.00  0.00    +0.000 A 
ATOM     23  C   UNL     1       1.534  18.093  16.554  0.00  0.00    +0.000 A 
ATOM     24  C   UNL     1       1.788  17.394  17.738  0.00  0.00    +0.000 A 
ENDBRANCH  18  19
ENDBRANCH  17  18
TORSDOF 2
ENDMDL
MODEL 3
REMARK VINA RESULT:      -6.6      8.480     11.361
REMARK  Name = 
REMARK  4 active torsions:
REMARK  status: ('A' for Active; 'I' for Inactive)
REMARK    1  A    between atoms: C_1  and  C_2
REMARK    2  A    between atoms: C_2  and  C_3
REMARK    3  A    between atoms: C_17  and  S_18
REMARK    4  A    between atoms: S_18  and  C_19
REMARK                            x       y       z     vdW  Elec       q    Type
REMARK                         _______ _______ _______ _____ _____    ______ ____
ROOT
ATOM      1  C   UNL     1      -0.140  10.349  21.873  0.00  0.00    +0.000 C 
ATOM      2  C   UNL     1      -0.262  11.518  20.880  0.00  0.00    +0.000 C 
ATOM      3  C   UNL     1       1.118  12.157  20.694  0.00  0.00    +0.000 C 
ATOM      4  O   UNL     1      -0.573  10.935  19.570  0.00  0.00    +0.000 OA
ATOM      5  C   UNL     1      -1.841  11.399  19.270  0.00  0.00    +0.000 C 
ATOM      6  C   UNL     1      -2.388  12.194  20.176  0.00  0.00    +0.000 C 
ATOM      7  C   UNL     1      -3.782  12.619  20.061  0.00  0.00    +0.000 C 
ATOM      8  O   UNL     1      -4.368  13.166  20.981  0.00  0.00    +0.000 OA
ATOM      9  C   UNL     1      -4.499  12.281  18.751  0.00  0.00    +0.000 C 
ATOM     10  O   UNL     1      -5.629  12.699  18.534  0.00  0.00    +0.000 OA
ATOM     11  C   UNL     1      -3.795  11.429  17.762  0.00  0.00    +0.000 A 
ATOM     12  C   UNL     1      -4.436  11.083  16.565  0.00  0.00    +0.000 A 
ATOM     13  C   UNL     1      -3.772  10.294  15.627  0.00  0.00    +0.000 A 
ATOM     14  C   UNL     1      -2.476   9.851  15.882  0.00  0.00    +0.000 A 
ATOM     15  C   UNL     1      -1.838  10.193  17.081  0.00  0.00    +0.000 A 
ATOM     16  C   UNL     1      -2.491  10.988  18.032  0.00  0.00    +0.000 A 
ATOM     17  C   UNL     1      -1.457  12.451  21.303  0.00  0.00    +0.000 C 
ENDROOT
BRANCH  17  18
ATOM     18  S   UNL     1      -1.150  14.266  21.425  0.00  0.00    +0.000 S 
BRANCH  18  19
ATOM     19  C   UNL     1      -1.552  14.635  23.127  0.00  0.00    +0.000 A 
ATOM     20  C   UNL     1      -2.711  14.054  23.662  0.00  0.00    +0.000 A 
ATOM     21  C   UNL     1      -3.139  14.374  24.952  0.00  0.00    +0.000 A 
ATOM     22  C   UNL     1      -2.405  15.266  25.728  0.00  0.00    +0.000 A 
ATOM     23  C   UNL     1      -1.221  15.804  25.228  0.00  0.00    +0.000 A 
ATOM     24  C   UNL     1      -0.790  15.479  23.938  0.00  0.00    +0.000 A 
ENDBRANCH  18  19
ENDBRANCH  17  18
TORSDOF 2
ENDMDL
MODEL 4
REMARK VINA RESULT:      -6.5      8.676     10.798
REMARK  Name = 
REMARK  4 active torsions:
REMARK  status: ('A' for Active; 'I' for Inactive)
REMARK    1  A    between atoms: C_1  and  C_2
REMARK    2  A    between atoms: C_2  and  C_3
REMARK    3  A    between atoms: C_17  and  S_18
REMARK    4  A    between atoms: S_18  and  C_19
REMARK                            x       y       z     vdW  Elec       q    Type
REMARK                         _______ _______ _______ _____ _____    ______ ____
ROOT
ATOM      1  C   UNL     1      10.377  15.971  23.245  0.00  0.00    +0.000 C 
ATOM      2  C   UNL     1       9.271  15.597  22.243  0.00  0.00    +0.000 C 
ATOM      3  C   UNL     1       8.222  16.713  22.223  0.00  0.00    +0.000 C 
ATOM      4  O   UNL     1       9.873  15.639  20.907  0.00  0.00    +0.000 OA
ATOM      5  C   UNL     1       9.823  14.333  20.456  0.00  0.00    +0.000 C 
ATOM      6  C   UNL     1       9.276  13.461  21.289  0.00  0.00    +0.000 C 
ATOM      7  C   UNL     1       9.309  12.027  21.007  0.00  0.00    +0.000 C 
ATOM      8  O   UNL     1       9.011  11.197  21.850  0.00  0.00    +0.000 OA
ATOM      9  C   UNL     1       9.808  11.609  19.621  0.00  0.00    +0.000 C 
ATOM     10  O   UNL     1       9.761  10.437  19.270  0.00  0.00    +0.000 OA
ATOM     11  C   UNL     1      10.356  12.656  18.725  0.00  0.00    +0.000 A 
ATOM     12  C   UNL     1      10.843  12.300  17.460  0.00  0.00    +0.000 A 
ATOM     13  C   UNL     1      11.345  13.282  16.609  0.00  0.00    +0.000 A 
ATOM     14  C   UNL     1      11.365  14.614  17.018  0.00  0.00    +0.000 A 
ATOM     15  C   UNL     1      10.884  14.969  18.284  0.00  0.00    +0.000 A 
ATOM     16  C   UNL     1      10.372  13.993  19.150  0.00  0.00    +0.000 A 
ATOM     17  C   UNL     1       8.780  14.127  22.519  0.00  0.00    +0.000 C 
ENDROOT
BRANCH  17  18
ATOM     18  S   UNL     1       6.967  13.824  22.675  0.00  0.00    +0.000 S 
BRANCH  18  19
ATOM     19  C   UNL     1       6.843  12.848  24.168  0.00  0.00    +0.000 A 
ATOM     20  C   UNL     1       5.950  11.767  24.166  0.00  0.00    +0.000 A 
ATOM     21  C   UNL     1       5.730  11.021  25.325  0.00  0.00    +0.000 A 
ATOM     22  C   UNL     1       6.411  11.337  26.496  0.00  0.00    +0.000 A 
ATOM     23  C   UNL     1       7.344  12.373  26.494  0.00  0.00    +0.000 A 
ATOM     24  C   UNL     1       7.568  13.116  25.331  0.00  0.00    +0.000 A 
ENDBRANCH  18  19
ENDBRANCH  17  18
TORSDOF 2
ENDMDL
MODEL 5
REMARK VINA RESULT:      -6.5      9.147     11.962
REMARK  Name = 
REMARK  4 active torsions:
REMARK  status: ('A' for Active; 'I' for Inactive)
REMARK    1  A    between atoms: C_1  and  C_2
REMARK    2  A    between atoms: C_2  and  C_3
REMARK    3  A    between atoms: C_17  and  S_18
REMARK    4  A    between atoms: S_18  and  C_19
REMARK                            x       y       z     vdW  Elec       q    Type
REMARK                         _______ _______ _______ _____ _____    ______ ____
ROOT
ATOM      1  C   UNL     1      -0.349  15.027  18.804  0.00  0.00    +0.000 C 
ATOM      2  C   UNL     1      -0.321  13.819  19.758  0.00  0.00    +0.000 C 
ATOM      3  C   UNL     1       1.030  13.110  19.621  0.00  0.00    +0.000 C 
ATOM      4  O   UNL     1      -0.314  14.355  21.124  0.00  0.00    +0.000 OA
ATOM      5  C   UNL     1      -1.512  13.936  21.673  0.00  0.00    +0.000 C 
ATOM      6  C   UNL     1      -2.282  13.210  20.877  0.00  0.00    +0.000 C 
ATOM      7  C   UNL     1      -3.641  12.844  21.274  0.00  0.00    +0.000 C 
ATOM      8  O   UNL     1      -4.438  12.368  20.482  0.00  0.00    +0.000 OA
ATOM      9  C   UNL     1      -4.044  13.154  22.719  0.00  0.00    +0.000 C 
ATOM     10  O   UNL     1      -5.123  12.778  23.158  0.00  0.00    +0.000 OA
ATOM     11  C   UNL     1      -3.100  13.925  23.562  0.00  0.00    +0.000 A 
ATOM     12  C   UNL     1      -3.451  14.245  24.881  0.00  0.00    +0.000 A 
ATOM     13  C   UNL     1      -2.561  14.957  25.682  0.00  0.00    +0.000 A 
ATOM     14  C   UNL     1      -1.326  15.352  25.170  0.00  0.00    +0.000 A 
ATOM     15  C   UNL     1      -0.978  15.037  23.852  0.00  0.00    +0.000 A 
ATOM     16  C   UNL     1      -1.861  14.318  23.035  0.00  0.00    +0.000 A 
ATOM     17  C   UNL     1      -1.628  12.963  19.568  0.00  0.00    +0.000 C 
ENDROOT
BRANCH  17  18
ATOM     18  S   UNL     1      -1.453  11.143  19.319  0.00  0.00    +0.000 S 
BRANCH  18  19
ATOM     19  C   UNL     1      -2.405  10.842  17.836  0.00  0.00    +0.000 A 
ATOM     20  C   UNL     1      -1.892   9.922  16.910  0.00  0.00    +0.000 A 
ATOM     21  C   UNL     1      -2.531   9.710  15.686  0.00  0.00    +0.000 A 
ATOM     22  C   UNL     1      -3.699  10.402  15.381  0.00  0.00    +0.000 A 
ATOM     23  C   UNL     1      -4.249  11.275  16.318  0.00  0.00    +0.000 A 
ATOM     24  C   UNL     1      -3.611  11.483  17.545  0.00  0.00    +0.000 A 
ENDBRANCH  18  19
ENDBRANCH  17  18
TORSDOF 2
ENDMDL
MODEL 6
REMARK VINA RESULT:      -6.4      6.996      9.969
REMARK  Name = 
REMARK  4 active torsions:
REMARK  status: ('A' for Active; 'I' for Inactive)
REMARK    1  A    between atoms: C_1  and  C_2
REMARK    2  A    between atoms: C_2  and  C_3
REMARK    3  A    between atoms: C_17  and  S_18
REMARK    4  A    between atoms: S_18  and  C_19
REMARK                            x       y       z     vdW  Elec       q    Type
REMARK                         _______ _______ _______ _____ _____    ______ ____
ROOT
ATOM      1  C   UNL     1       1.678  14.823  20.075  0.00  0.00    +0.000 C 
ATOM      2  C   UNL     1       0.508  13.896  19.699  0.00  0.00    +0.000 C 
ATOM      3  C   UNL     1      -0.378  14.609  18.672  0.00  0.00    +0.000 C 
ATOM      4  O   UNL     1       1.081  12.764  18.962  0.00  0.00    +0.000 OA
ATOM      5  C   UNL     1       0.842  11.664  19.765  0.00  0.00    +0.000 C 
ATOM      6  C   UNL     1       0.200  11.911  20.896  0.00  0.00    +0.000 C 
ATOM      7  C   UNL     1       0.031  10.869  21.908  0.00  0.00    +0.000 C 
ATOM      8  O   UNL     1      -0.360  11.123  23.036  0.00  0.00    +0.000 OA
ATOM      9  C   UNL     1       0.437   9.448  21.508  0.00  0.00    +0.000 C 
ATOM     10  O   UNL     1       0.222   8.505  22.258  0.00  0.00    +0.000 OA
ATOM     11  C   UNL     1       1.103   9.248  20.198  0.00  0.00    +0.000 A 
ATOM     12  C   UNL     1       1.507   7.962  19.815  0.00  0.00    +0.000 A 
ATOM     13  C   UNL     1       2.121   7.768  18.579  0.00  0.00    +0.000 A 
ATOM     14  C   UNL     1       2.332   8.851  17.728  0.00  0.00    +0.000 A 
ATOM     15  C   UNL     1       1.932  10.137  18.113  0.00  0.00    +0.000 A 
ATOM     16  C   UNL     1       1.311  10.348  19.352  0.00  0.00    +0.000 A 
ATOM     17  C   UNL     1      -0.172  13.343  21.005  0.00  0.00    +0.000 C 
ENDROOT
BRANCH  17  18
ATOM     18  S   UNL     1      -2.006  13.475  21.160  0.00  0.00    +0.000 S 
BRANCH  18  19
ATOM     19  C   UNL     1      -2.229  14.184  22.786  0.00  0.00    +0.000 A 
ATOM     20  C   UNL     1      -1.099  14.716  23.423  0.00  0.00    +0.000 A 
ATOM     21  C   UNL     1      -1.178  15.197  24.732  0.00  0.00    +0.000 A 
ATOM     22  C   UNL     1      -2.392  15.168  25.412  0.00  0.00    +0.000 A 
ATOM     23  C   UNL     1      -3.534  14.695  24.767  0.00  0.00    +0.000 A 
ATOM     24  C   UNL     1      -3.454  14.219  23.455  0.00  0.00    +0.000 A 
ENDBRANCH  18  19
ENDBRANCH  17  18
TORSDOF 2
ENDMDL
MODEL 7
REMARK VINA RESULT:      -6.3      8.478     10.897
REMARK  Name = 
REMARK  4 active torsions:
REMARK  status: ('A' for Active; 'I' for Inactive)
REMARK    1  A    between atoms: C_1  and  C_2
REMARK    2  A    between atoms: C_2  and  C_3
REMARK    3  A    between atoms: C_17  and  S_18
REMARK    4  A    between atoms: S_18  and  C_19
REMARK                            x       y       z     vdW  Elec       q    Type
REMARK                         _______ _______ _______ _____ _____    ______ ____
ROOT
ATOM      1  C   UNL     1      -1.158  10.678  18.865  0.00  0.00    +0.000 C 
ATOM      2  C   UNL     1      -0.354  11.434  19.939  0.00  0.00    +0.000 C 
ATOM      3  C   UNL     1       0.315  10.414  20.866  0.00  0.00    +0.000 C 
ATOM      4  O   UNL     1       0.764  12.090  19.252  0.00  0.00    +0.000 OA
ATOM      5  C   UNL     1       0.526  13.444  19.405  0.00  0.00    +0.000 C 
ATOM      6  C   UNL     1      -0.563  13.759  20.090  0.00  0.00    +0.000 C 
ATOM      7  C   UNL     1      -1.017  15.145  20.183  0.00  0.00    +0.000 C 
ATOM      8  O   UNL     1      -2.121  15.434  20.618  0.00  0.00    +0.000 OA
ATOM      9  C   UNL     1      -0.069  16.219  19.643  0.00  0.00    +0.000 C 
ATOM     10  O   UNL     1      -0.329  17.407  19.786  0.00  0.00    +0.000 OA
ATOM     11  C   UNL     1       1.159  15.782  18.936  0.00  0.00    +0.000 A 
ATOM     12  C   UNL     1       2.033  16.743  18.409  0.00  0.00    +0.000 A 
ATOM     13  C   UNL     1       3.196  16.337  17.756  0.00  0.00    +0.000 A 
ATOM     14  C   UNL     1       3.485  14.980  17.628  0.00  0.00    +0.000 A 
ATOM     15  C   UNL     1       2.609  14.021  18.150  0.00  0.00    +0.000 A 
ATOM     16  C   UNL     1       1.437  14.413  18.811  0.00  0.00    +0.000 A 
ATOM     17  C   UNL     1      -1.255  12.546  20.592  0.00  0.00    +0.000 C 
ENDROOT
BRANCH  17  18
ATOM     18  S   UNL     1      -1.347  12.629  22.433  0.00  0.00    +0.000 S 
BRANCH  18  19
ATOM     19  C   UNL     1      -3.106  12.654  22.753  0.00  0.00    +0.000 A 
ATOM     20  C   UNL     1      -3.966  12.748  21.651  0.00  0.00    +0.000 A 
ATOM     21  C   UNL     1      -5.346  12.870  21.830  0.00  0.00    +0.000 A 
ATOM     22  C   UNL     1      -5.882  12.883  23.114  0.00  0.00    +0.000 A 
ATOM     23  C   UNL     1      -5.042  12.732  24.215  0.00  0.00    +0.000 A 
ATOM     24  C   UNL     1      -3.661  12.604  24.034  0.00  0.00    +0.000 A 
ENDBRANCH  18  19
ENDBRANCH  17  18
TORSDOF 2
ENDMDL
MODEL 8
REMARK VINA RESULT:      -6.2      6.933     10.498
REMARK  Name = 
REMARK  4 active torsions:
REMARK  status: ('A' for Active; 'I' for Inactive)
REMARK    1  A    between atoms: C_1  and  C_2
REMARK    2  A    between atoms: C_2  and  C_3
REMARK    3  A    between atoms: C_17  and  S_18
REMARK    4  A    between atoms: S_18  and  C_19
REMARK                            x       y       z     vdW  Elec       q    Type
REMARK                         _______ _______ _______ _____ _____    ______ ____
ROOT
ATOM      1  C   UNL     1      -0.026  13.698  20.917  0.00  0.00    +0.000 C 
ATOM      2  C   UNL     1      -0.932  12.484  21.190  0.00  0.00    +0.000 C 
ATOM      3  C   UNL     1      -0.867  12.143  22.682  0.00  0.00    +0.000 C 
ATOM      4  O   UNL     1      -2.315  12.927  20.977  0.00  0.00    +0.000 OA
ATOM      5  C   UNL     1      -2.757  12.193  19.892  0.00  0.00    +0.000 C 
ATOM      6  C   UNL     1      -1.879  11.343  19.381  0.00  0.00    +0.000 C 
ATOM      7  C   UNL     1      -2.161  10.629  18.137  0.00  0.00    +0.000 C 
ATOM      8  O   UNL     1      -1.294  10.015  17.536  0.00  0.00    +0.000 OA
ATOM      9  C   UNL     1      -3.582  10.747  17.581  0.00  0.00    +0.000 C 
ATOM     10  O   UNL     1      -3.926  10.091  16.606  0.00  0.00    +0.000 OA
ATOM     11  C   UNL     1      -4.523  11.681  18.246  0.00  0.00    +0.000 A 
ATOM     12  C   UNL     1      -5.824  11.829  17.744  0.00  0.00    +0.000 A 
ATOM     13  C   UNL     1      -6.715  12.695  18.375  0.00  0.00    +0.000 A 
ATOM     14  C   UNL     1      -6.311  13.413  19.499  0.00  0.00    +0.000 A 
ATOM     15  C   UNL     1      -5.010  13.269  19.996  0.00  0.00    +0.000 A 
ATOM     16  C   UNL     1      -4.103  12.400  19.375  0.00  0.00    +0.000 A 
ATOM     17  C   UNL     1      -0.614  11.342  20.156  0.00  0.00    +0.000 C 
ENDROOT
BRANCH  17  18
ATOM     18  S   UNL     1      -0.308   9.639  20.799  0.00  0.00    +0.000 S 
BRANCH  18  19
ATOM     19  C   UNL     1       0.997   9.031  19.739  0.00  0.00    +0.000 A 
ATOM     20  C   UNL     1       1.387   9.836  18.659  0.00  0.00    +0.000 A 
ATOM     21  C   UNL     1       2.330   9.383  17.735  0.00  0.00    +0.000 A 
ATOM     22  C   UNL     1       2.907   8.126  17.888  0.00  0.00    +0.000 A 
ATOM     23  C   UNL     1       2.571   7.342  18.990  0.00  0.00    +0.000 A 
ATOM     24  C   UNL     1       1.630   7.799  19.918  0.00  0.00    +0.000 A 
ENDBRANCH  18  19
ENDBRANCH  17  18
TORSDOF 2
ENDMDL
MODEL 9
REMARK VINA RESULT:      -6.2      7.727     10.654
REMARK  Name = 
REMARK  4 active torsions:
REMARK  status: ('A' for Active; 'I' for Inactive)
REMARK    1  A    between atoms: C_1  and  C_2
REMARK    2  A    between atoms: C_2  and  C_3
REMARK    3  A    between atoms: C_17  and  S_18
REMARK    4  A    between atoms: S_18  and  C_19
REMARK                            x       y       z     vdW  Elec       q    Type
REMARK                         _______ _______ _______ _____ _____    ______ ____
ROOT
ATOM      1  C   UNL     1       0.913  15.032  21.979  0.00  0.00    +0.000 C 
ATOM      2  C   UNL     1      -0.178  14.195  21.288  0.00  0.00    +0.000 C 
ATOM      3  C   UNL     1      -1.116  15.137  20.526  0.00  0.00    +0.000 C 
ATOM      4  O   UNL     1       0.484  13.413  20.239  0.00  0.00    +0.000 OA
ATOM      5  C   UNL     1       0.331  12.096  20.632  0.00  0.00    +0.000 C 
ATOM      6  C   UNL     1      -0.331  11.910  21.763  0.00  0.00    +0.000 C 
ATOM      7  C   UNL     1      -0.419  10.585  22.374  0.00  0.00    +0.000 C 
ATOM      8  O   UNL     1      -0.831  10.426  23.512  0.00  0.00    +0.000 OA
ATOM      9  C   UNL     1       0.099   9.408  21.544  0.00  0.00    +0.000 C 
ATOM     10  O   UNL     1      -0.041   8.258  21.939  0.00  0.00    +0.000 OA
ATOM     11  C   UNL     1       0.782   9.698  20.259  0.00  0.00    +0.000 A 
ATOM     12  C   UNL     1       1.288   8.642  19.489  0.00  0.00    +0.000 A 
ATOM     13  C   UNL     1       1.918   8.910  18.275  0.00  0.00    +0.000 A 
ATOM     14  C   UNL     1       2.044  10.225  17.831  0.00  0.00    +0.000 A 
ATOM     15  C   UNL     1       1.542  11.279  18.603  0.00  0.00    +0.000 A 
ATOM     16  C   UNL     1       0.904  11.026  19.825  0.00  0.00    +0.000 A 
ATOM     17  C   UNL     1      -0.816  13.196  22.323  0.00  0.00    +0.000 C 
ENDROOT
BRANCH  17  18
ATOM     18  S   UNL     1      -2.655  13.134  22.461  0.00  0.00    +0.000 S 
BRANCH  18  19
ATOM     19  C   UNL     1      -3.026  14.475  23.583  0.00  0.00    +0.000 A 
ATOM     20  C   UNL     1      -4.319  15.015  23.546  0.00  0.00    +0.000 A 
ATOM     21  C   UNL     1      -4.650  16.127  24.324  0.00  0.00    +0.000 A 
ATOM     22  C   UNL     1      -3.697  16.702  25.159  0.00  0.00    +0.000 A 
ATOM     23  C   UNL     1      -2.426  16.137  25.247  0.00  0.00    +0.000 A 
ATOM     24  C   UNL     1      -2.097  15.021  24.472  0.00  0.00    +0.000 A 
ENDBRANCH  18  19
ENDBRANCH  17  18
TORSDOF 2
ENDMDL
