MODEL 1
REMARK VINA RESULT:      -6.6      0.000      0.000
REMARK  Name = 
REMARK  4 active torsions:
REMARK  status: ('A' for Active; 'I' for Inactive)
REMARK    1  A    between atoms: C_1  and  C_2
REMARK    2  A    between atoms: C_2  and  C_3
REMARK    3  A    between atoms: C_3  and  C_4
REMARK    4  A    between atoms: C_9  and  C_11
REMARK                            x       y       z     vdW  Elec       q    Type
REMARK                         _______ _______ _______ _____ _____    ______ ____
ROOT
ATOM      1  C   UNL     1       3.090   5.086  19.678  0.00  0.00    +0.000 A 
ATOM      2  C   UNL     1       4.456   4.980  19.853  0.00  0.00    +0.000 A 
ATOM      3  N   UNL     1       5.211   5.005  18.705  0.00  0.00    +0.000 NA
ATOM      4  C   UNL     1       4.432   5.133  17.666  0.00  0.00    +0.000 A 
ATOM      5  N   UNL     1       4.790   5.157  16.343  0.00  0.00    +0.000 N 
ATOM      6  C   UNL     1       6.080   4.873  15.952  0.00  0.00    +0.000 C 
ATOM      7  O   UNL     1       7.030   4.604  16.684  0.00  0.00    +0.000 OA
ATOM      8  S   UNL     1       2.757   5.265  17.996  0.00  0.00    +0.000 S 
ATOM      9  H   UNL     1       4.086   5.303  15.632  0.00  0.00    +0.000 HD
ENDROOT
BRANCH   6  10
ATOM     10  C   UNL     1       6.308   4.935  14.431  0.00  0.00    +0.000 C 
ATOM     11  C   UNL     1       5.889   3.606  13.796  0.00  0.00    +0.000 C 
ATOM     12  C   UNL     1       6.054   3.656  12.281  0.00  0.00    +0.000 C 
ATOM     13  C   UNL     1       7.464   4.105  11.909  0.00  0.00    +0.000 C 
ATOM     14  C   UNL     1       7.857   5.390  12.637  0.00  0.00    +0.000 C 
ATOM     15  N   UNL     1       7.718   5.268  14.098  0.00  0.00    +0.000 NA
ATOM     16  H   UNL     1       7.925   6.187  14.498  0.00  0.00    +0.000 HD
ENDBRANCH   6  10
BRANCH   1  17
ATOM     17  C   UNL     1       2.018   5.051  20.723  0.00  0.00    +0.000 C 
BRANCH  17  19
ATOM     18  C   UNL     1       1.479   2.582  20.524  0.00  0.00    +0.000 C 
ATOM     19  C   UNL     1       0.951   4.001  20.389  0.00  0.00    +0.000 C 
ENDBRANCH  17  19
ENDBRANCH   1  17
TORSDOF 3
ENDMDL
MODEL 2
REMARK VINA RESULT:      -6.5      0.936      1.177
REMARK  Name = 
REMARK  4 active torsions:
REMARK  status: ('A' for Active; 'I' for Inactive)
REMARK    1  A    between atoms: C_1  and  C_2
REMARK    2  A    between atoms: C_2  and  C_3
REMARK    3  A    between atoms: C_3  and  C_4
REMARK    4  A    between atoms: C_9  and  C_11
REMARK                            x       y       z     vdW  Elec       q    Type
REMARK                         _______ _______ _______ _____ _____    ______ ____
ROOT
ATOM      1  C   UNL     1       3.644   3.427  19.705  0.00  0.00    +0.000 A 
ATOM      2  C   UNL     1       4.515   4.495  19.792  0.00  0.00    +0.000 A 
ATOM      3  N   UNL     1       5.065   4.919  18.606  0.00  0.00    +0.000 NA
ATOM      4  C   UNL     1       4.615   4.186  17.624  0.00  0.00    +0.000 A 
ATOM      5  N   UNL     1       4.949   4.260  16.297  0.00  0.00    +0.000 N 
ATOM      6  C   UNL     1       5.980   5.069  15.869  0.00  0.00    +0.000 C 
ATOM      7  O   UNL     1       6.676   5.806  16.564  0.00  0.00    +0.000 OA
ATOM      8  S   UNL     1       3.486   2.972  18.050  0.00  0.00    +0.000 S 
ATOM      9  H   UNL     1       4.494   3.655  15.627  0.00  0.00    +0.000 HD
ENDROOT
BRANCH   6  10
ATOM     10  C   UNL     1       6.229   5.026  14.351  0.00  0.00    +0.000 C 
ATOM     11  C   UNL     1       5.815   3.657  13.803  0.00  0.00    +0.000 C 
ATOM     12  C   UNL     1       6.001   3.603  12.290  0.00  0.00    +0.000 C 
ATOM     13  C   UNL     1       7.417   4.023  11.909  0.00  0.00    +0.000 C 
ATOM     14  C   UNL     1       7.804   5.353  12.552  0.00  0.00    +0.000 C 
ATOM     15  N   UNL     1       7.645   5.333  14.016  0.00  0.00    +0.000 NA
ATOM     16  H   UNL     1       7.849   6.276  14.355  0.00  0.00    +0.000 HD
ENDBRANCH   6  10
BRANCH   1  17
ATOM     17  C   UNL     1       2.927   2.724  20.817  0.00  0.00    +0.000 C 
BRANCH  17  19
ATOM     18  C   UNL     1       0.889   4.175  20.406  0.00  0.00    +0.000 C 
ATOM     19  C   UNL     1       1.408   2.761  20.608  0.00  0.00    +0.000 C 
ENDBRANCH  17  19
ENDBRANCH   1  17
TORSDOF 3
ENDMDL
MODEL 3
REMARK VINA RESULT:      -6.2      1.796      7.044
REMARK  Name = 
REMARK  4 active torsions:
REMARK  status: ('A' for Active; 'I' for Inactive)
REMARK    1  A    between atoms: C_1  and  C_2
REMARK    2  A    between atoms: C_2  and  C_3
REMARK    3  A    between atoms: C_3  and  C_4
REMARK    4  A    between atoms: C_9  and  C_11
REMARK                            x       y       z     vdW  Elec       q    Type
REMARK                         _______ _______ _______ _____ _____    ______ ____
ROOT
ATOM      1  C   UNL     1       6.422   4.355  14.475  0.00  0.00    +0.000 A 
ATOM      2  C   UNL     1       7.246   4.740  15.513  0.00  0.00    +0.000 A 
ATOM      3  N   UNL     1       6.686   4.705  16.767  0.00  0.00    +0.000 NA
ATOM      4  C   UNL     1       5.450   4.293  16.689  0.00  0.00    +0.000 A 
ATOM      5  N   UNL     1       4.541   4.159  17.705  0.00  0.00    +0.000 N 
ATOM      6  C   UNL     1       4.818   4.628  18.971  0.00  0.00    +0.000 C 
ATOM      7  O   UNL     1       5.857   5.168  19.346  0.00  0.00    +0.000 OA
ATOM      8  S   UNL     1       4.893   3.892  15.121  0.00  0.00    +0.000 S 
ATOM      9  H   UNL     1       3.620   3.789  17.514  0.00  0.00    +0.000 HD
ENDROOT
BRANCH   6  10
ATOM     10  C   UNL     1       3.686   4.407  19.989  0.00  0.00    +0.000 C 
ATOM     11  C   UNL     1       3.580   2.916  20.322  0.00  0.00    +0.000 C 
ATOM     12  C   UNL     1       2.499   2.672  21.370  0.00  0.00    +0.000 C 
ATOM     13  C   UNL     1       1.181   3.307  20.939  0.00  0.00    +0.000 C 
ATOM     14  C   UNL     1       1.364   4.770  20.540  0.00  0.00    +0.000 C 
ATOM     15  N   UNL     1       2.388   4.940  19.495  0.00  0.00    +0.000 NA
ATOM     16  H   UNL     1       2.500   5.946  19.343  0.00  0.00    +0.000 HD
ENDBRANCH   6  10
BRANCH   1  17
ATOM     17  C   UNL     1       6.731   4.325  13.009  0.00  0.00    +0.000 C 
BRANCH  17  19
ATOM     18  C   UNL     1       4.815   3.381  11.644  0.00  0.00    +0.000 C 
ATOM     19  C   UNL     1       6.133   3.082  12.340  0.00  0.00    +0.000 C 
ENDBRANCH  17  19
ENDBRANCH   1  17
TORSDOF 3
ENDMDL
MODEL 4
REMARK VINA RESULT:      -6.2      1.019      1.473
REMARK  Name = 
REMARK  4 active torsions:
REMARK  status: ('A' for Active; 'I' for Inactive)
REMARK    1  A    between atoms: C_1  and  C_2
REMARK    2  A    between atoms: C_2  and  C_3
REMARK    3  A    between atoms: C_3  and  C_4
REMARK    4  A    between atoms: C_9  and  C_11
REMARK                            x       y       z     vdW  Elec       q    Type
REMARK                         _______ _______ _______ _____ _____    ______ ____
ROOT
ATOM      1  C   UNL     1       2.447   4.576  19.276  0.00  0.00    +0.000 A 
ATOM      2  C   UNL     1       3.672   5.127  19.597  0.00  0.00    +0.000 A 
ATOM      3  N   UNL     1       4.617   5.109  18.600  0.00  0.00    +0.000 NA
ATOM      4  C   UNL     1       4.118   4.556  17.528  0.00  0.00    +0.000 A 
ATOM      5  N   UNL     1       4.749   4.312  16.335  0.00  0.00    +0.000 N 
ATOM      6  C   UNL     1       6.107   4.501  16.199  0.00  0.00    +0.000 C 
ATOM      7  O   UNL     1       6.884   4.912  17.059  0.00  0.00    +0.000 OA
ATOM      8  S   UNL     1       2.486   4.054  17.634  0.00  0.00    +0.000 S 
ATOM      9  H   UNL     1       4.233   3.910  15.565  0.00  0.00    +0.000 HD
ENDROOT
BRANCH   6  10
ATOM     10  C   UNL     1       6.654   4.172  14.800  0.00  0.00    +0.000 C 
ATOM     11  C   UNL     1       7.409   5.384  14.246  0.00  0.00    +0.000 C 
ATOM     12  C   UNL     1       8.008   5.068  12.880  0.00  0.00    +0.000 C 
ATOM     13  C   UNL     1       6.940   4.519  11.939  0.00  0.00    +0.000 C 
ATOM     14  C   UNL     1       6.165   3.368  12.577  0.00  0.00    +0.000 C 
ATOM     15  N   UNL     1       5.573   3.743  13.872  0.00  0.00    +0.000 NA
ATOM     16  H   UNL     1       5.142   2.901  14.262  0.00  0.00    +0.000 HD
ENDBRANCH   6  10
BRANCH   1  17
ATOM     17  C   UNL     1       1.245   4.416  20.155  0.00  0.00    +0.000 C 
BRANCH  17  19
ATOM     18  C   UNL     1       2.095   2.718  21.835  0.00  0.00    +0.000 C 
ATOM     19  C   UNL     1       1.133   2.983  20.688  0.00  0.00    +0.000 C 
ENDBRANCH  17  19
ENDBRANCH   1  17
TORSDOF 3
ENDMDL
MODEL 5
REMARK VINA RESULT:      -6.1      4.731      8.384
REMARK  Name = 
REMARK  4 active torsions:
REMARK  status: ('A' for Active; 'I' for Inactive)
REMARK    1  A    between atoms: C_1  and  C_2
REMARK    2  A    between atoms: C_2  and  C_3
REMARK    3  A    between atoms: C_3  and  C_4
REMARK    4  A    between atoms: C_9  and  C_11
REMARK                            x       y       z     vdW  Elec       q    Type
REMARK                         _______ _______ _______ _____ _____    ______ ____
ROOT
ATOM      1  C   UNL     1       3.046   4.483  18.816  0.00  0.00    +0.000 A 
ATOM      2  C   UNL     1       3.008   5.533  17.919  0.00  0.00    +0.000 A 
ATOM      3  N   UNL     1       2.589   6.739  18.427  0.00  0.00    +0.000 NA
ATOM      4  C   UNL     1       2.315   6.613  19.697  0.00  0.00    +0.000 A 
ATOM      5  N   UNL     1       1.831   7.568  20.552  0.00  0.00    +0.000 N 
ATOM      6  C   UNL     1       1.412   8.795  20.083  0.00  0.00    +0.000 C 
ATOM      7  O   UNL     1       1.439   9.186  18.918  0.00  0.00    +0.000 OA
ATOM      8  S   UNL     1       2.571   5.060  20.368  0.00  0.00    +0.000 S 
ATOM      9  H   UNL     1       1.698   7.350  21.530  0.00  0.00    +0.000 HD
ENDROOT
BRANCH   6  10
ATOM     10  C   UNL     1       0.888   9.744  21.174  0.00  0.00    +0.000 C 
ATOM     11  C   UNL     1      -0.056   8.980  22.107  0.00  0.00    +0.000 C 
ATOM     12  C   UNL     1      -0.551   9.883  23.232  0.00  0.00    +0.000 C 
ATOM     13  C   UNL     1      -1.144  11.169  22.666  0.00  0.00    +0.000 C 
ATOM     14  C   UNL     1      -0.193  11.842  21.679  0.00  0.00    +0.000 C 
ATOM     15  N   UNL     1       0.217  10.937  20.592  0.00  0.00    +0.000 NA
ATOM     16  H   UNL     1       0.906  11.437  20.025  0.00  0.00    +0.000 HD
ENDBRANCH   6  10
BRANCH   1  17
ATOM     17  C   UNL     1       3.418   3.055  18.554  0.00  0.00    +0.000 C 
BRANCH  17  19
ATOM     18  C   UNL     1       1.011   2.274  18.700  0.00  0.00    +0.000 C 
ATOM     19  C   UNL     1       2.277   2.303  17.860  0.00  0.00    +0.000 C 
ENDBRANCH  17  19
ENDBRANCH   1  17
TORSDOF 3
ENDMDL
MODEL 6
REMARK VINA RESULT:      -6.1      1.452      1.845
REMARK  Name = 
REMARK  4 active torsions:
REMARK  status: ('A' for Active; 'I' for Inactive)
REMARK    1  A    between atoms: C_1  and  C_2
REMARK    2  A    between atoms: C_2  and  C_3
REMARK    3  A    between atoms: C_3  and  C_4
REMARK    4  A    between atoms: C_9  and  C_11
REMARK                            x       y       z     vdW  Elec       q    Type
REMARK                         _______ _______ _______ _____ _____    ______ ____
ROOT
ATOM      1  C   UNL     1       3.418   3.324  19.902  0.00  0.00    +0.000 A 
ATOM      2  C   UNL     1       3.709   4.649  19.644  0.00  0.00    +0.000 A 
ATOM      3  N   UNL     1       4.351   4.900  18.455  0.00  0.00    +0.000 NA
ATOM      4  C   UNL     1       4.544   3.781  17.811  0.00  0.00    +0.000 A 
ATOM      5  N   UNL     1       5.183   3.599  16.612  0.00  0.00    +0.000 N 
ATOM      6  C   UNL     1       5.867   4.632  16.009  0.00  0.00    +0.000 C 
ATOM      7  O   UNL     1       5.968   5.787  16.417  0.00  0.00    +0.000 OA
ATOM      8  S   UNL     1       3.942   2.369  18.567  0.00  0.00    +0.000 S 
ATOM      9  H   UNL     1       5.229   2.678  16.200  0.00  0.00    +0.000 HD
ENDROOT
BRANCH   6  10
ATOM     10  C   UNL     1       6.536   4.254  14.676  0.00  0.00    +0.000 C 
ATOM     11  C   UNL     1       7.360   5.438  14.162  0.00  0.00    +0.000 C 
ATOM     12  C   UNL     1       8.078   5.074  12.867  0.00  0.00    +0.000 C 
ATOM     13  C   UNL     1       7.092   4.515  11.846  0.00  0.00    +0.000 C 
ATOM     14  C   UNL     1       6.241   3.394  12.440  0.00  0.00    +0.000 C 
ATOM     15  N   UNL     1       5.538   3.816  13.663  0.00  0.00    +0.000 NA
ATOM     16  H   UNL     1       5.057   2.992  14.034  0.00  0.00    +0.000 HD
ENDBRANCH   6  10
BRANCH   1  17
ATOM     17  C   UNL     1       2.766   2.740  21.117  0.00  0.00    +0.000 C 
BRANCH  17  19
ATOM     18  C   UNL     1       0.611   3.046  19.818  0.00  0.00    +0.000 C 
ATOM     19  C   UNL     1       1.279   3.109  21.181  0.00  0.00    +0.000 C 
ENDBRANCH  17  19
ENDBRANCH   1  17
TORSDOF 3
ENDMDL
MODEL 7
REMARK VINA RESULT:      -6.0      3.756      6.962
REMARK  Name = 
REMARK  4 active torsions:
REMARK  status: ('A' for Active; 'I' for Inactive)
REMARK    1  A    between atoms: C_1  and  C_2
REMARK    2  A    between atoms: C_2  and  C_3
REMARK    3  A    between atoms: C_3  and  C_4
REMARK    4  A    between atoms: C_9  and  C_11
REMARK                            x       y       z     vdW  Elec       q    Type
REMARK                         _______ _______ _______ _____ _____    ______ ____
ROOT
ATOM      1  C   UNL     1       7.279   7.119  17.866  0.00  0.00    +0.000 A 
ATOM      2  C   UNL     1       7.831   5.996  18.451  0.00  0.00    +0.000 A 
ATOM      3  N   UNL     1       6.943   5.010  18.808  0.00  0.00    +0.000 NA
ATOM      4  C   UNL     1       5.729   5.373  18.495  0.00  0.00    +0.000 A 
ATOM      5  N   UNL     1       4.561   4.691  18.722  0.00  0.00    +0.000 N 
ATOM      6  C   UNL     1       4.544   3.551  19.495  0.00  0.00    +0.000 C 
ATOM      7  O   UNL     1       5.510   3.007  20.028  0.00  0.00    +0.000 OA
ATOM      8  S   UNL     1       5.576   6.895  17.728  0.00  0.00    +0.000 S 
ATOM      9  H   UNL     1       3.684   5.069  18.392  0.00  0.00    +0.000 HD
ENDROOT
BRANCH   6  10
ATOM     10  C   UNL     1       3.152   2.917  19.657  0.00  0.00    +0.000 C 
ATOM     11  C   UNL     1       2.298   3.237  18.427  0.00  0.00    +0.000 C 
ATOM     12  C   UNL     1       0.927   2.577  18.535  0.00  0.00    +0.000 C 
ATOM     13  C   UNL     1       0.263   2.933  19.861  0.00  0.00    +0.000 C 
ATOM     14  C   UNL     1       1.192   2.672  21.045  0.00  0.00    +0.000 C 
ATOM     15  N   UNL     1       2.482   3.368  20.906  0.00  0.00    +0.000 NA
ATOM     16  H   UNL     1       3.067   3.081  21.696  0.00  0.00    +0.000 HD
ENDBRANCH   6  10
BRANCH   1  17
ATOM     17  C   UNL     1       7.979   8.363  17.410  0.00  0.00    +0.000 C 
BRANCH  17  19
ATOM     18  C   UNL     1       9.037  10.505  18.259  0.00  0.00    +0.000 C 
ATOM     19  C   UNL     1       8.687   9.061  18.578  0.00  0.00    +0.000 C 
ENDBRANCH  17  19
ENDBRANCH   1  17
TORSDOF 3
ENDMDL
MODEL 8
REMARK VINA RESULT:      -6.0      1.224      1.421
REMARK  Name = 
REMARK  4 active torsions:
REMARK  status: ('A' for Active; 'I' for Inactive)
REMARK    1  A    between atoms: C_1  and  C_2
REMARK    2  A    between atoms: C_2  and  C_3
REMARK    3  A    between atoms: C_3  and  C_4
REMARK    4  A    between atoms: C_9  and  C_11
REMARK                            x       y       z     vdW  Elec       q    Type
REMARK                         _______ _______ _______ _____ _____    ______ ____
ROOT
ATOM      1  C   UNL     1       2.707   2.819  18.958  0.00  0.00    +0.000 A 
ATOM      2  C   UNL     1       3.949   3.251  19.380  0.00  0.00    +0.000 A 
ATOM      3  N   UNL     1       4.769   3.762  18.402  0.00  0.00    +0.000 NA
ATOM      4  C   UNL     1       4.158   3.726  17.249  0.00  0.00    +0.000 A 
ATOM      5  N   UNL     1       4.647   4.103  16.025  0.00  0.00    +0.000 N 
ATOM      6  C   UNL     1       5.975   4.433  15.863  0.00  0.00    +0.000 C 
ATOM      7  O   UNL     1       6.839   4.461  16.736  0.00  0.00    +0.000 OA
ATOM      8  S   UNL     1       2.561   3.111  17.266  0.00  0.00    +0.000 S 
ATOM      9  H   UNL     1       4.052   4.060  15.209  0.00  0.00    +0.000 HD
ENDROOT
BRANCH   6  10
ATOM     10  C   UNL     1       6.358   4.822  14.425  0.00  0.00    +0.000 C 
ATOM     11  C   UNL     1       6.023   3.669  13.475  0.00  0.00    +0.000 C 
ATOM     12  C   UNL     1       6.343   4.046  12.032  0.00  0.00    +0.000 C 
ATOM     13  C   UNL     1       7.779   4.550  11.916  0.00  0.00    +0.000 C 
ATOM     14  C   UNL     1       8.079   5.640  12.942  0.00  0.00    +0.000 C 
ATOM     15  N   UNL     1       7.791   5.205  14.319  0.00  0.00    +0.000 NA
ATOM     16  H   UNL     1       7.945   6.011  14.930  0.00  0.00    +0.000 HD
ENDBRANCH   6  10
BRANCH   1  17
ATOM     17  C   UNL     1       1.621   2.186  19.774  0.00  0.00    +0.000 C 
BRANCH  17  19
ATOM     18  C   UNL     1       1.741   2.838  22.221  0.00  0.00    +0.000 C 
ATOM     19  C   UNL     1       1.121   3.139  20.866  0.00  0.00    +0.000 C 
ENDBRANCH  17  19
ENDBRANCH   1  17
TORSDOF 3
ENDMDL
MODEL 9
REMARK VINA RESULT:      -5.9      5.994      7.219
REMARK  Name = 
REMARK  4 active torsions:
REMARK  status: ('A' for Active; 'I' for Inactive)
REMARK    1  A    between atoms: C_1  and  C_2
REMARK    2  A    between atoms: C_2  and  C_3
REMARK    3  A    between atoms: C_3  and  C_4
REMARK    4  A    between atoms: C_9  and  C_11
REMARK                            x       y       z     vdW  Elec       q    Type
REMARK                         _______ _______ _______ _____ _____    ______ ____
ROOT
ATOM      1  C   UNL     1       6.336   5.466  17.895  0.00  0.00    +0.000 A 
ATOM      2  C   UNL     1       6.079   6.548  17.076  0.00  0.00    +0.000 A 
ATOM      3  N   UNL     1       6.882   7.646  17.265  0.00  0.00    +0.000 NA
ATOM      4  C   UNL     1       7.745   7.405  18.214  0.00  0.00    +0.000 A 
ATOM      5  N   UNL     1       8.689   8.255  18.729  0.00  0.00    +0.000 N 
ATOM      6  C   UNL     1       8.714   9.587  18.375  0.00  0.00    +0.000 C 
ATOM      7  O   UNL     1       7.964  10.153  17.583  0.00  0.00    +0.000 OA
ATOM      8  S   UNL     1       7.672   5.845  18.914  0.00  0.00    +0.000 S 
ATOM      9  H   UNL     1       9.327   7.928  19.441  0.00  0.00    +0.000 HD
ENDROOT
BRANCH   6  10
ATOM     10  C   UNL     1       9.830  10.400  19.052  0.00  0.00    +0.000 C 
ATOM     11  C   UNL     1       9.255  11.161  20.250  0.00  0.00    +0.000 C 
ATOM     12  C   UNL     1      10.351  11.936  20.974  0.00  0.00    +0.000 C 
ATOM     13  C   UNL     1      11.125  12.813  19.994  0.00  0.00    +0.000 C 
ATOM     14  C   UNL     1      11.602  12.017  18.781  0.00  0.00    +0.000 C 
ATOM     15  N   UNL     1      10.495  11.326  18.097  0.00  0.00    +0.000 NA
ATOM     16  H   UNL     1      10.908  10.761  17.350  0.00  0.00    +0.000 HD
ENDBRANCH   6  10
BRANCH   1  17
ATOM     17  C   UNL     1       5.612   4.155  17.951  0.00  0.00    +0.000 C 
BRANCH  17  19
ATOM     18  C   UNL     1       3.121   4.095  17.484  0.00  0.00    +0.000 C 
ATOM     19  C   UNL     1       4.516   4.080  16.882  0.00  0.00    +0.000 C 
ENDBRANCH  17  19
ENDBRANCH   1  17
TORSDOF 3
ENDMDL
