MODEL 1
REMARK VINA RESULT:      -7.9      0.000      0.000
REMARK  Name = 
REMARK  9 active torsions:
REMARK  status: ('A' for Active; 'I' for Inactive)
REMARK    1  A    between atoms: C_1  and  O_2
REMARK    2  A    between atoms: O_2  and  C_3
REMARK    3  A    between atoms: C_6  and  N_7
REMARK    4  A    between atoms: N_7  and  N_8
REMARK    5  A    between atoms: C_9  and  S_10
REMARK    6  A    between atoms: S_10  and  C_11
REMARK    7  A    between atoms: C_11  and  C_12
REMARK    8  A    between atoms: C_21  and  C_22
REMARK    9  A    between atoms: C_23  and  C_24
REMARK                            x       y       z     vdW  Elec       q    Type
REMARK                         _______ _______ _______ _____ _____    ______ ____
ROOT
ATOM      1  N   UNL     1       3.030   5.134  19.704  0.00  0.00    +0.000 N 
ATOM      2  C   UNL     1       4.157   4.816  18.961  0.00  0.00    +0.000 A 
ATOM      3  N   UNL     1       4.107   3.602  18.463  0.00  0.00    +0.000 NA
ATOM      4  C   UNL     1       2.919   3.083  18.911  0.00  0.00    +0.000 A 
ATOM      5  C   UNL     1       2.573   1.660  18.685  0.00  0.00    +0.000 C 
ATOM      6  C   UNL     1       2.181   4.042  19.580  0.00  0.00    +0.000 A 
ATOM      7  C   UNL     1       0.811   3.944  20.148  0.00  0.00    +0.000 C 
ENDROOT
BRANCH   1   8
ATOM      8  N   UNL     1       2.771   6.321  20.371  0.00  0.00    +0.000 N 
ATOM      9  H   UNL     1       3.301   6.435  21.238  0.00  0.00    +0.000 HD
BRANCH   8  13
ATOM     10  C   UNL     1       1.058   9.931  19.034  0.00  0.00    +0.000 A 
ATOM     11  C   UNL     1       1.782   9.136  18.149  0.00  0.00    +0.000 A 
ATOM     12  C   UNL     1       2.257   7.884  18.550  0.00  0.00    +0.000 A 
ATOM     13  C   UNL     1       2.083   7.434  19.863  0.00  0.00    +0.000 A 
ATOM     14  C   UNL     1       1.317   8.222  20.730  0.00  0.00    +0.000 A 
ATOM     15  C   UNL     1       0.805   9.462  20.321  0.00  0.00    +0.000 A 
BRANCH  10  17
ATOM     16  C   UNL     1       0.005  11.993  19.472  0.00  0.00    +0.000 C 
ATOM     17  O   UNL     1       0.712  11.165  18.558  0.00  0.00    +0.000 OA
ENDBRANCH  10  17
ENDBRANCH   8  13
ENDBRANCH   1   8
BRANCH   2  18
ATOM     18  S   UNL     1       5.528   5.866  18.779  0.00  0.00    +0.000 S 
BRANCH  18  19
ATOM     19  C   UNL     1       6.729   4.738  18.010  0.00  0.00    +0.000 C 
BRANCH  19  20
ATOM     20  C   UNL     1       7.119   5.221  16.617  0.00  0.00    +0.000 C 
ATOM     21  O   UNL     1       7.660   6.307  16.431  0.00  0.00    +0.000 OA
ATOM     22  N   UNL     1       6.779   4.326  15.621  0.00  0.00    +0.000 N 
ATOM     23  C   UNL     1       7.087   4.591  14.314  0.00  0.00    +0.000 A 
ATOM     24  N   UNL     1       7.884   5.506  13.827  0.00  0.00    +0.000 NA
ATOM     25  C   UNL     1       7.857   5.456  12.450  0.00  0.00    +0.000 A 
ATOM     26  C   UNL     1       7.021   4.503  11.908  0.00  0.00    +0.000 A 
ATOM     27  S   UNL     1       6.304   3.588  13.176  0.00  0.00    +0.000 S 
ATOM     28  H   UNL     1       6.184   3.529  15.799  0.00  0.00    +0.000 HD
ENDBRANCH  19  20
ENDBRANCH  18  19
ENDBRANCH   2  18
TORSDOF 6
ENDMDL
MODEL 2
REMARK VINA RESULT:      -7.7      0.365      1.008
REMARK  Name = 
REMARK  9 active torsions:
REMARK  status: ('A' for Active; 'I' for Inactive)
REMARK    1  A    between atoms: C_1  and  O_2
REMARK    2  A    between atoms: O_2  and  C_3
REMARK    3  A    between atoms: C_6  and  N_7
REMARK    4  A    between atoms: N_7  and  N_8
REMARK    5  A    between atoms: C_9  and  S_10
REMARK    6  A    between atoms: S_10  and  C_11
REMARK    7  A    between atoms: C_11  and  C_12
REMARK    8  A    between atoms: C_21  and  C_22
REMARK    9  A    between atoms: C_23  and  C_24
REMARK                            x       y       z     vdW  Elec       q    Type
REMARK                         _______ _______ _______ _____ _____    ______ ____
ROOT
ATOM      1  N   UNL     1       3.079   5.034  19.487  0.00  0.00    +0.000 N 
ATOM      2  C   UNL     1       4.261   4.877  18.779  0.00  0.00    +0.000 A 
ATOM      3  N   UNL     1       4.312   3.738  18.128  0.00  0.00    +0.000 NA
ATOM      4  C   UNL     1       3.135   3.101  18.435  0.00  0.00    +0.000 A 
ATOM      5  C   UNL     1       2.889   1.704  18.010  0.00  0.00    +0.000 C 
ATOM      6  C   UNL     1       2.306   3.924  19.175  0.00  0.00    +0.000 A 
ATOM      7  C   UNL     1       0.917   3.680  19.643  0.00  0.00    +0.000 C 
ENDROOT
BRANCH   1   8
ATOM      8  N   UNL     1       2.714   6.109  20.283  0.00  0.00    +0.000 N 
ATOM      9  H   UNL     1       3.003   6.020  21.260  0.00  0.00    +0.000 HD
BRANCH   8  13
ATOM     10  C   UNL     1       0.903   9.613  18.801  0.00  0.00    +0.000 A 
ATOM     11  C   UNL     1       0.832   9.315  20.159  0.00  0.00    +0.000 A 
ATOM     12  C   UNL     1       1.524   8.219  20.680  0.00  0.00    +0.000 A 
ATOM     13  C   UNL     1       2.240   7.354  19.843  0.00  0.00    +0.000 A 
ATOM     14  C   UNL     1       2.340   7.688  18.488  0.00  0.00    +0.000 A 
ATOM     15  C   UNL     1       1.679   8.810  17.967  0.00  0.00    +0.000 A 
BRANCH  10  17
ATOM     16  C   UNL     1      -0.181  11.619  19.396  0.00  0.00    +0.000 C 
ATOM     17  O   UNL     1       0.126  10.660  18.392  0.00  0.00    +0.000 OA
ENDBRANCH  10  17
ENDBRANCH   8  13
ENDBRANCH   1   8
BRANCH   2  18
ATOM     18  S   UNL     1       5.574   6.013  18.815  0.00  0.00    +0.000 S 
BRANCH  18  19
ATOM     19  C   UNL     1       6.927   5.001  18.145  0.00  0.00    +0.000 C 
BRANCH  19  20
ATOM     20  C   UNL     1       7.245   5.394  16.707  0.00  0.00    +0.000 C 
ATOM     21  O   UNL     1       7.785   6.459  16.425  0.00  0.00    +0.000 OA
ATOM     22  N   UNL     1       6.841   4.444  15.787  0.00  0.00    +0.000 N 
ATOM     23  C   UNL     1       7.078   4.625  14.452  0.00  0.00    +0.000 A 
ATOM     24  N   UNL     1       7.857   5.498  13.867  0.00  0.00    +0.000 NA
ATOM     25  C   UNL     1       7.752   5.365  12.498  0.00  0.00    +0.000 A 
ATOM     26  C   UNL     1       6.879   4.392  12.063  0.00  0.00    +0.000 A 
ATOM     27  S   UNL     1       6.224   3.565  13.422  0.00  0.00    +0.000 S 
ATOM     28  H   UNL     1       6.249   3.668  16.046  0.00  0.00    +0.000 HD
ENDBRANCH  19  20
ENDBRANCH  18  19
ENDBRANCH   2  18
TORSDOF 6
ENDMDL
MODEL 3
REMARK VINA RESULT:      -7.6      2.608      7.086
REMARK  Name = 
REMARK  9 active torsions:
REMARK  status: ('A' for Active; 'I' for Inactive)
REMARK    1  A    between atoms: C_1  and  O_2
REMARK    2  A    between atoms: O_2  and  C_3
REMARK    3  A    between atoms: C_6  and  N_7
REMARK    4  A    between atoms: N_7  and  N_8
REMARK    5  A    between atoms: C_9  and  S_10
REMARK    6  A    between atoms: S_10  and  C_11
REMARK    7  A    between atoms: C_11  and  C_12
REMARK    8  A    between atoms: C_21  and  C_22
REMARK    9  A    between atoms: C_23  and  C_24
REMARK                            x       y       z     vdW  Elec       q    Type
REMARK                         _______ _______ _______ _____ _____    ______ ____
ROOT
ATOM      1  N   UNL     1       3.647   3.398  18.984  0.00  0.00    +0.000 N 
ATOM      2  C   UNL     1       2.552   4.249  18.992  0.00  0.00    +0.000 A 
ATOM      3  N   UNL     1       1.806   4.103  20.062  0.00  0.00    +0.000 NA
ATOM      4  C   UNL     1       2.409   3.100  20.780  0.00  0.00    +0.000 A 
ATOM      5  C   UNL     1       1.767   2.534  21.989  0.00  0.00    +0.000 C 
ATOM      6  C   UNL     1       3.607   2.726  20.199  0.00  0.00    +0.000 A 
ATOM      7  C   UNL     1       4.620   1.753  20.681  0.00  0.00    +0.000 C 
ENDROOT
BRANCH   1   8
ATOM      8  N   UNL     1       4.619   3.289  18.002  0.00  0.00    +0.000 N 
ATOM      9  H   UNL     1       4.465   2.520  17.346  0.00  0.00    +0.000 HD
BRANCH   8  13
ATOM     10  C   UNL     1       7.205   6.464  17.003  0.00  0.00    +0.000 A 
ATOM     11  C   UNL     1       7.037   6.096  18.336  0.00  0.00    +0.000 A 
ATOM     12  C   UNL     1       6.274   4.975  18.670  0.00  0.00    +0.000 A 
ATOM     13  C   UNL     1       5.600   4.242  17.686  0.00  0.00    +0.000 A 
ATOM     14  C   UNL     1       5.811   4.594  16.348  0.00  0.00    +0.000 A 
ATOM     15  C   UNL     1       6.608   5.695  16.005  0.00  0.00    +0.000 A 
BRANCH  10  17
ATOM     16  C   UNL     1       8.117   8.414  17.960  0.00  0.00    +0.000 C 
ATOM     17  O   UNL     1       7.906   7.619  16.801  0.00  0.00    +0.000 OA
ENDBRANCH  10  17
ENDBRANCH   8  13
ENDBRANCH   1   8
BRANCH   2  18
ATOM     18  S   UNL     1       2.153   5.330  17.693  0.00  0.00    +0.000 S 
BRANCH  18  19
ATOM     19  C   UNL     1       3.190   6.765  18.103  0.00  0.00    +0.000 C 
BRANCH  19  20
ATOM     20  C   UNL     1       2.336   7.995  18.389  0.00  0.00    +0.000 C 
ATOM     21  O   UNL     1       2.107   8.844  17.532  0.00  0.00    +0.000 OA
ATOM     22  N   UNL     1       1.885   8.048  19.695  0.00  0.00    +0.000 N 
ATOM     23  C   UNL     1       1.079   9.072  20.111  0.00  0.00    +0.000 A 
ATOM     24  N   UNL     1       0.445   9.961  19.392  0.00  0.00    +0.000 NA
ATOM     25  C   UNL     1      -0.208  10.847  20.224  0.00  0.00    +0.000 A 
ATOM     26  C   UNL     1      -0.045  10.620  21.574  0.00  0.00    +0.000 A 
ATOM     27  S   UNL     1       0.898   9.199  21.803  0.00  0.00    +0.000 S 
ATOM     28  H   UNL     1       2.238   7.424  20.406  0.00  0.00    +0.000 HD
ENDBRANCH  19  20
ENDBRANCH  18  19
ENDBRANCH   2  18
TORSDOF 6
ENDMDL
MODEL 4
REMARK VINA RESULT:      -7.5      2.775      7.635
REMARK  Name = 
REMARK  9 active torsions:
REMARK  status: ('A' for Active; 'I' for Inactive)
REMARK    1  A    between atoms: C_1  and  O_2
REMARK    2  A    between atoms: O_2  and  C_3
REMARK    3  A    between atoms: C_6  and  N_7
REMARK    4  A    between atoms: N_7  and  N_8
REMARK    5  A    between atoms: C_9  and  S_10
REMARK    6  A    between atoms: S_10  and  C_11
REMARK    7  A    between atoms: C_11  and  C_12
REMARK    8  A    between atoms: C_21  and  C_22
REMARK    9  A    between atoms: C_23  and  C_24
REMARK                            x       y       z     vdW  Elec       q    Type
REMARK                         _______ _______ _______ _____ _____    ______ ____
ROOT
ATOM      1  N   UNL     1       3.276   4.577  19.453  0.00  0.00    +0.000 N 
ATOM      2  C   UNL     1       2.115   5.241  19.819  0.00  0.00    +0.000 A 
ATOM      3  N   UNL     1       1.047   4.486  19.717  0.00  0.00    +0.000 NA
ATOM      4  C   UNL     1       1.507   3.284  19.241  0.00  0.00    +0.000 A 
ATOM      5  C   UNL     1       0.567   2.210  18.842  0.00  0.00    +0.000 C 
ATOM      6  C   UNL     1       2.888   3.272  19.179  0.00  0.00    +0.000 A 
ATOM      7  C   UNL     1       3.802   2.159  18.812  0.00  0.00    +0.000 C 
ENDROOT
BRANCH   1   8
ATOM      8  N   UNL     1       4.564   5.086  19.435  0.00  0.00    +0.000 N 
ATOM      9  H   UNL     1       5.007   5.134  20.355  0.00  0.00    +0.000 HD
BRANCH   8  13
ATOM     10  C   UNL     1       6.867   5.243  15.909  0.00  0.00    +0.000 A 
ATOM     11  C   UNL     1       5.602   5.823  15.939  0.00  0.00    +0.000 A 
ATOM     12  C   UNL     1       4.877   5.878  17.132  0.00  0.00    +0.000 A 
ATOM     13  C   UNL     1       5.369   5.288  18.302  0.00  0.00    +0.000 A 
ATOM     14  C   UNL     1       6.659   4.746  18.270  0.00  0.00    +0.000 A 
ATOM     15  C   UNL     1       7.407   4.724  17.084  0.00  0.00    +0.000 A 
BRANCH  10  17
ATOM     16  C   UNL     1       6.755   4.388  13.716  0.00  0.00    +0.000 C 
ATOM     17  O   UNL     1       7.449   5.176  14.673  0.00  0.00    +0.000 OA
ENDBRANCH  10  17
ENDBRANCH   8  13
ENDBRANCH   1   8
BRANCH   2  18
ATOM     18  S   UNL     1       2.058   6.916  20.276  0.00  0.00    +0.000 S 
BRANCH  18  19
ATOM     19  C   UNL     1       2.416   7.722  18.686  0.00  0.00    +0.000 C 
BRANCH  19  20
ATOM     20  C   UNL     1       1.637   9.025  18.545  0.00  0.00    +0.000 C 
ATOM     21  O   UNL     1       1.589   9.645  17.486  0.00  0.00    +0.000 OA
ATOM     22  N   UNL     1       1.031   9.422  19.722  0.00  0.00    +0.000 N 
ATOM     23  C   UNL     1       0.267  10.556  19.763  0.00  0.00    +0.000 A 
ATOM     24  N   UNL     1      -0.196  11.269  18.769  0.00  0.00    +0.000 NA
ATOM     25  C   UNL     1      -0.872  12.365  19.264  0.00  0.00    +0.000 A 
ATOM     26  C   UNL     1      -0.900  12.472  20.638  0.00  0.00    +0.000 A 
ATOM     27  S   UNL     1      -0.115  11.107  21.332  0.00  0.00    +0.000 S 
ATOM     28  H   UNL     1       1.238   8.977  20.605  0.00  0.00    +0.000 HD
ENDBRANCH  19  20
ENDBRANCH  18  19
ENDBRANCH   2  18
TORSDOF 6
ENDMDL
MODEL 5
REMARK VINA RESULT:      -7.5      2.450      7.640
REMARK  Name = 
REMARK  9 active torsions:
REMARK  status: ('A' for Active; 'I' for Inactive)
REMARK    1  A    between atoms: C_1  and  O_2
REMARK    2  A    between atoms: O_2  and  C_3
REMARK    3  A    between atoms: C_6  and  N_7
REMARK    4  A    between atoms: N_7  and  N_8
REMARK    5  A    between atoms: C_9  and  S_10
REMARK    6  A    between atoms: S_10  and  C_11
REMARK    7  A    between atoms: C_11  and  C_12
REMARK    8  A    between atoms: C_21  and  C_22
REMARK    9  A    between atoms: C_23  and  C_24
REMARK                            x       y       z     vdW  Elec       q    Type
REMARK                         _______ _______ _______ _____ _____    ______ ____
ROOT
ATOM      1  N   UNL     1       3.802   3.821  18.721  0.00  0.00    +0.000 N 
ATOM      2  C   UNL     1       2.935   4.758  19.264  0.00  0.00    +0.000 A 
ATOM      3  N   UNL     1       1.734   4.273  19.474  0.00  0.00    +0.000 NA
ATOM      4  C   UNL     1       1.793   2.975  19.032  0.00  0.00    +0.000 A 
ATOM      5  C   UNL     1       0.574   2.137  18.958  0.00  0.00    +0.000 C 
ATOM      6  C   UNL     1       3.084   2.634  18.671  0.00  0.00    +0.000 A 
ATOM      7  C   UNL     1       3.618   1.320  18.227  0.00  0.00    +0.000 C 
ENDROOT
BRANCH   1   8
ATOM      8  N   UNL     1       5.129   4.009  18.370  0.00  0.00    +0.000 N 
ATOM      9  H   UNL     1       5.797   3.661  19.062  0.00  0.00    +0.000 HD
BRANCH   8  13
ATOM     10  C   UNL     1       6.762   4.670  14.542  0.00  0.00    +0.000 A 
ATOM     11  C   UNL     1       5.399   4.422  14.683  0.00  0.00    +0.000 A 
ATOM     12  C   UNL     1       4.827   4.316  15.953  0.00  0.00    +0.000 A 
ATOM     13  C   UNL     1       5.618   4.379  17.107  0.00  0.00    +0.000 A 
ATOM     14  C   UNL     1       6.978   4.671  16.954  0.00  0.00    +0.000 A 
ATOM     15  C   UNL     1       7.549   4.818  15.682  0.00  0.00    +0.000 A 
BRANCH  10  17
ATOM     16  C   UNL     1       6.585   3.762  12.375  0.00  0.00    +0.000 C 
ATOM     17  O   UNL     1       7.223   4.677  13.255  0.00  0.00    +0.000 OA
ENDBRANCH  10  17
ENDBRANCH   8  13
ENDBRANCH   1   8
BRANCH   2  18
ATOM     18  S   UNL     1       3.357   6.418  19.551  0.00  0.00    +0.000 S 
BRANCH  18  19
ATOM     19  C   UNL     1       2.867   7.179  17.975  0.00  0.00    +0.000 C 
BRANCH  19  20
ATOM     20  C   UNL     1       2.116   8.486  18.206  0.00  0.00    +0.000 C 
ATOM     21  O   UNL     1       2.025   9.349  17.338  0.00  0.00    +0.000 OA
ATOM     22  N   UNL     1       1.589   8.586  19.480  0.00  0.00    +0.000 N 
ATOM     23  C   UNL     1       0.859   9.684  19.845  0.00  0.00    +0.000 A 
ATOM     24  N   UNL     1       0.359  10.627  19.088  0.00  0.00    +0.000 NA
ATOM     25  C   UNL     1      -0.258  11.573  19.878  0.00  0.00    +0.000 A 
ATOM     26  C   UNL     1      -0.206  11.338  21.235  0.00  0.00    +0.000 A 
ATOM     27  S   UNL     1       0.581   9.835  21.522  0.00  0.00    +0.000 S 
ATOM     28  H   UNL     1       1.834   7.935  20.212  0.00  0.00    +0.000 HD
ENDBRANCH  19  20
ENDBRANCH  18  19
ENDBRANCH   2  18
TORSDOF 6
ENDMDL
MODEL 6
REMARK VINA RESULT:      -7.4      2.950      7.990
REMARK  Name = 
REMARK  9 active torsions:
REMARK  status: ('A' for Active; 'I' for Inactive)
REMARK    1  A    between atoms: C_1  and  O_2
REMARK    2  A    between atoms: O_2  and  C_3
REMARK    3  A    between atoms: C_6  and  N_7
REMARK    4  A    between atoms: N_7  and  N_8
REMARK    5  A    between atoms: C_9  and  S_10
REMARK    6  A    between atoms: S_10  and  C_11
REMARK    7  A    between atoms: C_11  and  C_12
REMARK    8  A    between atoms: C_21  and  C_22
REMARK    9  A    between atoms: C_23  and  C_24
REMARK                            x       y       z     vdW  Elec       q    Type
REMARK                         _______ _______ _______ _____ _____    ______ ____
ROOT
ATOM      1  N   UNL     1       3.516   5.044  19.746  0.00  0.00    +0.000 N 
ATOM      2  C   UNL     1       2.349   5.734  20.035  0.00  0.00    +0.000 A 
ATOM      3  N   UNL     1       1.380   4.943  20.434  0.00  0.00    +0.000 NA
ATOM      4  C   UNL     1       1.911   3.679  20.384  0.00  0.00    +0.000 A 
ATOM      5  C   UNL     1       1.064   2.485  20.613  0.00  0.00    +0.000 C 
ATOM      6  C   UNL     1       3.258   3.719  20.075  0.00  0.00    +0.000 A 
ATOM      7  C   UNL     1       4.239   2.605  20.003  0.00  0.00    +0.000 C 
ENDROOT
BRANCH   1   8
ATOM      8  N   UNL     1       4.713   5.573  19.292  0.00  0.00    +0.000 N 
ATOM      9  H   UNL     1       5.256   6.054  20.013  0.00  0.00    +0.000 HD
BRANCH   8  13
ATOM     10  C   UNL     1       6.745   5.212  15.617  0.00  0.00    +0.000 A 
ATOM     11  C   UNL     1       7.322   4.713  16.782  0.00  0.00    +0.000 A 
ATOM     12  C   UNL     1       6.610   4.723  17.985  0.00  0.00    +0.000 A 
ATOM     13  C   UNL     1       5.337   5.302  18.064  0.00  0.00    +0.000 A 
ATOM     14  C   UNL     1       4.752   5.762  16.879  0.00  0.00    +0.000 A 
ATOM     15  C   UNL     1       5.447   5.717  15.662  0.00  0.00    +0.000 A 
BRANCH  10  17
ATOM     16  C   UNL     1       7.028   4.597  13.360  0.00  0.00    +0.000 C 
ATOM     17  O   UNL     1       7.561   5.221  14.521  0.00  0.00    +0.000 OA
ENDBRANCH  10  17
ENDBRANCH   8  13
ENDBRANCH   1   8
BRANCH   2  18
ATOM     18  S   UNL     1       2.151   7.445  19.811  0.00  0.00    +0.000 S 
BRANCH  18  19
ATOM     19  C   UNL     1       1.077   7.857  21.218  0.00  0.00    +0.000 C 
BRANCH  19  20
ATOM     20  C   UNL     1       1.048   9.362  21.463  0.00  0.00    +0.000 C 
ATOM     21  O   UNL     1       1.152   9.842  22.588  0.00  0.00    +0.000 OA
ATOM     22  N   UNL     1       0.873  10.094  20.304  0.00  0.00    +0.000 N 
ATOM     23  C   UNL     1       0.854  11.462  20.341  0.00  0.00    +0.000 A 
ATOM     24  N   UNL     1       1.205  12.261  21.316  0.00  0.00    +0.000 NA
ATOM     25  C   UNL     1       0.971  13.568  20.946  0.00  0.00    +0.000 A 
ATOM     26  C   UNL     1       0.430  13.741  19.690  0.00  0.00    +0.000 A 
ATOM     27  S   UNL     1       0.282  12.210  18.919  0.00  0.00    +0.000 S 
ATOM     28  H   UNL     1       0.620   9.656  19.429  0.00  0.00    +0.000 HD
ENDBRANCH  19  20
ENDBRANCH  18  19
ENDBRANCH   2  18
TORSDOF 6
ENDMDL
MODEL 7
REMARK VINA RESULT:      -7.4      3.051      8.408
REMARK  Name = 
REMARK  9 active torsions:
REMARK  status: ('A' for Active; 'I' for Inactive)
REMARK    1  A    between atoms: C_1  and  O_2
REMARK    2  A    between atoms: O_2  and  C_3
REMARK    3  A    between atoms: C_6  and  N_7
REMARK    4  A    between atoms: N_7  and  N_8
REMARK    5  A    between atoms: C_9  and  S_10
REMARK    6  A    between atoms: S_10  and  C_11
REMARK    7  A    between atoms: C_11  and  C_12
REMARK    8  A    between atoms: C_21  and  C_22
REMARK    9  A    between atoms: C_23  and  C_24
REMARK                            x       y       z     vdW  Elec       q    Type
REMARK                         _______ _______ _______ _____ _____    ______ ____
ROOT
ATOM      1  N   UNL     1       2.517   4.532  18.874  0.00  0.00    +0.000 N 
ATOM      2  C   UNL     1       2.320   5.481  19.864  0.00  0.00    +0.000 A 
ATOM      3  N   UNL     1       2.009   4.947  21.022  0.00  0.00    +0.000 NA
ATOM      4  C   UNL     1       1.970   3.595  20.790  0.00  0.00    +0.000 A 
ATOM      5  C   UNL     1       1.493   2.654  21.830  0.00  0.00    +0.000 C 
ATOM      6  C   UNL     1       2.391   3.301  19.506  0.00  0.00    +0.000 A 
ATOM      7  C   UNL     1       2.590   1.976  18.863  0.00  0.00    +0.000 C 
ENDROOT
BRANCH   1   8
ATOM      8  N   UNL     1       2.842   4.758  17.546  0.00  0.00    +0.000 N 
ATOM      9  H   UNL     1       2.047   5.027  16.962  0.00  0.00    +0.000 HD
BRANCH   8  13
ATOM     10  C   UNL     1       6.509   5.161  15.509  0.00  0.00    +0.000 A 
ATOM     11  C   UNL     1       5.882   6.285  16.040  0.00  0.00    +0.000 A 
ATOM     12  C   UNL     1       4.727   6.151  16.815  0.00  0.00    +0.000 A 
ATOM     13  C   UNL     1       4.133   4.899  17.012  0.00  0.00    +0.000 A 
ATOM     14  C   UNL     1       4.795   3.773  16.509  0.00  0.00    +0.000 A 
ATOM     15  C   UNL     1       5.976   3.899  15.764  0.00  0.00    +0.000 A 
BRANCH  10  17
ATOM     16  C   UNL     1       7.477   4.939  13.372  0.00  0.00    +0.000 C 
ATOM     17  O   UNL     1       7.585   5.419  14.705  0.00  0.00    +0.000 OA
ENDBRANCH  10  17
ENDBRANCH   8  13
ENDBRANCH   1   8
BRANCH   2  18
ATOM     18  S   UNL     1       2.386   7.196  19.593  0.00  0.00    +0.000 S 
BRANCH  18  19
ATOM     19  C   UNL     1       1.315   7.800  20.931  0.00  0.00    +0.000 C 
BRANCH  19  20
ATOM     20  C   UNL     1       0.709   9.155  20.579  0.00  0.00    +0.000 C 
ATOM     21  O   UNL     1       0.914   9.700  19.499  0.00  0.00    +0.000 OA
ATOM     22  N   UNL     1      -0.055   9.686  21.602  0.00  0.00    +0.000 N 
ATOM     23  C   UNL     1      -0.696  10.884  21.439  0.00  0.00    +0.000 A 
ATOM     24  N   UNL     1      -0.899  11.564  20.341  0.00  0.00    +0.000 NA
ATOM     25  C   UNL     1      -1.539  12.747  20.643  0.00  0.00    +0.000 A 
ATOM     26  C   UNL     1      -1.802  12.953  21.981  0.00  0.00    +0.000 A 
ATOM     27  S   UNL     1      -1.295  11.577  22.879  0.00  0.00    +0.000 S 
ATOM     28  H   UNL     1      -0.055   9.289  22.530  0.00  0.00    +0.000 HD
ENDBRANCH  19  20
ENDBRANCH  18  19
ENDBRANCH   2  18
TORSDOF 6
ENDMDL
MODEL 8
REMARK VINA RESULT:      -7.4      2.881      7.937
REMARK  Name = 
REMARK  9 active torsions:
REMARK  status: ('A' for Active; 'I' for Inactive)
REMARK    1  A    between atoms: C_1  and  O_2
REMARK    2  A    between atoms: O_2  and  C_3
REMARK    3  A    between atoms: C_6  and  N_7
REMARK    4  A    between atoms: N_7  and  N_8
REMARK    5  A    between atoms: C_9  and  S_10
REMARK    6  A    between atoms: S_10  and  C_11
REMARK    7  A    between atoms: C_11  and  C_12
REMARK    8  A    between atoms: C_21  and  C_22
REMARK    9  A    between atoms: C_23  and  C_24
REMARK                            x       y       z     vdW  Elec       q    Type
REMARK                         _______ _______ _______ _____ _____    ______ ____
ROOT
ATOM      1  N   UNL     1       2.583   4.621  18.962  0.00  0.00    +0.000 N 
ATOM      2  C   UNL     1       2.284   5.529  19.967  0.00  0.00    +0.000 A 
ATOM      3  N   UNL     1       1.998   4.945  21.107  0.00  0.00    +0.000 NA
ATOM      4  C   UNL     1       2.083   3.600  20.848  0.00  0.00    +0.000 A 
ATOM      5  C   UNL     1       1.671   2.599  21.859  0.00  0.00    +0.000 C 
ATOM      6  C   UNL     1       2.554   3.371  19.568  0.00  0.00    +0.000 A 
ATOM      7  C   UNL     1       2.882   2.083  18.905  0.00  0.00    +0.000 C 
ENDROOT
BRANCH   1   8
ATOM      8  N   UNL     1       2.914   4.903  17.646  0.00  0.00    +0.000 N 
ATOM      9  H   UNL     1       2.144   5.293  17.098  0.00  0.00    +0.000 HD
BRANCH   8  13
ATOM     10  C   UNL     1       6.582   5.172  15.589  0.00  0.00    +0.000 A 
ATOM     11  C   UNL     1       6.193   6.193  16.452  0.00  0.00    +0.000 A 
ATOM     12  C   UNL     1       5.036   6.063  17.226  0.00  0.00    +0.000 A 
ATOM     13  C   UNL     1       4.205   4.944  17.097  0.00  0.00    +0.000 A 
ATOM     14  C   UNL     1       4.629   3.906  16.259  0.00  0.00    +0.000 A 
ATOM     15  C   UNL     1       5.810   4.015  15.511  0.00  0.00    +0.000 A 
BRANCH  10  17
ATOM     16  C   UNL     1       7.617   4.996  13.480  0.00  0.00    +0.000 C 
ATOM     17  O   UNL     1       7.685   5.441  14.828  0.00  0.00    +0.000 OA
ENDBRANCH  10  17
ENDBRANCH   8  13
ENDBRANCH   1   8
BRANCH   2  18
ATOM     18  S   UNL     1       2.204   7.248  19.730  0.00  0.00    +0.000 S 
BRANCH  18  19
ATOM     19  C   UNL     1       1.226   7.752  21.176  0.00  0.00    +0.000 C 
BRANCH  19  20
ATOM     20  C   UNL     1       1.022   9.263  21.200  0.00  0.00    +0.000 C 
ATOM     21  O   UNL     1       1.383   9.956  22.147  0.00  0.00    +0.000 OA
ATOM     22  N   UNL     1       0.380   9.738  20.071  0.00  0.00    +0.000 N 
ATOM     23  C   UNL     1       0.145  11.077  19.917  0.00  0.00    +0.000 A 
ATOM     24  N   UNL     1       0.637  12.080  20.597  0.00  0.00    +0.000 NA
ATOM     25  C   UNL     1       0.085  13.260  20.142  0.00  0.00    +0.000 A 
ATOM     26  C   UNL     1      -0.835  13.129  19.124  0.00  0.00    +0.000 A 
ATOM     27  S   UNL     1      -0.953  11.474  18.672  0.00  0.00    +0.000 S 
ATOM     28  H   UNL     1      -0.051   9.117  19.401  0.00  0.00    +0.000 HD
ENDBRANCH  19  20
ENDBRANCH  18  19
ENDBRANCH   2  18
TORSDOF 6
ENDMDL
MODEL 9
REMARK VINA RESULT:      -7.4      3.022      8.127
REMARK  Name = 
REMARK  9 active torsions:
REMARK  status: ('A' for Active; 'I' for Inactive)
REMARK    1  A    between atoms: C_1  and  O_2
REMARK    2  A    between atoms: O_2  and  C_3
REMARK    3  A    between atoms: C_6  and  N_7
REMARK    4  A    between atoms: N_7  and  N_8
REMARK    5  A    between atoms: C_9  and  S_10
REMARK    6  A    between atoms: S_10  and  C_11
REMARK    7  A    between atoms: C_11  and  C_12
REMARK    8  A    between atoms: C_21  and  C_22
REMARK    9  A    between atoms: C_23  and  C_24
REMARK                            x       y       z     vdW  Elec       q    Type
REMARK                         _______ _______ _______ _____ _____    ______ ____
ROOT
ATOM      1  N   UNL     1       3.589   5.136  19.665  0.00  0.00    +0.000 N 
ATOM      2  C   UNL     1       2.393   5.787  19.926  0.00  0.00    +0.000 A 
ATOM      3  N   UNL     1       1.429   4.960  20.258  0.00  0.00    +0.000 NA
ATOM      4  C   UNL     1       1.994   3.711  20.191  0.00  0.00    +0.000 A 
ATOM      5  C   UNL     1       1.170   2.490  20.347  0.00  0.00    +0.000 C 
ATOM      6  C   UNL     1       3.352   3.795  19.942  0.00  0.00    +0.000 A 
ATOM      7  C   UNL     1       4.364   2.709  19.878  0.00  0.00    +0.000 C 
ENDROOT
BRANCH   1   8
ATOM      8  N   UNL     1       4.790   5.709  19.280  0.00  0.00    +0.000 N 
ATOM      9  H   UNL     1       5.316   6.132  20.049  0.00  0.00    +0.000 HD
BRANCH   8  13
ATOM     10  C   UNL     1       6.635   4.745  15.615  0.00  0.00    +0.000 A 
ATOM     11  C   UNL     1       5.355   5.295  15.626  0.00  0.00    +0.000 A 
ATOM     12  C   UNL     1       4.780   5.724  16.825  0.00  0.00    +0.000 A 
ATOM     13  C   UNL     1       5.440   5.544  18.046  0.00  0.00    +0.000 A 
ATOM     14  C   UNL     1       6.742   5.030  18.018  0.00  0.00    +0.000 A 
ATOM     15  C   UNL     1       7.339   4.635  16.813  0.00  0.00    +0.000 A 
BRANCH  10  17
ATOM     16  C   UNL     1       6.040   3.845  13.521  0.00  0.00    +0.000 C 
ATOM     17  O   UNL     1       7.064   4.291  14.399  0.00  0.00    +0.000 OA
ENDBRANCH  10  17
ENDBRANCH   8  13
ENDBRANCH   1   8
BRANCH   2  18
ATOM     18  S   UNL     1       2.160   7.499  19.746  0.00  0.00    +0.000 S 
BRANCH  18  19
ATOM     19  C   UNL     1       1.111   7.859  21.186  0.00  0.00    +0.000 C 
BRANCH  19  20
ATOM     20  C   UNL     1       1.096   9.353  21.493  0.00  0.00    +0.000 C 
ATOM     21  O   UNL     1       1.511   9.805  22.556  0.00  0.00    +0.000 OA
ATOM     22  N   UNL     1       0.554  10.108  20.470  0.00  0.00    +0.000 N 
ATOM     23  C   UNL     1       0.492  11.472  20.571  0.00  0.00    +0.000 A 
ATOM     24  N   UNL     1       1.085  12.259  21.431  0.00  0.00    +0.000 NA
ATOM     25  C   UNL     1       0.699  13.563  21.204  0.00  0.00    +0.000 A 
ATOM     26  C   UNL     1      -0.198  13.744  20.173  0.00  0.00    +0.000 A 
ATOM     27  S   UNL     1      -0.508  12.231  19.416  0.00  0.00    +0.000 S 
ATOM     28  H   UNL     1       0.069   9.684  19.693  0.00  0.00    +0.000 HD
ENDBRANCH  19  20
ENDBRANCH  18  19
ENDBRANCH   2  18
TORSDOF 6
ENDMDL
