MODEL 1
REMARK VINA RESULT:      -6.6      0.000      0.000
REMARK  Name = 
REMARK  5 active torsions:
REMARK  status: ('A' for Active; 'I' for Inactive)
REMARK    1  A    between atoms: C_1  and  C_2
REMARK    2  A    between atoms: C_2  and  N_3
REMARK    3  A    between atoms: C_5  and  C_6
REMARK    4  A    between atoms: C_6  and  C_7
REMARK    5  A    between atoms: N_9  and  C_10
REMARK                            x       y       z     vdW  Elec       q    Type
REMARK                         _______ _______ _______ _____ _____    ______ ____
ROOT
ATOM      1  C   UNL     1       4.622   4.169  19.361  0.00  0.00    +0.000 C 
ATOM      2  O   UNL     1       4.865   2.999  19.654  0.00  0.00    +0.000 OA
ATOM      3  N   UNL     1       3.391   4.661  18.976  0.00  0.00    +0.000 N 
ATOM      4  H   UNL     1       3.311   5.612  18.647  0.00  0.00    +0.000 HD
ENDROOT
BRANCH   3   5
ATOM      5  C   UNL     1       2.233   3.919  19.042  0.00  0.00    +0.000 A 
ATOM      6  C   UNL     1       1.415   3.808  20.140  0.00  0.00    +0.000 A 
ATOM      7  N   UNL     1       0.426   2.966  19.723  0.00  0.00    +0.000 N 
ATOM      8  N   UNL     1       0.620   2.569  18.460  0.00  0.00    +0.000 NA
ATOM      9  N   UNL     1       1.727   3.157  18.026  0.00  0.00    +0.000 NA
ATOM     10  H   UNL     1      -0.390   2.624  20.217  0.00  0.00    +0.000 HD
ENDBRANCH   3   5
BRANCH   1  11
ATOM     11  C   UNL     1       5.764   5.173  19.303  0.00  0.00    +0.000 C 
BRANCH  11  14
ATOM     12  N   UNL     1       6.948   5.174  15.847  0.00  0.00    +0.000 N 
ATOM     13  C   UNL     1       6.254   4.561  16.850  0.00  0.00    +0.000 A 
ATOM     14  C   UNL     1       6.331   5.397  17.944  0.00  0.00    +0.000 A 
ATOM     15  C   UNL     1       7.103   6.492  17.487  0.00  0.00    +0.000 A 
ATOM     16  N   UNL     1       7.450   6.368  16.204  0.00  0.00    +0.000 NA
BRANCH  12  18
ATOM     17  C   UNL     1       5.891   4.022  13.953  0.00  0.00    +0.000 C 
ATOM     18  C   UNL     1       7.148   4.670  14.503  0.00  0.00    +0.000 C 
ENDBRANCH  12  18
ENDBRANCH  11  14
ENDBRANCH   1  11
TORSDOF 4
ENDMDL
MODEL 2
REMARK VINA RESULT:      -6.4      1.301      1.417
REMARK  Name = 
REMARK  5 active torsions:
REMARK  status: ('A' for Active; 'I' for Inactive)
REMARK    1  A    between atoms: C_1  and  C_2
REMARK    2  A    between atoms: C_2  and  N_3
REMARK    3  A    between atoms: C_5  and  C_6
REMARK    4  A    between atoms: C_6  and  C_7
REMARK    5  A    between atoms: N_9  and  C_10
REMARK                            x       y       z     vdW  Elec       q    Type
REMARK                         _______ _______ _______ _____ _____    ______ ____
ROOT
ATOM      1  C   UNL     1       3.749   5.091  18.044  0.00  0.00    +0.000 C 
ATOM      2  O   UNL     1       4.454   4.262  18.619  0.00  0.00    +0.000 OA
ATOM      3  N   UNL     1       2.373   5.040  17.939  0.00  0.00    +0.000 N 
ATOM      4  H   UNL     1       1.890   5.704  17.354  0.00  0.00    +0.000 HD
ENDROOT
BRANCH   3   5
ATOM      5  C   UNL     1       1.603   4.127  18.624  0.00  0.00    +0.000 A 
ATOM      6  C   UNL     1       1.247   4.214  19.948  0.00  0.00    +0.000 A 
ATOM      7  N   UNL     1       0.511   3.085  20.160  0.00  0.00    +0.000 N 
ATOM      8  N   UNL     1       0.425   2.340  19.052  0.00  0.00    +0.000 NA
ATOM      9  N   UNL     1       1.088   2.977  18.095  0.00  0.00    +0.000 NA
ATOM     10  H   UNL     1       0.047   2.758  20.999  0.00  0.00    +0.000 HD
ENDBRANCH   3   5
BRANCH   1  11
ATOM     11  C   UNL     1       4.412   6.230  17.284  0.00  0.00    +0.000 C 
BRANCH  11  14
ATOM     12  N   UNL     1       6.623   4.981  14.657  0.00  0.00    +0.000 N 
ATOM     13  C   UNL     1       5.358   5.198  15.122  0.00  0.00    +0.000 A 
ATOM     14  C   UNL     1       5.494   5.812  16.350  0.00  0.00    +0.000 A 
ATOM     15  C   UNL     1       6.894   5.914  16.530  0.00  0.00    +0.000 A 
ATOM     16  N   UNL     1       7.577   5.436  15.487  0.00  0.00    +0.000 NA
BRANCH  12  18
ATOM     17  C   UNL     1       5.828   3.570  12.811  0.00  0.00    +0.000 C 
ATOM     18  C   UNL     1       6.985   4.354  13.402  0.00  0.00    +0.000 C 
ENDBRANCH  12  18
ENDBRANCH  11  14
ENDBRANCH   1  11
TORSDOF 4
ENDMDL
MODEL 3
REMARK VINA RESULT:      -6.4      1.193      1.485
REMARK  Name = 
REMARK  5 active torsions:
REMARK  status: ('A' for Active; 'I' for Inactive)
REMARK    1  A    between atoms: C_1  and  C_2
REMARK    2  A    between atoms: C_2  and  N_3
REMARK    3  A    between atoms: C_5  and  C_6
REMARK    4  A    between atoms: C_6  and  C_7
REMARK    5  A    between atoms: N_9  and  C_10
REMARK                            x       y       z     vdW  Elec       q    Type
REMARK                         _______ _______ _______ _____ _____    ______ ____
ROOT
ATOM      1  C   UNL     1       4.738   4.314  19.477  0.00  0.00    +0.000 C 
ATOM      2  O   UNL     1       5.067   3.135  19.598  0.00  0.00    +0.000 OA
ATOM      3  N   UNL     1       3.464   4.814  19.655  0.00  0.00    +0.000 N 
ATOM      4  H   UNL     1       3.266   5.777  19.426  0.00  0.00    +0.000 HD
ENDROOT
BRANCH   3   5
ATOM      5  C   UNL     1       2.428   4.063  20.164  0.00  0.00    +0.000 A 
ATOM      6  C   UNL     1       1.238   3.805  19.527  0.00  0.00    +0.000 A 
ATOM      7  N   UNL     1       0.547   3.048  20.426  0.00  0.00    +0.000 N 
ATOM      8  N   UNL     1       1.248   2.859  21.550  0.00  0.00    +0.000 NA
ATOM      9  N   UNL     1       2.414   3.473  21.397  0.00  0.00    +0.000 NA
ATOM     10  H   UNL     1      -0.375   2.634  20.357  0.00  0.00    +0.000 HD
ENDBRANCH   3   5
BRANCH   1  11
ATOM     11  C   UNL     1       5.766   5.326  18.992  0.00  0.00    +0.000 C 
BRANCH  11  14
ATOM     12  N   UNL     1       6.388   5.245  15.393  0.00  0.00    +0.000 N 
ATOM     13  C   UNL     1       6.613   4.726  16.635  0.00  0.00    +0.000 A 
ATOM     14  C   UNL     1       5.851   5.470  17.512  0.00  0.00    +0.000 A 
ATOM     15  C   UNL     1       5.206   6.420  16.686  0.00  0.00    +0.000 A 
ATOM     16  N   UNL     1       5.510   6.261  15.395  0.00  0.00    +0.000 NA
BRANCH  12  18
ATOM     17  C   UNL     1       6.074   3.804  13.429  0.00  0.00    +0.000 C 
ATOM     18  C   UNL     1       6.976   4.791  14.148  0.00  0.00    +0.000 C 
ENDBRANCH  12  18
ENDBRANCH  11  14
ENDBRANCH   1  11
TORSDOF 4
ENDMDL
MODEL 4
REMARK VINA RESULT:      -6.3      1.907      6.131
REMARK  Name = 
REMARK  5 active torsions:
REMARK  status: ('A' for Active; 'I' for Inactive)
REMARK    1  A    between atoms: C_1  and  C_2
REMARK    2  A    between atoms: C_2  and  N_3
REMARK    3  A    between atoms: C_5  and  C_6
REMARK    4  A    between atoms: C_6  and  C_7
REMARK    5  A    between atoms: N_9  and  C_10
REMARK                            x       y       z     vdW  Elec       q    Type
REMARK                         _______ _______ _______ _____ _____    ______ ____
ROOT
ATOM      1  C   UNL     1       7.017   5.142  17.025  0.00  0.00    +0.000 C 
ATOM      2  O   UNL     1       7.962   4.356  17.086  0.00  0.00    +0.000 OA
ATOM      3  N   UNL     1       6.421   5.594  15.865  0.00  0.00    +0.000 N 
ATOM      4  H   UNL     1       5.725   6.323  15.909  0.00  0.00    +0.000 HD
ENDROOT
BRANCH   3   5
ATOM      5  C   UNL     1       6.712   5.076  14.623  0.00  0.00    +0.000 A 
ATOM      6  C   UNL     1       6.062   4.024  14.023  0.00  0.00    +0.000 A 
ATOM      7  N   UNL     1       6.712   3.878  12.833  0.00  0.00    +0.000 N 
ATOM      8  N   UNL     1       7.706   4.765  12.705  0.00  0.00    +0.000 NA
ATOM      9  N   UNL     1       7.710   5.514  13.799  0.00  0.00    +0.000 NA
ATOM     10  H   UNL     1       6.549   3.224  12.076  0.00  0.00    +0.000 HD
ENDBRANCH   3   5
BRANCH   1  11
ATOM     11  C   UNL     1       6.494   5.775  18.307  0.00  0.00    +0.000 C 
BRANCH  11  14
ATOM     12  N   UNL     1       3.325   4.768  19.820  0.00  0.00    +0.000 N 
ATOM     13  C   UNL     1       4.174   5.761  19.424  0.00  0.00    +0.000 A 
ATOM     14  C   UNL     1       5.270   5.137  18.865  0.00  0.00    +0.000 A 
ATOM     15  C   UNL     1       4.976   3.758  18.981  0.00  0.00    +0.000 A 
ATOM     16  N   UNL     1       3.781   3.537  19.534  0.00  0.00    +0.000 NA
BRANCH  12  18
ATOM     17  C   UNL     1       1.141   3.733  20.256  0.00  0.00    +0.000 C 
ATOM     18  C   UNL     1       2.040   4.938  20.467  0.00  0.00    +0.000 C 
ENDBRANCH  12  18
ENDBRANCH  11  14
ENDBRANCH   1  11
TORSDOF 4
ENDMDL
MODEL 5
REMARK VINA RESULT:      -6.3      1.632      1.834
REMARK  Name = 
REMARK  5 active torsions:
REMARK  status: ('A' for Active; 'I' for Inactive)
REMARK    1  A    between atoms: C_1  and  C_2
REMARK    2  A    between atoms: C_2  and  N_3
REMARK    3  A    between atoms: C_5  and  C_6
REMARK    4  A    between atoms: C_6  and  C_7
REMARK    5  A    between atoms: N_9  and  C_10
REMARK                            x       y       z     vdW  Elec       q    Type
REMARK                         _______ _______ _______ _____ _____    ______ ____
ROOT
ATOM      1  C   UNL     1       3.638   5.515  18.092  0.00  0.00    +0.000 C 
ATOM      2  O   UNL     1       3.401   5.688  19.287  0.00  0.00    +0.000 OA
ATOM      3  N   UNL     1       3.314   4.388  17.364  0.00  0.00    +0.000 N 
ATOM      4  H   UNL     1       3.647   4.290  16.416  0.00  0.00    +0.000 HD
ENDROOT
BRANCH   3   5
ATOM      5  C   UNL     1       2.522   3.377  17.859  0.00  0.00    +0.000 A 
ATOM      6  C   UNL     1       2.955   2.122  18.212  0.00  0.00    +0.000 A 
ATOM      7  N   UNL     1       1.818   1.490  18.622  0.00  0.00    +0.000 N 
ATOM      8  N   UNL     1       0.749   2.289  18.519  0.00  0.00    +0.000 NA
ATOM      9  N   UNL     1       1.173   3.458  18.058  0.00  0.00    +0.000 NA
ATOM     10  H   UNL     1       1.685   0.550  18.974  0.00  0.00    +0.000 HD
ENDBRANCH   3   5
BRANCH   1  11
ATOM     11  C   UNL     1       4.445   6.562  17.336  0.00  0.00    +0.000 C 
BRANCH  11  14
ATOM     12  N   UNL     1       6.632   5.087  14.809  0.00  0.00    +0.000 N 
ATOM     13  C   UNL     1       5.386   5.492  15.191  0.00  0.00    +0.000 A 
ATOM     14  C   UNL     1       5.517   6.012  16.462  0.00  0.00    +0.000 A 
ATOM     15  C   UNL     1       6.894   5.866  16.752  0.00  0.00    +0.000 A 
ATOM     16  N   UNL     1       7.575   5.331  15.735  0.00  0.00    +0.000 NA
BRANCH  12  18
ATOM     17  C   UNL     1       5.843   3.660  12.973  0.00  0.00    +0.000 C 
ATOM     18  C   UNL     1       6.990   4.471  13.547  0.00  0.00    +0.000 C 
ENDBRANCH  12  18
ENDBRANCH  11  14
ENDBRANCH   1  11
TORSDOF 4
ENDMDL
MODEL 6
REMARK VINA RESULT:      -6.2      2.004      6.162
REMARK  Name = 
REMARK  5 active torsions:
REMARK  status: ('A' for Active; 'I' for Inactive)
REMARK    1  A    between atoms: C_1  and  C_2
REMARK    2  A    between atoms: C_2  and  N_3
REMARK    3  A    between atoms: C_5  and  C_6
REMARK    4  A    between atoms: C_6  and  C_7
REMARK    5  A    between atoms: N_9  and  C_10
REMARK                            x       y       z     vdW  Elec       q    Type
REMARK                         _______ _______ _______ _____ _____    ______ ____
ROOT
ATOM      1  C   UNL     1       6.410   5.788  17.085  0.00  0.00    +0.000 C 
ATOM      2  O   UNL     1       6.064   6.877  16.627  0.00  0.00    +0.000 OA
ATOM      3  N   UNL     1       6.781   4.686  16.341  0.00  0.00    +0.000 N 
ATOM      4  H   UNL     1       6.942   3.801  16.799  0.00  0.00    +0.000 HD
ENDROOT
BRANCH   3   5
ATOM      5  C   UNL     1       6.973   4.731  14.978  0.00  0.00    +0.000 A 
ATOM      6  C   UNL     1       6.296   3.978  14.049  0.00  0.00    +0.000 A 
ATOM      7  N   UNL     1       6.843   4.362  12.860  0.00  0.00    +0.000 N 
ATOM      8  N   UNL     1       7.803   5.278  13.035  0.00  0.00    +0.000 NA
ATOM      9  N   UNL     1       7.886   5.520  14.337  0.00  0.00    +0.000 NA
ATOM     10  H   UNL     1       6.629   4.062  11.917  0.00  0.00    +0.000 HD
ENDBRANCH   3   5
BRANCH   1  11
ATOM     11  C   UNL     1       6.341   5.558  18.587  0.00  0.00    +0.000 C 
BRANCH  11  14
ATOM     12  N   UNL     1       3.370   3.747  19.703  0.00  0.00    +0.000 N 
ATOM     13  C   UNL     1       4.666   3.726  19.275  0.00  0.00    +0.000 A 
ATOM     14  C   UNL     1       5.034   5.041  19.081  0.00  0.00    +0.000 A 
ATOM     15  C   UNL     1       3.874   5.776  19.421  0.00  0.00    +0.000 A 
ATOM     16  N   UNL     1       2.875   4.990  19.828  0.00  0.00    +0.000 NA
BRANCH  12  18
ATOM     17  C   UNL     1       1.182   3.012  20.541  0.00  0.00    +0.000 C 
ATOM     18  C   UNL     1       2.551   2.598  20.033  0.00  0.00    +0.000 C 
ENDBRANCH  12  18
ENDBRANCH  11  14
ENDBRANCH   1  11
TORSDOF 4
ENDMDL
MODEL 7
REMARK VINA RESULT:      -6.2      1.693      5.878
REMARK  Name = 
REMARK  5 active torsions:
REMARK  status: ('A' for Active; 'I' for Inactive)
REMARK    1  A    between atoms: C_1  and  C_2
REMARK    2  A    between atoms: C_2  and  N_3
REMARK    3  A    between atoms: C_5  and  C_6
REMARK    4  A    between atoms: C_6  and  C_7
REMARK    5  A    between atoms: N_9  and  C_10
REMARK                            x       y       z     vdW  Elec       q    Type
REMARK                         _______ _______ _______ _____ _____    ______ ____
ROOT
ATOM      1  C   UNL     1       6.659   4.905  18.075  0.00  0.00    +0.000 C 
ATOM      2  O   UNL     1       7.774   4.385  18.096  0.00  0.00    +0.000 OA
ATOM      3  N   UNL     1       6.000   5.344  16.944  0.00  0.00    +0.000 N 
ATOM      4  H   UNL     1       5.136   5.860  17.034  0.00  0.00    +0.000 HD
ENDROOT
BRANCH   3   5
ATOM      5  C   UNL     1       6.450   5.092  15.668  0.00  0.00    +0.000 A 
ATOM      6  C   UNL     1       5.878   4.217  14.776  0.00  0.00    +0.000 A 
ATOM      7  N   UNL     1       6.682   4.303  13.677  0.00  0.00    +0.000 N 
ATOM      8  N   UNL     1       7.692   5.158  13.874  0.00  0.00    +0.000 NA
ATOM      9  N   UNL     1       7.555   5.658  15.095  0.00  0.00    +0.000 NA
ATOM     10  H   UNL     1       6.616   3.832  12.783  0.00  0.00    +0.000 HD
ENDBRANCH   3   5
BRANCH   1  11
ATOM     11  C   UNL     1       5.953   5.204  19.389  0.00  0.00    +0.000 C 
BRANCH  11  14
ATOM     12  N   UNL     1       2.368   4.502  19.443  0.00  0.00    +0.000 N 
ATOM     13  C   UNL     1       3.645   4.110  19.723  0.00  0.00    +0.000 A 
ATOM     14  C   UNL     1       4.466   5.146  19.327  0.00  0.00    +0.000 A 
ATOM     15  C   UNL     1       3.572   6.117  18.817  0.00  0.00    +0.000 A 
ATOM     16  N   UNL     1       2.296   5.736  18.917  0.00  0.00    +0.000 NA
BRANCH  12  18
ATOM     17  C   UNL     1       1.270   2.887  20.932  0.00  0.00    +0.000 C 
ATOM     18  C   UNL     1       1.159   3.738  19.681  0.00  0.00    +0.000 C 
ENDBRANCH  12  18
ENDBRANCH  11  14
ENDBRANCH   1  11
TORSDOF 4
ENDMDL
MODEL 8
REMARK VINA RESULT:      -6.2      2.282      6.289
REMARK  Name = 
REMARK  5 active torsions:
REMARK  status: ('A' for Active; 'I' for Inactive)
REMARK    1  A    between atoms: C_1  and  C_2
REMARK    2  A    between atoms: C_2  and  N_3
REMARK    3  A    between atoms: C_5  and  C_6
REMARK    4  A    between atoms: C_6  and  C_7
REMARK    5  A    between atoms: N_9  and  C_10
REMARK                            x       y       z     vdW  Elec       q    Type
REMARK                         _______ _______ _______ _____ _____    ______ ____
ROOT
ATOM      1  C   UNL     1       5.506   6.053  16.083  0.00  0.00    +0.000 C 
ATOM      2  O   UNL     1       5.051   6.924  15.342  0.00  0.00    +0.000 OA
ATOM      3  N   UNL     1       6.233   4.953  15.677  0.00  0.00    +0.000 N 
ATOM      4  H   UNL     1       6.469   4.233  16.345  0.00  0.00    +0.000 HD
ENDROOT
BRANCH   3   5
ATOM      5  C   UNL     1       6.687   4.788  14.388  0.00  0.00    +0.000 A 
ATOM      6  C   UNL     1       6.215   3.866  13.485  0.00  0.00    +0.000 A 
ATOM      7  N   UNL     1       6.979   4.078  12.376  0.00  0.00    +0.000 N 
ATOM      8  N   UNL     1       7.874   5.053  12.576  0.00  0.00    +0.000 NA
ATOM      9  N   UNL     1       7.697   5.504  13.811  0.00  0.00    +0.000 NA
ATOM     10  H   UNL     1       6.958   3.622  11.472  0.00  0.00    +0.000 HD
ENDBRANCH   3   5
BRANCH   1  11
ATOM     11  C   UNL     1       5.177   6.097  17.569  0.00  0.00    +0.000 C 
BRANCH  11  14
ATOM     12  N   UNL     1       2.887   3.425  18.550  0.00  0.00    +0.000 N 
ATOM     13  C   UNL     1       3.119   4.574  17.850  0.00  0.00    +0.000 A 
ATOM     14  C   UNL     1       4.438   4.910  18.080  0.00  0.00    +0.000 A 
ATOM     15  C   UNL     1       4.907   3.891  18.942  0.00  0.00    +0.000 A 
ATOM     16  N   UNL     1       3.972   2.974  19.201  0.00  0.00    +0.000 NA
BRANCH  12  18
ATOM     17  C   UNL     1       0.856   3.034  19.875  0.00  0.00    +0.000 C 
ATOM     18  C   UNL     1       1.637   2.694  18.619  0.00  0.00    +0.000 C 
ENDBRANCH  12  18
ENDBRANCH  11  14
ENDBRANCH   1  11
TORSDOF 4
ENDMDL
MODEL 9
REMARK VINA RESULT:      -6.1      1.623      1.956
REMARK  Name = 
REMARK  5 active torsions:
REMARK  status: ('A' for Active; 'I' for Inactive)
REMARK    1  A    between atoms: C_1  and  C_2
REMARK    2  A    between atoms: C_2  and  N_3
REMARK    3  A    between atoms: C_5  and  C_6
REMARK    4  A    between atoms: C_6  and  C_7
REMARK    5  A    between atoms: N_9  and  C_10
REMARK                            x       y       z     vdW  Elec       q    Type
REMARK                         _______ _______ _______ _____ _____    ______ ____
ROOT
ATOM      1  C   UNL     1       3.718   4.495  18.143  0.00  0.00    +0.000 C 
ATOM      2  O   UNL     1       4.031   3.332  17.891  0.00  0.00    +0.000 OA
ATOM      3  N   UNL     1       2.818   4.893  19.111  0.00  0.00    +0.000 N 
ATOM      4  H   UNL     1       2.541   5.862  19.170  0.00  0.00    +0.000 HD
ENDROOT
BRANCH   3   5
ATOM      5  C   UNL     1       2.283   4.028  20.039  0.00  0.00    +0.000 A 
ATOM      6  C   UNL     1       0.955   3.692  20.147  0.00  0.00    +0.000 A 
ATOM      7  N   UNL     1       0.924   2.834  21.208  0.00  0.00    +0.000 N 
ATOM      8  N   UNL     1       2.143   2.659  21.732  0.00  0.00    +0.000 NA
ATOM      9  N   UNL     1       2.991   3.383  21.014  0.00  0.00    +0.000 NA
ATOM     10  H   UNL     1       0.144   2.341  21.624  0.00  0.00    +0.000 HD
ENDBRANCH   3   5
BRANCH   1  11
ATOM     11  C   UNL     1       4.266   5.616  17.271  0.00  0.00    +0.000 C 
BRANCH  11  14
ATOM     12  N   UNL     1       6.505   4.526  14.599  0.00  0.00    +0.000 N 
ATOM     13  C   UNL     1       5.245   4.842  15.019  0.00  0.00    +0.000 A 
ATOM     14  C   UNL     1       5.358   5.210  16.344  0.00  0.00    +0.000 A 
ATOM     15  C   UNL     1       6.738   5.074  16.622  0.00  0.00    +0.000 A 
ATOM     16  N   UNL     1       7.437   4.688  15.553  0.00  0.00    +0.000 NA
BRANCH  12  18
ATOM     17  C   UNL     1       5.723   3.428  12.546  0.00  0.00    +0.000 C 
ATOM     18  C   UNL     1       6.886   4.077  13.274  0.00  0.00    +0.000 C 
ENDBRANCH  12  18
ENDBRANCH  11  14
ENDBRANCH   1  11
TORSDOF 4
ENDMDL
