MODEL 1
REMARK VINA RESULT:      -9.1      0.000      0.000
REMARK  Name = 
REMARK  5 active torsions:
REMARK  status: ('A' for Active; 'I' for Inactive)
REMARK    1  A    between atoms: C_2  and  C_3
REMARK    2  A    between atoms: C_6  and  C_7
REMARK    3  A    between atoms: C_12  and  C_13
REMARK    4  A    between atoms: C_13  and  C_14
REMARK    5  A    between atoms: C_14  and  N_15
REMARK                            x       y       z     vdW  Elec       q    Type
REMARK                         _______ _______ _______ _____ _____    ______ ____
ROOT
ATOM      1  C   UNL     1       0.750   9.048  20.927  0.00  0.00    +0.000 A 
ATOM      2  C   UNL     1       0.725   8.861  22.326  0.00  0.00    +0.000 A 
ATOM      3  C   UNL     1      -0.055   9.641  23.179  0.00  0.00    +0.000 A 
ATOM      4  C   UNL     1      -0.795  10.648  22.582  0.00  0.00    +0.000 A 
ATOM      5  O   UNL     1      -1.607  11.493  23.253  0.00  0.00    +0.000 OA
ATOM      6  C   UNL     1      -2.181  12.336  22.347  0.00  0.00    +0.000 A 
ATOM      7  C   UNL     1      -1.709  12.035  21.081  0.00  0.00    +0.000 A 
ATOM      8  C   UNL     1      -0.811  10.925  21.227  0.00  0.00    +0.000 A 
ATOM      9  C   UNL     1      -0.025  10.108  20.380  0.00  0.00    +0.000 A 
ENDROOT
BRANCH   1  13
ATOM     10  C   UNL     1       2.994   6.364  18.377  0.00  0.00    +0.000 A 
ATOM     11  C   UNL     1       2.615   7.623  17.916  0.00  0.00    +0.000 A 
ATOM     12  C   UNL     1       1.931   8.502  18.764  0.00  0.00    +0.000 A 
ATOM     13  C   UNL     1       1.575   8.144  20.082  0.00  0.00    +0.000 A 
ATOM     14  C   UNL     1       2.019   6.894  20.539  0.00  0.00    +0.000 A 
ATOM     15  C   UNL     1       2.761   6.038  19.717  0.00  0.00    +0.000 A 
BRANCH  10  17
ATOM     16  O   UNL     1       3.145   4.326  17.254  0.00  0.00    +0.000 OA
ATOM     17  C   UNL     1       3.666   5.431  17.430  0.00  0.00    +0.000 C 
ATOM     18  N   UNL     1       4.851   5.805  16.799  0.00  0.00    +0.000 N 
ATOM     19  C   UNL     1       5.395   4.959  15.732  0.00  0.00    +0.000 C 
ATOM     20  C   UNL     1       6.880   4.666  15.966  0.00  0.00    +0.000 C 
ATOM     21  O   UNL     1       7.630   5.882  16.133  0.00  0.00    +0.000 OA
ATOM     22  C   UNL     1       7.145   6.611  17.265  0.00  0.00    +0.000 C 
ATOM     23  C   UNL     1       5.674   6.987  17.092  0.00  0.00    +0.000 C 
ENDBRANCH  10  17
ENDBRANCH   1  13
BRANCH   6  24
ATOM     24  C   UNL     1      -3.170  13.257  22.971  0.00  0.00    +0.000 C 
BRANCH  24  25
ATOM     25  C   UNL     1      -4.007  14.122  22.021  0.00  0.00    +0.000 C 
BRANCH  25  26
ATOM     26  N   UNL     1      -5.425  13.674  21.973  0.00  0.00    +0.000 NA
ATOM     27  C   UNL     1      -5.645  12.714  20.871  0.00  0.00    +0.000 C 
ATOM     28  C   UNL     1      -6.887  11.875  20.974  0.00  0.00    +0.000 C 
ATOM     29  C   UNL     1      -7.673  11.852  22.057  0.00  0.00    +0.000 C 
ATOM     30  C   UNL     1      -7.324  12.669  23.263  0.00  0.00    +0.000 C 
ATOM     31  C   UNL     1      -5.848  13.112  23.267  0.00  0.00    +0.000 C 
ENDBRANCH  25  26
ENDBRANCH  24  25
ENDBRANCH   6  24
TORSDOF 5
ENDMDL
MODEL 2
REMARK VINA RESULT:      -9.1      2.397     11.371
REMARK  Name = 
REMARK  5 active torsions:
REMARK  status: ('A' for Active; 'I' for Inactive)
REMARK    1  A    between atoms: C_2  and  C_3
REMARK    2  A    between atoms: C_6  and  C_7
REMARK    3  A    between atoms: C_12  and  C_13
REMARK    4  A    between atoms: C_13  and  C_14
REMARK    5  A    between atoms: C_14  and  N_15
REMARK                            x       y       z     vdW  Elec       q    Type
REMARK                         _______ _______ _______ _____ _____    ______ ____
ROOT
ATOM      1  C   UNL     1       0.767   9.038  20.396  0.00  0.00    +0.000 A 
ATOM      2  C   UNL     1       1.279   9.386  19.128  0.00  0.00    +0.000 A 
ATOM      3  C   UNL     1       2.033   8.508  18.349  0.00  0.00    +0.000 A 
ATOM      4  C   UNL     1       2.287   7.264  18.903  0.00  0.00    +0.000 A 
ATOM      5  O   UNL     1       2.994   6.291  18.290  0.00  0.00    +0.000 OA
ATOM      6  C   UNL     1       3.029   5.207  19.118  0.00  0.00    +0.000 A 
ATOM      7  C   UNL     1       2.350   5.506  20.288  0.00  0.00    +0.000 A 
ATOM      8  C   UNL     1       1.853   6.845  20.148  0.00  0.00    +0.000 A 
ATOM      9  C   UNL     1       1.075   7.748  20.911  0.00  0.00    +0.000 A 
ENDROOT
BRANCH   1  13
ATOM     10  C   UNL     1      -1.799  11.764  22.570  0.00  0.00    +0.000 A 
ATOM     11  C   UNL     1      -1.142  10.731  23.236  0.00  0.00    +0.000 A 
ATOM     12  C   UNL     1      -0.277   9.884  22.533  0.00  0.00    +0.000 A 
ATOM     13  C   UNL     1      -0.066  10.017  21.144  0.00  0.00    +0.000 A 
ATOM     14  C   UNL     1      -0.695  11.099  20.509  0.00  0.00    +0.000 A 
ATOM     15  C   UNL     1      -1.508  11.989  21.222  0.00  0.00    +0.000 A 
BRANCH  10  17
ATOM     16  O   UNL     1      -3.918  12.198  23.441  0.00  0.00    +0.000 OA
ATOM     17  C   UNL     1      -2.759  12.607  23.336  0.00  0.00    +0.000 C 
ATOM     18  N   UNL     1      -2.346  13.822  23.879  0.00  0.00    +0.000 N 
ATOM     19  C   UNL     1      -3.243  14.545  24.786  0.00  0.00    +0.000 C 
ATOM     20  C   UNL     1      -3.377  16.014  24.371  0.00  0.00    +0.000 C 
ATOM     21  O   UNL     1      -2.088  16.643  24.263  0.00  0.00    +0.000 OA
ATOM     22  C   UNL     1      -1.295  15.980  23.273  0.00  0.00    +0.000 C 
ATOM     23  C   UNL     1      -1.071  14.512  23.636  0.00  0.00    +0.000 C 
ENDBRANCH  10  17
ENDBRANCH   1  13
BRANCH   6  24
ATOM     24  C   UNL     1       3.710   4.037  18.500  0.00  0.00    +0.000 C 
BRANCH  24  25
ATOM     25  C   UNL     1       5.056   3.620  19.106  0.00  0.00    +0.000 C 
BRANCH  25  26
ATOM     26  N   UNL     1       6.188   4.371  18.500  0.00  0.00    +0.000 NA
ATOM     27  C   UNL     1       5.883   4.772  17.111  0.00  0.00    +0.000 C 
ATOM     28  C   UNL     1       6.732   5.875  16.547  0.00  0.00    +0.000 C 
ATOM     29  C   UNL     1       7.599   6.584  17.279  0.00  0.00    +0.000 C 
ATOM     30  C   UNL     1       7.749   6.317  18.745  0.00  0.00    +0.000 C 
ATOM     31  C   UNL     1       6.555   5.535  19.326  0.00  0.00    +0.000 C 
ENDBRANCH  25  26
ENDBRANCH  24  25
ENDBRANCH   6  24
TORSDOF 5
ENDMDL
MODEL 3
REMARK VINA RESULT:      -9.1      0.651      1.413
REMARK  Name = 
REMARK  5 active torsions:
REMARK  status: ('A' for Active; 'I' for Inactive)
REMARK    1  A    between atoms: C_2  and  C_3
REMARK    2  A    between atoms: C_6  and  C_7
REMARK    3  A    between atoms: C_12  and  C_13
REMARK    4  A    between atoms: C_13  and  C_14
REMARK    5  A    between atoms: C_14  and  N_15
REMARK                            x       y       z     vdW  Elec       q    Type
REMARK                         _______ _______ _______ _____ _____    ______ ____
ROOT
ATOM      1  C   UNL     1       0.769   8.961  20.934  0.00  0.00    +0.000 A 
ATOM      2  C   UNL     1       0.781   8.771  22.333  0.00  0.00    +0.000 A 
ATOM      3  C   UNL     1       0.116   9.620  23.217  0.00  0.00    +0.000 A 
ATOM      4  C   UNL     1      -0.544  10.698  22.650  0.00  0.00    +0.000 A 
ATOM      5  O   UNL     1      -1.242  11.615  23.353  0.00  0.00    +0.000 OA
ATOM      6  C   UNL     1      -1.766  12.515  22.471  0.00  0.00    +0.000 A 
ATOM      7  C   UNL     1      -1.375  12.174  21.187  0.00  0.00    +0.000 A 
ATOM      8  C   UNL     1      -0.586  10.981  21.296  0.00  0.00    +0.000 A 
ATOM      9  C   UNL     1       0.082  10.094  20.419  0.00  0.00    +0.000 A 
ENDROOT
BRANCH   1  13
ATOM     10  C   UNL     1       2.959   6.149  18.476  0.00  0.00    +0.000 A 
ATOM     11  C   UNL     1       2.481   5.768  19.728  0.00  0.00    +0.000 A 
ATOM     12  C   UNL     1       1.732   6.670  20.495  0.00  0.00    +0.000 A 
ATOM     13  C   UNL     1       1.467   7.984  20.056  0.00  0.00    +0.000 A 
ATOM     14  C   UNL     1       1.911   8.322  18.768  0.00  0.00    +0.000 A 
ATOM     15  C   UNL     1       2.602   7.403  17.971  0.00  0.00    +0.000 A 
BRANCH  10  17
ATOM     16  O   UNL     1       3.479   3.997  17.744  0.00  0.00    +0.000 OA
ATOM     17  C   UNL     1       3.803   5.187  17.713  0.00  0.00    +0.000 C 
ATOM     18  N   UNL     1       4.927   5.636  17.022  0.00  0.00    +0.000 N 
ATOM     19  C   UNL     1       5.634   4.715  16.126  0.00  0.00    +0.000 C 
ATOM     20  C   UNL     1       7.140   4.724  16.406  0.00  0.00    +0.000 C 
ATOM     21  O   UNL     1       7.672   6.059  16.345  0.00  0.00    +0.000 OA
ATOM     22  C   UNL     1       7.041   6.888  17.326  0.00  0.00    +0.000 C 
ATOM     23  C   UNL     1       5.533   6.973  17.091  0.00  0.00    +0.000 C 
ENDBRANCH  10  17
ENDBRANCH   1  13
BRANCH   6  24
ATOM     24  C   UNL     1      -2.634  13.526  23.134  0.00  0.00    +0.000 C 
BRANCH  24  25
ATOM     25  C   UNL     1      -3.670  13.000  24.134  0.00  0.00    +0.000 C 
BRANCH  25  26
ATOM     26  N   UNL     1      -4.871  12.452  23.446  0.00  0.00    +0.000 NA
ATOM     27  C   UNL     1      -6.079  12.594  24.286  0.00  0.00    +0.000 C 
ATOM     28  C   UNL     1      -7.392  12.486  23.564  0.00  0.00    +0.000 C 
ATOM     29  C   UNL     1      -7.498  12.435  22.231  0.00  0.00    +0.000 C 
ATOM     30  C   UNL     1      -6.274  12.510  21.371  0.00  0.00    +0.000 C 
ATOM     31  C   UNL     1      -5.058  13.079  22.126  0.00  0.00    +0.000 C 
ENDBRANCH  25  26
ENDBRANCH  24  25
ENDBRANCH   6  24
TORSDOF 5
ENDMDL
MODEL 4
REMARK VINA RESULT:      -9.0      0.835      1.123
REMARK  Name = 
REMARK  5 active torsions:
REMARK  status: ('A' for Active; 'I' for Inactive)
REMARK    1  A    between atoms: C_2  and  C_3
REMARK    2  A    between atoms: C_6  and  C_7
REMARK    3  A    between atoms: C_12  and  C_13
REMARK    4  A    between atoms: C_13  and  C_14
REMARK    5  A    between atoms: C_14  and  N_15
REMARK                            x       y       z     vdW  Elec       q    Type
REMARK                         _______ _______ _______ _____ _____    ______ ____
ROOT
ATOM      1  C   UNL     1       0.710   9.094  20.953  0.00  0.00    +0.000 A 
ATOM      2  C   UNL     1       0.658   8.891  22.349  0.00  0.00    +0.000 A 
ATOM      3  C   UNL     1      -0.123   9.674  23.199  0.00  0.00    +0.000 A 
ATOM      4  C   UNL     1      -0.834  10.702  22.601  0.00  0.00    +0.000 A 
ATOM      5  O   UNL     1      -1.642  11.553  23.268  0.00  0.00    +0.000 OA
ATOM      6  C   UNL     1      -2.186  12.417  22.364  0.00  0.00    +0.000 A 
ATOM      7  C   UNL     1      -1.698  12.122  21.102  0.00  0.00    +0.000 A 
ATOM      8  C   UNL     1      -0.822  10.995  21.249  0.00  0.00    +0.000 A 
ATOM      9  C   UNL     1      -0.037  10.173  20.406  0.00  0.00    +0.000 A 
ENDROOT
BRANCH   1  13
ATOM     10  C   UNL     1       2.948   6.398  18.410  0.00  0.00    +0.000 A 
ATOM     11  C   UNL     1       2.587   7.663  17.952  0.00  0.00    +0.000 A 
ATOM     12  C   UNL     1       1.904   8.546  18.798  0.00  0.00    +0.000 A 
ATOM     13  C   UNL     1       1.533   8.185  20.110  0.00  0.00    +0.000 A 
ATOM     14  C   UNL     1       1.959   6.928  20.566  0.00  0.00    +0.000 A 
ATOM     15  C   UNL     1       2.699   6.068  19.745  0.00  0.00    +0.000 A 
BRANCH  10  17
ATOM     16  O   UNL     1       3.098   4.357  17.292  0.00  0.00    +0.000 OA
ATOM     17  C   UNL     1       3.618   5.462  17.464  0.00  0.00    +0.000 C 
ATOM     18  N   UNL     1       4.802   5.835  16.831  0.00  0.00    +0.000 N 
ATOM     19  C   UNL     1       5.344   4.986  15.765  0.00  0.00    +0.000 C 
ATOM     20  C   UNL     1       6.830   4.694  15.997  0.00  0.00    +0.000 C 
ATOM     21  O   UNL     1       7.580   5.910  16.159  0.00  0.00    +0.000 OA
ATOM     22  C   UNL     1       7.097   6.642  17.290  0.00  0.00    +0.000 C 
ATOM     23  C   UNL     1       5.625   7.018  17.119  0.00  0.00    +0.000 C 
ENDBRANCH  10  17
ENDBRANCH   1  13
BRANCH   6  24
ATOM     24  C   UNL     1      -3.169  13.348  22.982  0.00  0.00    +0.000 C 
BRANCH  24  25
ATOM     25  C   UNL     1      -4.076  14.132  22.027  0.00  0.00    +0.000 C 
BRANCH  25  26
ATOM     26  N   UNL     1      -5.507  14.040  22.426  0.00  0.00    +0.000 NA
ATOM     27  C   UNL     1      -5.729  12.918  23.362  0.00  0.00    +0.000 C 
ATOM     28  C   UNL     1      -7.001  12.976  24.159  0.00  0.00    +0.000 C 
ATOM     29  C   UNL     1      -7.816  14.037  24.172  0.00  0.00    +0.000 C 
ATOM     30  C   UNL     1      -7.472  15.264  23.385  0.00  0.00    +0.000 C 
ATOM     31  C   UNL     1      -5.983  15.314  22.992  0.00  0.00    +0.000 C 
ENDBRANCH  25  26
ENDBRANCH  24  25
ENDBRANCH   6  24
TORSDOF 5
ENDMDL
MODEL 5
REMARK VINA RESULT:      -9.0      1.105      1.313
REMARK  Name = 
REMARK  5 active torsions:
REMARK  status: ('A' for Active; 'I' for Inactive)
REMARK    1  A    between atoms: C_2  and  C_3
REMARK    2  A    between atoms: C_6  and  C_7
REMARK    3  A    between atoms: C_12  and  C_13
REMARK    4  A    between atoms: C_13  and  C_14
REMARK    5  A    between atoms: C_14  and  N_15
REMARK                            x       y       z     vdW  Elec       q    Type
REMARK                         _______ _______ _______ _____ _____    ______ ____
ROOT
ATOM      1  C   UNL     1       0.742   9.127  20.888  0.00  0.00    +0.000 A 
ATOM      2  C   UNL     1       0.632   8.905  22.278  0.00  0.00    +0.000 A 
ATOM      3  C   UNL     1      -0.149   9.704  23.112  0.00  0.00    +0.000 A 
ATOM      4  C   UNL     1      -0.800  10.766  22.507  0.00  0.00    +0.000 A 
ATOM      5  O   UNL     1      -1.600  11.636  23.159  0.00  0.00    +0.000 OA
ATOM      6  C   UNL     1      -2.079  12.534  22.250  0.00  0.00    +0.000 A 
ATOM      7  C   UNL     1      -1.557  12.241  21.002  0.00  0.00    +0.000 A 
ATOM      8  C   UNL     1      -0.729  11.079  21.161  0.00  0.00    +0.000 A 
ATOM      9  C   UNL     1       0.056  10.242  20.333  0.00  0.00    +0.000 A 
ENDROOT
BRANCH   1  13
ATOM     10  C   UNL     1       2.967   6.379  18.391  0.00  0.00    +0.000 A 
ATOM     11  C   UNL     1       2.596   7.630  17.905  0.00  0.00    +0.000 A 
ATOM     12  C   UNL     1       1.918   8.531  18.736  0.00  0.00    +0.000 A 
ATOM     13  C   UNL     1       1.561   8.201  20.060  0.00  0.00    +0.000 A 
ATOM     14  C   UNL     1       1.997   6.958  20.542  0.00  0.00    +0.000 A 
ATOM     15  C   UNL     1       2.733   6.081  19.736  0.00  0.00    +0.000 A 
BRANCH  10  17
ATOM     16  O   UNL     1       3.100   4.321  17.301  0.00  0.00    +0.000 OA
ATOM     17  C   UNL     1       3.632   5.423  17.461  0.00  0.00    +0.000 C 
ATOM     18  N   UNL     1       4.824   5.773  16.831  0.00  0.00    +0.000 N 
ATOM     19  C   UNL     1       5.363   4.903  15.780  0.00  0.00    +0.000 C 
ATOM     20  C   UNL     1       6.844   4.598  16.025  0.00  0.00    +0.000 C 
ATOM     21  O   UNL     1       7.607   5.807  16.175  0.00  0.00    +0.000 OA
ATOM     22  C   UNL     1       7.125   6.560  17.293  0.00  0.00    +0.000 C 
ATOM     23  C   UNL     1       5.659   6.950  17.108  0.00  0.00    +0.000 C 
ENDBRANCH  10  17
ENDBRANCH   1  13
BRANCH   6  24
ATOM     24  C   UNL     1      -3.048  13.492  22.849  0.00  0.00    +0.000 C 
BRANCH  24  25
ATOM     25  C   UNL     1      -3.769  13.041  24.125  0.00  0.00    +0.000 C 
BRANCH  25  26
ATOM     26  N   UNL     1      -5.087  13.714  24.280  0.00  0.00    +0.000 NA
ATOM     27  C   UNL     1      -5.180  14.912  23.419  0.00  0.00    +0.000 C 
ATOM     28  C   UNL     1      -6.568  15.422  23.156  0.00  0.00    +0.000 C 
ATOM     29  C   UNL     1      -7.676  14.764  23.519  0.00  0.00    +0.000 C 
ATOM     30  C   UNL     1      -7.577  13.435  24.204  0.00  0.00    +0.000 C 
ATOM     31  C   UNL     1      -6.195  12.779  24.019  0.00  0.00    +0.000 C 
ENDBRANCH  25  26
ENDBRANCH  24  25
ENDBRANCH   6  24
TORSDOF 5
ENDMDL
MODEL 6
REMARK VINA RESULT:      -8.9      0.814      1.604
REMARK  Name = 
REMARK  5 active torsions:
REMARK  status: ('A' for Active; 'I' for Inactive)
REMARK    1  A    between atoms: C_2  and  C_3
REMARK    2  A    between atoms: C_6  and  C_7
REMARK    3  A    between atoms: C_12  and  C_13
REMARK    4  A    between atoms: C_13  and  C_14
REMARK    5  A    between atoms: C_14  and  N_15
REMARK                            x       y       z     vdW  Elec       q    Type
REMARK                         _______ _______ _______ _____ _____    ______ ____
ROOT
ATOM      1  C   UNL     1       0.436   9.721  20.010  0.00  0.00    +0.000 A 
ATOM      2  C   UNL     1      -0.058  10.755  19.187  0.00  0.00    +0.000 A 
ATOM      3  C   UNL     1      -0.881  11.774  19.664  0.00  0.00    +0.000 A 
ATOM      4  C   UNL     1      -1.225  11.705  21.004  0.00  0.00    +0.000 A 
ATOM      5  O   UNL     1      -2.008  12.607  21.634  0.00  0.00    +0.000 OA
ATOM      6  C   UNL     1      -2.119  12.231  22.941  0.00  0.00    +0.000 A 
ATOM      7  C   UNL     1      -1.411  11.058  23.139  0.00  0.00    +0.000 A 
ATOM      8  C   UNL     1      -0.815  10.715  21.879  0.00  0.00    +0.000 A 
ATOM      9  C   UNL     1       0.035   9.703  21.374  0.00  0.00    +0.000 A 
ENDROOT
BRANCH   1  13
ATOM     10  C   UNL     1       2.936   6.658  18.246  0.00  0.00    +0.000 A 
ATOM     11  C   UNL     1       2.539   7.763  17.496  0.00  0.00    +0.000 A 
ATOM     12  C   UNL     1       1.770   8.772  18.089  0.00  0.00    +0.000 A 
ATOM     13  C   UNL     1       1.346   8.695  19.432  0.00  0.00    +0.000 A 
ATOM     14  C   UNL     1       1.808   7.602  20.181  0.00  0.00    +0.000 A 
ATOM     15  C   UNL     1       2.632   6.625  19.610  0.00  0.00    +0.000 A 
BRANCH  10  17
ATOM     16  O   UNL     1       3.237   4.433  17.618  0.00  0.00    +0.000 OA
ATOM     17  C   UNL     1       3.701   5.574  17.567  0.00  0.00    +0.000 C 
ATOM     18  N   UNL     1       4.907   5.861  16.930  0.00  0.00    +0.000 N 
ATOM     19  C   UNL     1       5.548   4.828  16.109  0.00  0.00    +0.000 C 
ATOM     20  C   UNL     1       7.026   4.673  16.477  0.00  0.00    +0.000 C 
ATOM     21  O   UNL     1       7.716   5.933  16.404  0.00  0.00    +0.000 OA
ATOM     22  C   UNL     1       7.134   6.869  17.318  0.00  0.00    +0.000 C 
ATOM     23  C   UNL     1       5.662   7.120  16.991  0.00  0.00    +0.000 C 
ENDBRANCH  10  17
ENDBRANCH   1  13
BRANCH   6  24
ATOM     24  C   UNL     1      -2.892  13.210  23.753  0.00  0.00    +0.000 C 
BRANCH  24  25
ATOM     25  C   UNL     1      -4.121  13.842  23.091  0.00  0.00    +0.000 C 
BRANCH  25  26
ATOM     26  N   UNL     1      -5.185  12.835  22.831  0.00  0.00    +0.000 NA
ATOM     27  C   UNL     1      -6.269  12.931  23.831  0.00  0.00    +0.000 C 
ATOM     28  C   UNL     1      -7.571  12.290  23.447  0.00  0.00    +0.000 C 
ATOM     29  C   UNL     1      -7.822  11.805  22.225  0.00  0.00    +0.000 C 
ATOM     30  C   UNL     1      -6.789  11.905  21.145  0.00  0.00    +0.000 C 
ATOM     31  C   UNL     1      -5.709  12.957  21.459  0.00  0.00    +0.000 C 
ENDBRANCH  25  26
ENDBRANCH  24  25
ENDBRANCH   6  24
TORSDOF 5
ENDMDL
MODEL 7
REMARK VINA RESULT:      -8.9      0.603      1.119
REMARK  Name = 
REMARK  5 active torsions:
REMARK  status: ('A' for Active; 'I' for Inactive)
REMARK    1  A    between atoms: C_2  and  C_3
REMARK    2  A    between atoms: C_6  and  C_7
REMARK    3  A    between atoms: C_12  and  C_13
REMARK    4  A    between atoms: C_13  and  C_14
REMARK    5  A    between atoms: C_14  and  N_15
REMARK                            x       y       z     vdW  Elec       q    Type
REMARK                         _______ _______ _______ _____ _____    ______ ____
ROOT
ATOM      1  C   UNL     1       0.693   9.159  20.880  0.00  0.00    +0.000 A 
ATOM      2  C   UNL     1       0.605   8.962  22.274  0.00  0.00    +0.000 A 
ATOM      3  C   UNL     1      -0.186   9.759  23.103  0.00  0.00    +0.000 A 
ATOM      4  C   UNL     1      -0.869  10.793  22.485  0.00  0.00    +0.000 A 
ATOM      5  O   UNL     1      -1.683  11.657  23.130  0.00  0.00    +0.000 OA
ATOM      6  C   UNL     1      -2.193  12.524  22.209  0.00  0.00    +0.000 A 
ATOM      7  C   UNL     1      -1.679  12.219  20.961  0.00  0.00    +0.000 A 
ATOM      8  C   UNL     1      -0.822  11.081  21.133  0.00  0.00    +0.000 A 
ATOM      9  C   UNL     1      -0.027  10.247  20.311  0.00  0.00    +0.000 A 
ENDROOT
BRANCH   1  13
ATOM     10  C   UNL     1       2.955   6.418  18.408  0.00  0.00    +0.000 A 
ATOM     11  C   UNL     1       2.558   7.656  17.907  0.00  0.00    +0.000 A 
ATOM     12  C   UNL     1       1.868   8.555  18.730  0.00  0.00    +0.000 A 
ATOM     13  C   UNL     1       1.524   8.237  20.060  0.00  0.00    +0.000 A 
ATOM     14  C   UNL     1       1.985   7.009  20.557  0.00  0.00    +0.000 A 
ATOM     15  C   UNL     1       2.733   6.134  19.759  0.00  0.00    +0.000 A 
BRANCH  10  17
ATOM     16  O   UNL     1       3.125   4.345  17.353  0.00  0.00    +0.000 OA
ATOM     17  C   UNL     1       3.633   5.461  17.489  0.00  0.00    +0.000 C 
ATOM     18  N   UNL     1       4.810   5.828  16.839  0.00  0.00    +0.000 N 
ATOM     19  C   UNL     1       5.358   4.953  15.798  0.00  0.00    +0.000 C 
ATOM     20  C   UNL     1       6.848   4.685  16.033  0.00  0.00    +0.000 C 
ATOM     21  O   UNL     1       7.584   5.915  16.155  0.00  0.00    +0.000 OA
ATOM     22  C   UNL     1       7.097   6.676  17.265  0.00  0.00    +0.000 C 
ATOM     23  C   UNL     1       5.620   7.029  17.088  0.00  0.00    +0.000 C 
ENDBRANCH  10  17
ENDBRANCH   1  13
BRANCH   6  24
ATOM     24  C   UNL     1      -3.179  13.470  22.801  0.00  0.00    +0.000 C 
BRANCH  24  25
ATOM     25  C   UNL     1      -4.592  12.930  23.053  0.00  0.00    +0.000 C 
BRANCH  25  26
ATOM     26  N   UNL     1      -5.275  12.563  21.783  0.00  0.00    +0.000 NA
ATOM     27  C   UNL     1      -6.685  12.190  22.023  0.00  0.00    +0.000 C 
ATOM     28  C   UNL     1      -7.582  12.219  20.819  0.00  0.00    +0.000 C 
ATOM     29  C   UNL     1      -7.206  12.706  19.631  0.00  0.00    +0.000 C 
ATOM     30  C   UNL     1      -5.837  13.285  19.449  0.00  0.00    +0.000 C 
ATOM     31  C   UNL     1      -5.168  13.646  20.790  0.00  0.00    +0.000 C 
ENDBRANCH  25  26
ENDBRANCH  24  25
ENDBRANCH   6  24
TORSDOF 5
ENDMDL
MODEL 8
REMARK VINA RESULT:      -8.9      2.376     11.372
REMARK  Name = 
REMARK  5 active torsions:
REMARK  status: ('A' for Active; 'I' for Inactive)
REMARK    1  A    between atoms: C_2  and  C_3
REMARK    2  A    between atoms: C_6  and  C_7
REMARK    3  A    between atoms: C_12  and  C_13
REMARK    4  A    between atoms: C_13  and  C_14
REMARK    5  A    between atoms: C_14  and  N_15
REMARK                            x       y       z     vdW  Elec       q    Type
REMARK                         _______ _______ _______ _____ _____    ______ ____
ROOT
ATOM      1  C   UNL     1       0.802   9.155  20.200  0.00  0.00    +0.000 A 
ATOM      2  C   UNL     1       1.197   9.515  18.894  0.00  0.00    +0.000 A 
ATOM      3  C   UNL     1       1.936   8.669  18.067  0.00  0.00    +0.000 A 
ATOM      4  C   UNL     1       2.299   7.447  18.610  0.00  0.00    +0.000 A 
ATOM      5  O   UNL     1       3.008   6.506  17.952  0.00  0.00    +0.000 OA
ATOM      6  C   UNL     1       3.165   5.436  18.783  0.00  0.00    +0.000 A 
ATOM      7  C   UNL     1       2.561   5.711  19.998  0.00  0.00    +0.000 A 
ATOM      8  C   UNL     1       1.983   7.020  19.887  0.00  0.00    +0.000 A 
ATOM      9  C   UNL     1       1.217   7.889  20.700  0.00  0.00    +0.000 A 
ENDROOT
BRANCH   1  13
ATOM     10  C   UNL     1      -1.738  11.766  22.539  0.00  0.00    +0.000 A 
ATOM     11  C   UNL     1      -0.999  10.761  23.159  0.00  0.00    +0.000 A 
ATOM     12  C   UNL     1      -0.143   9.952  22.400  0.00  0.00    +0.000 A 
ATOM     13  C   UNL     1      -0.024  10.097  21.002  0.00  0.00    +0.000 A 
ATOM     14  C   UNL     1      -0.736  11.153  20.412  0.00  0.00    +0.000 A 
ATOM     15  C   UNL     1      -1.540  12.006  21.176  0.00  0.00    +0.000 A 
BRANCH  10  17
ATOM     16  O   UNL     1      -3.819  12.113  23.534  0.00  0.00    +0.000 OA
ATOM     17  C   UNL     1      -2.684  12.567  23.366  0.00  0.00    +0.000 C 
ATOM     18  N   UNL     1      -2.287  13.794  23.895  0.00  0.00    +0.000 N 
ATOM     19  C   UNL     1      -3.158  14.476  24.857  0.00  0.00    +0.000 C 
ATOM     20  C   UNL     1      -3.371  15.941  24.463  0.00  0.00    +0.000 C 
ATOM     21  O   UNL     1      -2.116  16.621  24.287  0.00  0.00    +0.000 OA
ATOM     22  C   UNL     1      -1.356  15.995  23.247  0.00  0.00    +0.000 C 
ATOM     23  C   UNL     1      -1.056  14.534  23.584  0.00  0.00    +0.000 C 
ENDBRANCH  10  17
ENDBRANCH   1  13
BRANCH   6  24
ATOM     24  C   UNL     1       3.860   4.296  18.124  0.00  0.00    +0.000 C 
BRANCH  24  25
ATOM     25  C   UNL     1       5.075   4.637  17.254  0.00  0.00    +0.000 C 
BRANCH  25  26
ATOM     26  N   UNL     1       5.899   5.719  17.858  0.00  0.00    +0.000 NA
ATOM     27  C   UNL     1       6.809   5.184  18.893  0.00  0.00    +0.000 C 
ATOM     28  C   UNL     1       7.966   6.067  19.263  0.00  0.00    +0.000 C 
ATOM     29  C   UNL     1       8.279   7.188  18.604  0.00  0.00    +0.000 C 
ATOM     30  C   UNL     1       7.477   7.614  17.413  0.00  0.00    +0.000 C 
ATOM     31  C   UNL     1       6.640   6.462  16.824  0.00  0.00    +0.000 C 
ENDBRANCH  25  26
ENDBRANCH  24  25
ENDBRANCH   6  24
TORSDOF 5
ENDMDL
MODEL 9
REMARK VINA RESULT:      -8.9      1.874     11.418
REMARK  Name = 
REMARK  5 active torsions:
REMARK  status: ('A' for Active; 'I' for Inactive)
REMARK    1  A    between atoms: C_2  and  C_3
REMARK    2  A    between atoms: C_6  and  C_7
REMARK    3  A    between atoms: C_12  and  C_13
REMARK    4  A    between atoms: C_13  and  C_14
REMARK    5  A    between atoms: C_14  and  N_15
REMARK                            x       y       z     vdW  Elec       q    Type
REMARK                         _______ _______ _______ _____ _____    ______ ____
ROOT
ATOM      1  C   UNL     1       1.030   9.296  20.044  0.00  0.00    +0.000 A 
ATOM      2  C   UNL     1       1.380   9.478  18.688  0.00  0.00    +0.000 A 
ATOM      3  C   UNL     1       2.013   8.493  17.931  0.00  0.00    +0.000 A 
ATOM      4  C   UNL     1       2.317   7.315  18.593  0.00  0.00    +0.000 A 
ATOM      5  O   UNL     1       2.924   6.255  18.016  0.00  0.00    +0.000 OA
ATOM      6  C   UNL     1       3.048   5.275  18.957  0.00  0.00    +0.000 A 
ATOM      7  C   UNL     1       2.530   5.728  20.158  0.00  0.00    +0.000 A 
ATOM      8  C   UNL     1       2.041   7.057  19.924  0.00  0.00    +0.000 A 
ATOM      9  C   UNL     1       1.381   8.066  20.665  0.00  0.00    +0.000 A 
ENDROOT
BRANCH   1  13
ATOM     10  C   UNL     1      -0.882  12.525  22.202  0.00  0.00    +0.000 A 
ATOM     11  C   UNL     1      -0.393  12.730  20.914  0.00  0.00    +0.000 A 
ATOM     12  C   UNL     1       0.181  11.667  20.205  0.00  0.00    +0.000 A 
ATOM     13  C   UNL     1       0.315  10.381  20.769  0.00  0.00    +0.000 A 
ATOM     14  C   UNL     1      -0.237  10.187  22.044  0.00  0.00    +0.000 A 
ATOM     15  C   UNL     1      -0.871  11.231  22.729  0.00  0.00    +0.000 A 
BRANCH  10  17
ATOM     16  O   UNL     1      -0.676  14.267  23.739  0.00  0.00    +0.000 OA
ATOM     17  C   UNL     1      -1.430  13.692  22.949  0.00  0.00    +0.000 C 
ATOM     18  N   UNL     1      -2.756  14.081  22.766  0.00  0.00    +0.000 N 
ATOM     19  C   UNL     1      -3.223  15.338  23.361  0.00  0.00    +0.000 C 
ATOM     20  C   UNL     1      -4.526  15.127  24.138  0.00  0.00    +0.000 C 
ATOM     21  O   UNL     1      -5.529  14.508  23.313  0.00  0.00    +0.000 OA
ATOM     22  C   UNL     1      -5.077  13.227  22.862  0.00  0.00    +0.000 C 
ATOM     23  C   UNL     1      -3.799  13.352  22.033  0.00  0.00    +0.000 C 
ENDBRANCH  10  17
ENDBRANCH   1  13
BRANCH   6  24
ATOM     24  C   UNL     1       3.626   4.021  18.401  0.00  0.00    +0.000 C 
BRANCH  24  25
ATOM     25  C   UNL     1       4.956   3.547  18.998  0.00  0.00    +0.000 C 
BRANCH  25  26
ATOM     26  N   UNL     1       6.110   4.302  18.438  0.00  0.00    +0.000 NA
ATOM     27  C   UNL     1       5.844   4.731  17.049  0.00  0.00    +0.000 C 
ATOM     28  C   UNL     1       6.716   5.839  16.530  0.00  0.00    +0.000 C 
ATOM     29  C   UNL     1       7.569   6.527  17.298  0.00  0.00    +0.000 C 
ATOM     30  C   UNL     1       7.678   6.230  18.762  0.00  0.00    +0.000 C 
ATOM     31  C   UNL     1       6.463   5.446  19.296  0.00  0.00    +0.000 C 
ENDBRANCH  25  26
ENDBRANCH  24  25
ENDBRANCH   6  24
TORSDOF 5
ENDMDL
