MODEL 1
REMARK VINA RESULT:      -7.2      0.000      0.000
REMARK  Name = 
REMARK  7 active torsions:
REMARK  status: ('A' for Active; 'I' for Inactive)
REMARK    1  A    between atoms: N_1  and  C_2
REMARK    2  A    between atoms: N_10  and  C_11
REMARK    3  A    between atoms: C_14  and  P_15
REMARK    4  A    between atoms: P_15  and  O_17
REMARK    5  A    between atoms: P_15  and  O_18
REMARK    6  A    between atoms: C_20  and  C_21
REMARK    7  A    between atoms: C_21  and  O_22
REMARK                            x       y       z     vdW  Elec       q    Type
REMARK                         _______ _______ _______ _____ _____    ______ ____
ROOT
ATOM      1  C   UNL     1       6.936   5.702  16.890  0.00  0.00    +0.000 C 
ATOM      2  C   UNL     1       5.921   6.847  16.982  0.00  0.00    +0.000 C 
ATOM      3  C   UNL     1       4.818   6.540  17.947  0.00  0.00    +0.000 C 
ATOM      4  C   UNL     1       4.834   5.484  18.785  0.00  0.00    +0.000 C 
ATOM      5  O   UNL     1       5.910   4.605  18.875  0.00  0.00    +0.000 OA
ATOM      6  C   UNL     1       7.140   5.052  18.273  0.00  0.00    +0.000 C 
ENDROOT
BRANCH   1  15
ATOM      7  C   UNL     1       6.480   3.561  12.553  0.00  0.00    +0.000 A 
ATOM      8  N   UNL     1       7.363   4.370  11.926  0.00  0.00    +0.000 NA
ATOM      9  C   UNL     1       7.980   5.326  12.655  0.00  0.00    +0.000 A 
ATOM     10  N   UNL     1       7.847   5.603  13.970  0.00  0.00    +0.000 NA
ATOM     11  C   UNL     1       6.977   4.759  14.549  0.00  0.00    +0.000 A 
ATOM     12  C   UNL     1       6.279   3.732  13.932  0.00  0.00    +0.000 A 
ATOM     13  N   UNL     1       5.498   3.052  14.837  0.00  0.00    +0.000 NA
ATOM     14  C   UNL     1       5.705   3.667  15.983  0.00  0.00    +0.000 A 
ATOM     15  N   UNL     1       6.568   4.727  15.859  0.00  0.00    +0.000 N 
BRANCH   7  16
ATOM     16  N   UNL     1       5.821   2.589  11.811  0.00  0.00    +0.000 N 
ATOM     17  H   UNL     1       5.989   2.679  10.818  0.00  0.00    +0.000 HD
ATOM     18  H   UNL     1       5.882   1.664  12.223  0.00  0.00    +0.000 HD
ENDBRANCH   7  16
ENDBRANCH   1  15
BRANCH   4  19
ATOM     19  P   UNL     1       3.361   5.175  19.827  0.00  0.00    +0.000 P 
ATOM     20  O   UNL     1       2.364   5.318  18.665  0.00  0.00    +0.000 OA
BRANCH  19  21
ATOM     21  O   UNL     1       3.680   3.569  19.895  0.00  0.00    +0.000 OA
ATOM     22  H   UNL     1       4.411   3.424  20.525  0.00  0.00    +0.000 HD
ENDBRANCH  19  21
BRANCH  19  23
ATOM     23  O   UNL     1       1.969   4.885  20.812  0.00  0.00    +0.000 OA
ATOM     24  H   UNL     1       1.777   3.938  20.661  0.00  0.00    +0.000 HD
ENDBRANCH  19  23
ENDBRANCH   4  19
BRANCH   6  25
ATOM     25  C   UNL     1       7.864   5.975  19.274  0.00  0.00    +0.000 C 
BRANCH  25  26
ATOM     26  O   UNL     1       8.003   5.371  20.551  0.00  0.00    +0.000 OA
ATOM     27  H   UNL     1       8.144   4.417  20.416  0.00  0.00    +0.000 HD
ENDBRANCH  25  26
ENDBRANCH   6  25
TORSDOF 7
ENDMDL
MODEL 2
REMARK VINA RESULT:      -6.8      4.731      7.208
REMARK  Name = 
REMARK  7 active torsions:
REMARK  status: ('A' for Active; 'I' for Inactive)
REMARK    1  A    between atoms: N_1  and  C_2
REMARK    2  A    between atoms: N_10  and  C_11
REMARK    3  A    between atoms: C_14  and  P_15
REMARK    4  A    between atoms: P_15  and  O_17
REMARK    5  A    between atoms: P_15  and  O_18
REMARK    6  A    between atoms: C_20  and  C_21
REMARK    7  A    between atoms: C_21  and  O_22
REMARK                            x       y       z     vdW  Elec       q    Type
REMARK                         _______ _______ _______ _____ _____    ______ ____
ROOT
ATOM      1  C   UNL     1       2.767   5.616  18.896  0.00  0.00    +0.000 C 
ATOM      2  C   UNL     1       2.581   4.812  17.604  0.00  0.00    +0.000 C 
ATOM      3  C   UNL     1       3.834   4.771  16.786  0.00  0.00    +0.000 C 
ATOM      4  C   UNL     1       5.030   5.205  17.233  0.00  0.00    +0.000 C 
ATOM      5  O   UNL     1       5.228   5.681  18.526  0.00  0.00    +0.000 OA
ATOM      6  C   UNL     1       4.180   5.390  19.471  0.00  0.00    +0.000 C 
ENDROOT
BRANCH   1  15
ATOM      7  C   UNL     1       0.981  10.066  19.672  0.00  0.00    +0.000 A 
ATOM      8  N   UNL     1       0.627   9.832  20.955  0.00  0.00    +0.000 NA
ATOM      9  C   UNL     1       0.896   8.615  21.478  0.00  0.00    +0.000 A 
ATOM     10  N   UNL     1       1.494   7.557  20.890  0.00  0.00    +0.000 NA
ATOM     11  C   UNL     1       1.844   7.848  19.626  0.00  0.00    +0.000 A 
ATOM     12  C   UNL     1       1.640   9.049  18.964  0.00  0.00    +0.000 A 
ATOM     13  N   UNL     1       2.153   9.002  17.689  0.00  0.00    +0.000 NA
ATOM     14  C   UNL     1       2.645   7.786  17.572  0.00  0.00    +0.000 A 
ATOM     15  N   UNL     1       2.457   7.036  18.706  0.00  0.00    +0.000 N 
BRANCH   7  16
ATOM     16  N   UNL     1       0.690  11.305  19.115  0.00  0.00    +0.000 N 
ATOM     17  H   UNL     1       0.510  12.012  19.814  0.00  0.00    +0.000 HD
ATOM     18  H   UNL     1       1.297  11.545  18.338  0.00  0.00    +0.000 HD
ENDBRANCH   7  16
ENDBRANCH   1  15
BRANCH   4  19
ATOM     19  P   UNL     1       6.449   5.196  16.076  0.00  0.00    +0.000 P 
ATOM     20  O   UNL     1       6.911   6.615  16.447  0.00  0.00    +0.000 OA
BRANCH  19  21
ATOM     21  O   UNL     1       7.315   4.215  17.062  0.00  0.00    +0.000 OA
ATOM     22  H   UNL     1       8.257   4.278  16.814  0.00  0.00    +0.000 HD
ENDBRANCH  19  21
BRANCH  19  23
ATOM     23  O   UNL     1       7.788   5.188  14.981  0.00  0.00    +0.000 OA
ATOM     24  H   UNL     1       8.308   5.972  15.252  0.00  0.00    +0.000 HD
ENDBRANCH  19  23
ENDBRANCH   4  19
BRANCH   6  25
ATOM     25  C   UNL     1       4.393   3.961  20.009  0.00  0.00    +0.000 C 
BRANCH  25  26
ATOM     26  O   UNL     1       5.527   3.336  19.428  0.00  0.00    +0.000 OA
ATOM     27  H   UNL     1       5.453   3.423  18.461  0.00  0.00    +0.000 HD
ENDBRANCH  25  26
ENDBRANCH   6  25
TORSDOF 7
ENDMDL
MODEL 3
REMARK VINA RESULT:      -6.8      4.131      5.980
REMARK  Name = 
REMARK  7 active torsions:
REMARK  status: ('A' for Active; 'I' for Inactive)
REMARK    1  A    between atoms: N_1  and  C_2
REMARK    2  A    between atoms: N_10  and  C_11
REMARK    3  A    between atoms: C_14  and  P_15
REMARK    4  A    between atoms: P_15  and  O_17
REMARK    5  A    between atoms: P_15  and  O_18
REMARK    6  A    between atoms: C_20  and  C_21
REMARK    7  A    between atoms: C_21  and  O_22
REMARK                            x       y       z     vdW  Elec       q    Type
REMARK                         _______ _______ _______ _____ _____    ______ ____
ROOT
ATOM      1  C   UNL     1       6.127   5.869  18.406  0.00  0.00    +0.000 C 
ATOM      2  C   UNL     1       7.017   4.677  18.035  0.00  0.00    +0.000 C 
ATOM      3  C   UNL     1       7.102   4.482  16.553  0.00  0.00    +0.000 C 
ATOM      4  C   UNL     1       6.629   5.372  15.657  0.00  0.00    +0.000 C 
ATOM      5  O   UNL     1       6.067   6.592  16.024  0.00  0.00    +0.000 OA
ATOM      6  C   UNL     1       6.303   7.009  17.382  0.00  0.00    +0.000 C 
ENDROOT
BRANCH   1  15
ATOM      7  C   UNL     1       2.202   3.174  19.372  0.00  0.00    +0.000 A 
ATOM      8  N   UNL     1       2.888   2.169  19.961  0.00  0.00    +0.000 NA
ATOM      9  C   UNL     1       4.230   2.292  20.070  0.00  0.00    +0.000 A 
ATOM     10  N   UNL     1       5.020   3.311  19.668  0.00  0.00    +0.000 NA
ATOM     11  C   UNL     1       4.289   4.290  19.110  0.00  0.00    +0.000 A 
ATOM     12  C   UNL     1       2.913   4.305  18.939  0.00  0.00    +0.000 A 
ATOM     13  N   UNL     1       2.501   5.481  18.358  0.00  0.00    +0.000 NA
ATOM     14  C   UNL     1       3.610   6.163  18.163  0.00  0.00    +0.000 A 
ATOM     15  N   UNL     1       4.725   5.475  18.573  0.00  0.00    +0.000 N 
BRANCH   7  16
ATOM     16  N   UNL     1       0.826   3.051  19.231  0.00  0.00    +0.000 N 
ATOM     17  H   UNL     1       0.516   2.090  19.276  0.00  0.00    +0.000 HD
ATOM     18  H   UNL     1       0.308   3.743  19.761  0.00  0.00    +0.000 HD
ENDBRANCH   7  16
ENDBRANCH   1  15
BRANCH   4  19
ATOM     19  P   UNL     1       6.704   4.942  13.879  0.00  0.00    +0.000 P 
ATOM     20  O   UNL     1       8.210   5.222  13.754  0.00  0.00    +0.000 OA
BRANCH  19  21
ATOM     21  O   UNL     1       6.613   3.339  14.209  0.00  0.00    +0.000 OA
ATOM     22  H   UNL     1       7.222   2.864  13.612  0.00  0.00    +0.000 HD
ENDBRANCH  19  21
BRANCH  19  23
ATOM     23  O   UNL     1       6.773   4.536  12.199  0.00  0.00    +0.000 OA
ATOM     24  H   UNL     1       7.017   5.382  11.771  0.00  0.00    +0.000 HD
ENDBRANCH  19  23
ENDBRANCH   4  19
BRANCH   6  25
ATOM     25  C   UNL     1       7.691   7.677  17.453  0.00  0.00    +0.000 C 
BRANCH  25  26
ATOM     26  O   UNL     1       8.315   7.477  18.712  0.00  0.00    +0.000 OA
ATOM     27  H   UNL     1       7.965   6.651  19.091  0.00  0.00    +0.000 HD
ENDBRANCH  25  26
ENDBRANCH   6  25
TORSDOF 7
ENDMDL
MODEL 4
REMARK VINA RESULT:      -6.8      4.202      6.018
REMARK  Name = 
REMARK  7 active torsions:
REMARK  status: ('A' for Active; 'I' for Inactive)
REMARK    1  A    between atoms: N_1  and  C_2
REMARK    2  A    between atoms: N_10  and  C_11
REMARK    3  A    between atoms: C_14  and  P_15
REMARK    4  A    between atoms: P_15  and  O_17
REMARK    5  A    between atoms: P_15  and  O_18
REMARK    6  A    between atoms: C_20  and  C_21
REMARK    7  A    between atoms: C_21  and  O_22
REMARK                            x       y       z     vdW  Elec       q    Type
REMARK                         _______ _______ _______ _____ _____    ______ ____
ROOT
ATOM      1  C   UNL     1       6.118   6.006  18.428  0.00  0.00    +0.000 C 
ATOM      2  C   UNL     1       7.029   4.781  18.289  0.00  0.00    +0.000 C 
ATOM      3  C   UNL     1       7.106   4.300  16.873  0.00  0.00    +0.000 C 
ATOM      4  C   UNL     1       6.609   4.987  15.825  0.00  0.00    +0.000 C 
ATOM      5  O   UNL     1       6.025   6.245  15.952  0.00  0.00    +0.000 OA
ATOM      6  C   UNL     1       6.263   6.926  17.198  0.00  0.00    +0.000 C 
ENDROOT
BRANCH   1  15
ATOM      7  C   UNL     1       2.227   3.330  19.565  0.00  0.00    +0.000 A 
ATOM      8  N   UNL     1       2.935   2.285  20.046  0.00  0.00    +0.000 NA
ATOM      9  C   UNL     1       4.284   2.379  20.055  0.00  0.00    +0.000 A 
ATOM     10  N   UNL     1       5.061   3.404  19.644  0.00  0.00    +0.000 NA
ATOM     11  C   UNL     1       4.309   4.423  19.196  0.00  0.00    +0.000 A 
ATOM     12  C   UNL     1       2.924   4.470  19.135  0.00  0.00    +0.000 A 
ATOM     13  N   UNL     1       2.492   5.681  18.648  0.00  0.00    +0.000 NA
ATOM     14  C   UNL     1       3.597   6.354  18.401  0.00  0.00    +0.000 A 
ATOM     15  N   UNL     1       4.726   5.627  18.686  0.00  0.00    +0.000 N 
BRANCH   7  16
ATOM     16  N   UNL     1       0.841   3.237  19.528  0.00  0.00    +0.000 N 
ATOM     17  H   UNL     1       0.460   3.483  18.625  0.00  0.00    +0.000 HD
ATOM     18  H   UNL     1       0.485   2.404  19.985  0.00  0.00    +0.000 HD
ENDBRANCH   7  16
ENDBRANCH   1  15
BRANCH   4  19
ATOM     19  P   UNL     1       6.678   4.217  14.166  0.00  0.00    +0.000 P 
ATOM     20  O   UNL     1       5.193   4.468  13.858  0.00  0.00    +0.000 OA
BRANCH  19  21
ATOM     21  O   UNL     1       7.450   5.517  13.536  0.00  0.00    +0.000 OA
ATOM     22  H   UNL     1       6.874   5.925  12.861  0.00  0.00    +0.000 HD
ENDBRANCH  19  21
BRANCH  19  23
ATOM     23  O   UNL     1       6.744   3.487  12.599  0.00  0.00    +0.000 OA
ATOM     24  H   UNL     1       5.822   3.197  12.444  0.00  0.00    +0.000 HD
ENDBRANCH  19  23
ENDBRANCH   4  19
BRANCH   6  25
ATOM     25  C   UNL     1       7.638   7.619  17.120  0.00  0.00    +0.000 C 
BRANCH  25  26
ATOM     26  O   UNL     1       7.624   8.900  17.731  0.00  0.00    +0.000 OA
ATOM     27  H   UNL     1       8.350   8.929  18.379  0.00  0.00    +0.000 HD
ENDBRANCH  25  26
ENDBRANCH   6  25
TORSDOF 7
ENDMDL
MODEL 5
REMARK VINA RESULT:      -6.8      0.917      1.079
REMARK  Name = 
REMARK  7 active torsions:
REMARK  status: ('A' for Active; 'I' for Inactive)
REMARK    1  A    between atoms: N_1  and  C_2
REMARK    2  A    between atoms: N_10  and  C_11
REMARK    3  A    between atoms: C_14  and  P_15
REMARK    4  A    between atoms: P_15  and  O_17
REMARK    5  A    between atoms: P_15  and  O_18
REMARK    6  A    between atoms: C_20  and  C_21
REMARK    7  A    between atoms: C_21  and  O_22
REMARK                            x       y       z     vdW  Elec       q    Type
REMARK                         _______ _______ _______ _____ _____    ______ ____
ROOT
ATOM      1  C   UNL     1       6.413   5.709  16.967  0.00  0.00    +0.000 C 
ATOM      2  C   UNL     1       5.140   6.373  17.503  0.00  0.00    +0.000 C 
ATOM      3  C   UNL     1       4.488   5.549  18.570  0.00  0.00    +0.000 C 
ATOM      4  C   UNL     1       5.065   4.469  19.134  0.00  0.00    +0.000 C 
ATOM      5  O   UNL     1       6.354   4.047  18.820  0.00  0.00    +0.000 OA
ATOM      6  C   UNL     1       7.169   4.996  18.107  0.00  0.00    +0.000 C 
ENDROOT
BRANCH   1  15
ATOM      7  C   UNL     1       6.511   3.785  12.507  0.00  0.00    +0.000 A 
ATOM      8  N   UNL     1       7.575   4.505  12.088  0.00  0.00    +0.000 NA
ATOM      9  C   UNL     1       8.152   5.357  12.964  0.00  0.00    +0.000 A 
ATOM     10  N   UNL     1       7.817   5.603  14.249  0.00  0.00    +0.000 NA
ATOM     11  C   UNL     1       6.770   4.847  14.621  0.00  0.00    +0.000 A 
ATOM     12  C   UNL     1       6.086   3.931  13.837  0.00  0.00    +0.000 A 
ATOM     13  N   UNL     1       5.086   3.317  14.554  0.00  0.00    +0.000 NA
ATOM     14  C   UNL     1       5.150   3.864  15.750  0.00  0.00    +0.000 A 
ATOM     15  N   UNL     1       6.133   4.819  15.836  0.00  0.00    +0.000 N 
BRANCH   7  16
ATOM     16  N   UNL     1       5.893   2.923  11.610  0.00  0.00    +0.000 N 
ATOM     17  H   UNL     1       5.915   3.270  10.661  0.00  0.00    +0.000 HD
ATOM     18  H   UNL     1       6.129   1.949  11.767  0.00  0.00    +0.000 HD
ENDBRANCH   7  16
ENDBRANCH   1  15
BRANCH   4  19
ATOM     19  P   UNL     1       4.096   3.497  20.346  0.00  0.00    +0.000 P 
ATOM     20  O   UNL     1       2.877   3.339  19.422  0.00  0.00    +0.000 OA
BRANCH  19  21
ATOM     21  O   UNL     1       4.994   2.155  20.067  0.00  0.00    +0.000 OA
ATOM     22  H   UNL     1       4.631   1.421  20.599  0.00  0.00    +0.000 HD
ENDBRANCH  19  21
BRANCH  19  23
ATOM     23  O   UNL     1       3.180   2.580  21.491  0.00  0.00    +0.000 OA
ATOM     24  H   UNL     1       2.314   3.034  21.506  0.00  0.00    +0.000 HD
ENDBRANCH  19  23
ENDBRANCH   4  19
BRANCH   6  25
ATOM     25  C   UNL     1       7.785   5.974  19.128  0.00  0.00    +0.000 C 
BRANCH  25  26
ATOM     26  O   UNL     1       8.011   5.357  20.386  0.00  0.00    +0.000 OA
ATOM     27  H   UNL     1       7.171   5.367  20.879  0.00  0.00    +0.000 HD
ENDBRANCH  25  26
ENDBRANCH   6  25
TORSDOF 7
ENDMDL
MODEL 6
REMARK VINA RESULT:      -6.8      4.753      7.316
REMARK  Name = 
REMARK  7 active torsions:
REMARK  status: ('A' for Active; 'I' for Inactive)
REMARK    1  A    between atoms: N_1  and  C_2
REMARK    2  A    between atoms: N_10  and  C_11
REMARK    3  A    between atoms: C_14  and  P_15
REMARK    4  A    between atoms: P_15  and  O_17
REMARK    5  A    between atoms: P_15  and  O_18
REMARK    6  A    between atoms: C_20  and  C_21
REMARK    7  A    between atoms: C_21  and  O_22
REMARK                            x       y       z     vdW  Elec       q    Type
REMARK                         _______ _______ _______ _____ _____    ______ ____
ROOT
ATOM      1  C   UNL     1       2.214   5.849  19.067  0.00  0.00    +0.000 C 
ATOM      2  C   UNL     1       2.207   4.962  17.818  0.00  0.00    +0.000 C 
ATOM      3  C   UNL     1       3.591   4.698  17.312  0.00  0.00    +0.000 C 
ATOM      4  C   UNL     1       4.708   5.024  17.993  0.00  0.00    +0.000 C 
ATOM      5  O   UNL     1       4.681   5.586  19.267  0.00  0.00    +0.000 OA
ATOM      6  C   UNL     1       3.422   5.508  19.962  0.00  0.00    +0.000 C 
ENDROOT
BRANCH   1  15
ATOM      7  C   UNL     1       1.140  10.581  19.308  0.00  0.00    +0.000 A 
ATOM      8  N   UNL     1       0.686  10.538  20.580  0.00  0.00    +0.000 NA
ATOM      9  C   UNL     1       0.725   9.353  21.230  0.00  0.00    +0.000 A 
ATOM     10  N   UNL     1       1.172   8.159  20.783  0.00  0.00    +0.000 NA
ATOM     11  C   UNL     1       1.631   8.262  19.525  0.00  0.00    +0.000 A 
ATOM     12  C   UNL     1       1.660   9.406  18.742  0.00  0.00    +0.000 A 
ATOM     13  N   UNL     1       2.224   9.150  17.515  0.00  0.00    +0.000 NA
ATOM     14  C   UNL     1       2.517   7.866  17.544  0.00  0.00    +0.000 A 
ATOM     15  N   UNL     1       2.151   7.274  18.727  0.00  0.00    +0.000 N 
BRANCH   7  16
ATOM     16  N   UNL     1       1.085  11.787  18.620  0.00  0.00    +0.000 N 
ATOM     17  H   UNL     1       1.979  12.255  18.586  0.00  0.00    +0.000 HD
ATOM     18  H   UNL     1       0.542  11.733  17.764  0.00  0.00    +0.000 HD
ENDBRANCH   7  16
ENDBRANCH   1  15
BRANCH   4  19
ATOM     19  P   UNL     1       6.330   4.742  17.194  0.00  0.00    +0.000 P 
ATOM     20  O   UNL     1       7.040   4.356  18.502  0.00  0.00    +0.000 OA
BRANCH  19  21
ATOM     21  O   UNL     1       5.832   3.314  16.565  0.00  0.00    +0.000 OA
ATOM     22  H   UNL     1       6.225   3.210  15.677  0.00  0.00    +0.000 HD
ENDBRANCH  19  21
BRANCH  19  23
ATOM     23  O   UNL     1       7.864   4.477  16.438  0.00  0.00    +0.000 OA
ATOM     24  H   UNL     1       8.376   5.276  16.676  0.00  0.00    +0.000 HD
ENDBRANCH  19  23
ENDBRANCH   4  19
BRANCH   6  25
ATOM     25  C   UNL     1       3.315   4.118  20.620  0.00  0.00    +0.000 C 
BRANCH  25  26
ATOM     26  O   UNL     1       2.204   4.029  21.500  0.00  0.00    +0.000 OA
ATOM     27  H   UNL     1       2.049   4.914  21.875  0.00  0.00    +0.000 HD
ENDBRANCH  25  26
ENDBRANCH   6  25
TORSDOF 7
ENDMDL
MODEL 7
REMARK VINA RESULT:      -6.6      4.154      6.312
REMARK  Name = 
REMARK  7 active torsions:
REMARK  status: ('A' for Active; 'I' for Inactive)
REMARK    1  A    between atoms: N_1  and  C_2
REMARK    2  A    between atoms: N_10  and  C_11
REMARK    3  A    between atoms: C_14  and  P_15
REMARK    4  A    between atoms: P_15  and  O_17
REMARK    5  A    between atoms: P_15  and  O_18
REMARK    6  A    between atoms: C_20  and  C_21
REMARK    7  A    between atoms: C_21  and  O_22
REMARK                            x       y       z     vdW  Elec       q    Type
REMARK                         _______ _______ _______ _____ _____    ______ ____
ROOT
ATOM      1  C   UNL     1       6.013   5.578  18.630  0.00  0.00    +0.000 C 
ATOM      2  C   UNL     1       7.270   4.766  18.299  0.00  0.00    +0.000 C 
ATOM      3  C   UNL     1       7.292   4.332  16.866  0.00  0.00    +0.000 C 
ATOM      4  C   UNL     1       6.424   4.782  15.938  0.00  0.00    +0.000 C 
ATOM      5  O   UNL     1       5.454   5.743  16.210  0.00  0.00    +0.000 OA
ATOM      6  C   UNL     1       5.623   6.475  17.439  0.00  0.00    +0.000 C 
ENDROOT
BRANCH   1  15
ATOM      7  C   UNL     1       1.777   4.182  20.557  0.00  0.00    +0.000 A 
ATOM      8  N   UNL     1       1.264   5.430  20.638  0.00  0.00    +0.000 NA
ATOM      9  C   UNL     1       2.015   6.458  20.184  0.00  0.00    +0.000 A 
ATOM     10  N   UNL     1       3.249   6.425  19.634  0.00  0.00    +0.000 NA
ATOM     11  C   UNL     1       3.703   5.163  19.558  0.00  0.00    +0.000 A 
ATOM     12  C   UNL     1       3.043   4.016  19.974  0.00  0.00    +0.000 A 
ATOM     13  N   UNL     1       3.795   2.894  19.715  0.00  0.00    +0.000 NA
ATOM     14  C   UNL     1       4.900   3.352  19.166  0.00  0.00    +0.000 A 
ATOM     15  N   UNL     1       4.910   4.722  19.075  0.00  0.00    +0.000 N 
BRANCH   7  16
ATOM     16  N   UNL     1       1.026   3.119  21.041  0.00  0.00    +0.000 N 
ATOM     17  H   UNL     1       0.091   3.100  20.659  0.00  0.00    +0.000 HD
ATOM     18  H   UNL     1       1.545   2.248  21.076  0.00  0.00    +0.000 HD
ENDBRANCH   7  16
ENDBRANCH   1  15
BRANCH   4  19
ATOM     19  P   UNL     1       6.505   4.073  14.252  0.00  0.00    +0.000 P 
ATOM     20  O   UNL     1       5.039   4.393  13.919  0.00  0.00    +0.000 OA
BRANCH  19  21
ATOM     21  O   UNL     1       7.341   5.366  13.691  0.00  0.00    +0.000 OA
ATOM     22  H   UNL     1       6.717   6.103  13.551  0.00  0.00    +0.000 HD
ENDBRANCH  19  21
BRANCH  19  23
ATOM     23  O   UNL     1       6.582   3.401  12.659  0.00  0.00    +0.000 OA
ATOM     24  H   UNL     1       7.165   4.023  12.178  0.00  0.00    +0.000 HD
ENDBRANCH  19  23
ENDBRANCH   4  19
BRANCH   6  25
ATOM     25  C   UNL     1       6.626   7.620  17.189  0.00  0.00    +0.000 C 
BRANCH  25  26
ATOM     26  O   UNL     1       7.721   7.575  18.091  0.00  0.00    +0.000 OA
ATOM     27  H   UNL     1       7.362   7.518  18.994  0.00  0.00    +0.000 HD
ENDBRANCH  25  26
ENDBRANCH   6  25
TORSDOF 7
ENDMDL
MODEL 8
REMARK VINA RESULT:      -6.6      3.912      6.240
REMARK  Name = 
REMARK  7 active torsions:
REMARK  status: ('A' for Active; 'I' for Inactive)
REMARK    1  A    between atoms: N_1  and  C_2
REMARK    2  A    between atoms: N_10  and  C_11
REMARK    3  A    between atoms: C_14  and  P_15
REMARK    4  A    between atoms: P_15  and  O_17
REMARK    5  A    between atoms: P_15  and  O_18
REMARK    6  A    between atoms: C_20  and  C_21
REMARK    7  A    between atoms: C_21  and  O_22
REMARK                            x       y       z     vdW  Elec       q    Type
REMARK                         _______ _______ _______ _____ _____    ______ ____
ROOT
ATOM      1  C   UNL     1       4.517   4.164  16.722  0.00  0.00    +0.000 C 
ATOM      2  C   UNL     1       4.039   5.609  16.543  0.00  0.00    +0.000 C 
ATOM      3  C   UNL     1       5.075   6.598  16.980  0.00  0.00    +0.000 C 
ATOM      4  C   UNL     1       6.344   6.261  17.288  0.00  0.00    +0.000 C 
ATOM      5  O   UNL     1       6.832   4.962  17.173  0.00  0.00    +0.000 OA
ATOM      6  C   UNL     1       6.022   4.052  16.404  0.00  0.00    +0.000 C 
ENDROOT
BRANCH   1  15
ATOM      7  C   UNL     1       1.914   2.702  20.555  0.00  0.00    +0.000 A 
ATOM      8  N   UNL     1       0.730   2.707  19.906  0.00  0.00    +0.000 NA
ATOM      9  C   UNL     1       0.722   3.045  18.597  0.00  0.00    +0.000 A 
ATOM     10  N   UNL     1       1.763   3.387  17.807  0.00  0.00    +0.000 NA
ATOM     11  C   UNL     1       2.916   3.346  18.494  0.00  0.00    +0.000 A 
ATOM     12  C   UNL     1       3.076   3.011  19.830  0.00  0.00    +0.000 A 
ATOM     13  N   UNL     1       4.402   3.046  20.192  0.00  0.00    +0.000 NA
ATOM     14  C   UNL     1       5.037   3.413  19.098  0.00  0.00    +0.000 A 
ATOM     15  N   UNL     1       4.181   3.636  18.048  0.00  0.00    +0.000 N 
BRANCH   7  16
ATOM     16  N   UNL     1       1.934   2.380  21.906  0.00  0.00    +0.000 N 
ATOM     17  H   UNL     1       1.021   2.128  22.258  0.00  0.00    +0.000 HD
ATOM     18  H   UNL     1       2.722   1.795  22.165  0.00  0.00    +0.000 HD
ENDBRANCH   7  16
ENDBRANCH   1  15
BRANCH   4  19
ATOM     19  P   UNL     1       7.465   7.565  17.915  0.00  0.00    +0.000 P 
ATOM     20  O   UNL     1       8.191   6.632  18.899  0.00  0.00    +0.000 OA
BRANCH  19  21
ATOM     21  O   UNL     1       8.376   7.510  16.555  0.00  0.00    +0.000 OA
ATOM     22  H   UNL     1       9.268   7.190  16.790  0.00  0.00    +0.000 HD
ENDBRANCH  19  21
BRANCH  19  23
ATOM     23  O   UNL     1       8.523   8.798  18.509  0.00  0.00    +0.000 OA
ATOM     24  H   UNL     1       9.335   8.306  18.747  0.00  0.00    +0.000 HD
ENDBRANCH  19  23
ENDBRANCH   4  19
BRANCH   6  25
ATOM     25  C   UNL     1       6.342   4.259  14.910  0.00  0.00    +0.000 C 
BRANCH  25  26
ATOM     26  O   UNL     1       7.468   5.101  14.718  0.00  0.00    +0.000 OA
ATOM     27  H   UNL     1       8.217   4.541  14.447  0.00  0.00    +0.000 HD
ENDBRANCH  25  26
ENDBRANCH   6  25
TORSDOF 7
ENDMDL
MODEL 9
REMARK VINA RESULT:      -6.5      4.291      6.801
REMARK  Name = 
REMARK  7 active torsions:
REMARK  status: ('A' for Active; 'I' for Inactive)
REMARK    1  A    between atoms: N_1  and  C_2
REMARK    2  A    between atoms: N_10  and  C_11
REMARK    3  A    between atoms: C_14  and  P_15
REMARK    4  A    between atoms: P_15  and  O_17
REMARK    5  A    between atoms: P_15  and  O_18
REMARK    6  A    between atoms: C_20  and  C_21
REMARK    7  A    between atoms: C_21  and  O_22
REMARK                            x       y       z     vdW  Elec       q    Type
REMARK                         _______ _______ _______ _____ _____    ______ ____
ROOT
ATOM      1  C   UNL     1       3.534   6.211  17.307  0.00  0.00    +0.000 C 
ATOM      2  C   UNL     1       4.719   7.117  16.952  0.00  0.00    +0.000 C 
ATOM      3  C   UNL     1       5.953   6.747  17.715  0.00  0.00    +0.000 C 
ATOM      4  C   UNL     1       6.062   5.626  18.457  0.00  0.00    +0.000 C 
ATOM      5  O   UNL     1       5.053   4.670  18.538  0.00  0.00    +0.000 OA
ATOM      6  C   UNL     1       4.015   4.765  17.544  0.00  0.00    +0.000 C 
ENDROOT
BRANCH   1  15
ATOM      7  C   UNL     1       1.107   9.306  20.159  0.00  0.00    +0.000 A 
ATOM      8  N   UNL     1       1.032  10.288  19.234  0.00  0.00    +0.000 NA
ATOM      9  C   UNL     1       1.566  10.057  18.014  0.00  0.00    +0.000 A 
ATOM     10  N   UNL     1       2.183   8.945  17.559  0.00  0.00    +0.000 NA
ATOM     11  C   UNL     1       2.212   7.995  18.508  0.00  0.00    +0.000 A 
ATOM     12  C   UNL     1       1.701   8.087  19.793  0.00  0.00    +0.000 A 
ATOM     13  N   UNL     1       1.882   6.911  20.482  0.00  0.00    +0.000 NA
ATOM     14  C   UNL     1       2.509   6.122  19.635  0.00  0.00    +0.000 A 
ATOM     15  N   UNL     1       2.760   6.738  18.434  0.00  0.00    +0.000 N 
BRANCH   7  16
ATOM     16  N   UNL     1       0.584   9.538  21.424  0.00  0.00    +0.000 N 
ATOM     17  H   UNL     1       0.586  10.518  21.671  0.00  0.00    +0.000 HD
ATOM     18  H   UNL     1      -0.255   9.001  21.613  0.00  0.00    +0.000 HD
ENDBRANCH   7  16
ENDBRANCH   1  15
BRANCH   4  19
ATOM     19  P   UNL     1       7.594   5.367  19.424  0.00  0.00    +0.000 P 
ATOM     20  O   UNL     1       8.203   4.378  18.416  0.00  0.00    +0.000 OA
BRANCH  19  21
ATOM     21  O   UNL     1       8.189   6.825  18.972  0.00  0.00    +0.000 OA
ATOM     22  H   UNL     1       7.517   7.508  19.161  0.00  0.00    +0.000 HD
ENDBRANCH  19  21
BRANCH  19  23
ATOM     23  O   UNL     1       9.042   5.121  20.338  0.00  0.00    +0.000 OA
ATOM     24  H   UNL     1       9.270   4.187  20.157  0.00  0.00    +0.000 HD
ENDBRANCH  19  23
ENDBRANCH   4  19
BRANCH   6  25
ATOM     25  C   UNL     1       4.509   4.073  16.257  0.00  0.00    +0.000 C 
BRANCH  25  26
ATOM     26  O   UNL     1       5.437   3.035  16.533  0.00  0.00    +0.000 OA
ATOM     27  H   UNL     1       6.330   3.376  16.345  0.00  0.00    +0.000 HD
ENDBRANCH  25  26
ENDBRANCH   6  25
TORSDOF 7
ENDMDL
