MODEL 1
REMARK VINA RESULT:      -5.1      0.000      0.000
REMARK  Name = 
REMARK  1 active torsions:
REMARK  status: ('A' for Active; 'I' for Inactive)
REMARK    1  A    between atoms: C_1  and  C_2
REMARK                            x       y       z     vdW  Elec       q    Type
REMARK                         _______ _______ _______ _____ _____    ______ ____
ROOT
ATOM      1  C   UNL     1       7.738   8.515  17.722  0.00  0.00    +0.000 C 
ATOM      2  C   UNL     1       7.549   7.041  17.356  0.00  0.00    +0.000 C 
ATOM      3  C   UNL     1       7.791   6.160  18.594  0.00  0.00    +0.000 C 
ATOM      4  C   UNL     1       7.598   4.716  18.208  0.00  0.00    +0.000 C 
ATOM      5  O   UNL     1       8.489   4.015  17.744  0.00  0.00    +0.000 OA
ATOM      6  N   UNL     1       6.253   4.374  18.189  0.00  0.00    +0.000 N 
ATOM      7  C   UNL     1       5.634   4.402  16.877  0.00  0.00    +0.000 C 
ATOM      8  C   UNL     1       6.039   5.629  16.021  0.00  0.00    +0.000 C 
ATOM      9  N   UNL     1       6.205   6.897  16.756  0.00  0.00    +0.000 NA
ATOM     10  H   UNL     1       5.700   4.863  18.877  0.00  0.00    +0.000 HD
ATOM     11  H   UNL     1       5.478   7.003  17.459  0.00  0.00    +0.000 HD
ENDROOT
TORSDOF 0
ENDMDL
MODEL 2
REMARK VINA RESULT:      -4.8      5.272      6.053
REMARK  Name = 
REMARK  1 active torsions:
REMARK  status: ('A' for Active; 'I' for Inactive)
REMARK    1  A    between atoms: C_1  and  C_2
REMARK                            x       y       z     vdW  Elec       q    Type
REMARK                         _______ _______ _______ _____ _____    ______ ____
ROOT
ATOM      1  C   UNL     1       4.360   5.358  19.391  0.00  0.00    +0.000 C 
ATOM      2  C   UNL     1       3.431   4.189  19.726  0.00  0.00    +0.000 C 
ATOM      3  C   UNL     1       2.424   4.616  20.807  0.00  0.00    +0.000 C 
ATOM      4  C   UNL     1       1.521   3.449  21.117  0.00  0.00    +0.000 C 
ATOM      5  O   UNL     1       1.789   2.588  21.946  0.00  0.00    +0.000 OA
ATOM      6  N   UNL     1       0.508   3.330  20.176  0.00  0.00    +0.000 N 
ATOM      7  C   UNL     1       0.759   2.357  19.129  0.00  0.00    +0.000 C 
ATOM      8  C   UNL     1       2.205   2.392  18.575  0.00  0.00    +0.000 C 
ATOM      9  N   UNL     1       2.816   3.731  18.462  0.00  0.00    +0.000 NA
ATOM     10  H   UNL     1       0.196   4.214  19.801  0.00  0.00    +0.000 HD
ATOM     11  H   UNL     1       2.138   4.408  18.119  0.00  0.00    +0.000 HD
ENDROOT
TORSDOF 0
ENDMDL
MODEL 3
REMARK VINA RESULT:      -4.7      4.825      6.276
REMARK  Name = 
REMARK  1 active torsions:
REMARK  status: ('A' for Active; 'I' for Inactive)
REMARK    1  A    between atoms: C_1  and  C_2
REMARK                            x       y       z     vdW  Elec       q    Type
REMARK                         _______ _______ _______ _____ _____    ______ ____
ROOT
ATOM      1  C   UNL     1       1.575   2.702  21.555  0.00  0.00    +0.000 C 
ATOM      2  C   UNL     1       1.851   2.814  20.053  0.00  0.00    +0.000 C 
ATOM      3  C   UNL     1       1.568   4.249  19.577  0.00  0.00    +0.000 C 
ATOM      4  C   UNL     1       1.848   4.334  18.098  0.00  0.00    +0.000 C 
ATOM      5  O   UNL     1       1.021   4.065  17.236  0.00  0.00    +0.000 OA
ATOM      6  N   UNL     1       3.205   4.485  17.849  0.00  0.00    +0.000 N 
ATOM      7  C   UNL     1       3.905   3.258  17.516  0.00  0.00    +0.000 C 
ATOM      8  C   UNL     1       3.503   2.049  18.398  0.00  0.00    +0.000 C 
ATOM      9  N   UNL     1       3.235   2.352  19.817  0.00  0.00    +0.000 NA
ATOM     10  H   UNL     1       3.692   5.015  18.557  0.00  0.00    +0.000 HD
ATOM     11  H   UNL     1       3.911   3.023  20.175  0.00  0.00    +0.000 HD
ENDROOT
TORSDOF 0
ENDMDL
MODEL 4
REMARK VINA RESULT:      -4.7      4.737      5.593
REMARK  Name = 
REMARK  1 active torsions:
REMARK  status: ('A' for Active; 'I' for Inactive)
REMARK    1  A    between atoms: C_1  and  C_2
REMARK                            x       y       z     vdW  Elec       q    Type
REMARK                         _______ _______ _______ _____ _____    ______ ____
ROOT
ATOM      1  C   UNL     1       2.913   6.291  18.132  0.00  0.00    +0.000 C 
ATOM      2  C   UNL     1       2.733   4.856  18.632  0.00  0.00    +0.000 C 
ATOM      3  C   UNL     1       1.571   4.183  17.882  0.00  0.00    +0.000 C 
ATOM      4  C   UNL     1       1.416   2.773  18.391  0.00  0.00    +0.000 C 
ATOM      5  O   UNL     1       0.736   2.476  19.365  0.00  0.00    +0.000 OA
ATOM      6  N   UNL     1       2.335   1.918  17.798  0.00  0.00    +0.000 N 
ATOM      7  C   UNL     1       3.524   1.658  18.587  0.00  0.00    +0.000 C 
ATOM      8  C   UNL     1       4.108   2.919  19.274  0.00  0.00    +0.000 C 
ATOM      9  N   UNL     1       4.034   4.167  18.491  0.00  0.00    +0.000 NA
ATOM     10  H   UNL     1       2.562   2.163  16.845  0.00  0.00    +0.000 HD
ATOM     11  H   UNL     1       4.250   3.992  17.513  0.00  0.00    +0.000 HD
ENDROOT
TORSDOF 0
ENDMDL
MODEL 5
REMARK VINA RESULT:      -4.7      3.965      5.471
REMARK  Name = 
REMARK  1 active torsions:
REMARK  status: ('A' for Active; 'I' for Inactive)
REMARK    1  A    between atoms: C_1  and  C_2
REMARK                            x       y       z     vdW  Elec       q    Type
REMARK                         _______ _______ _______ _____ _____    ______ ____
ROOT
ATOM      1  C   UNL     1       0.794   2.611  18.783  0.00  0.00    +0.000 C 
ATOM      2  C   UNL     1       2.159   2.984  19.368  0.00  0.00    +0.000 C 
ATOM      3  C   UNL     1       3.205   1.931  18.964  0.00  0.00    +0.000 C 
ATOM      4  C   UNL     1       4.538   2.320  19.551  0.00  0.00    +0.000 C 
ATOM      5  O   UNL     1       4.900   2.003  20.677  0.00  0.00    +0.000 OA
ATOM      6  N   UNL     1       5.166   3.287  18.778  0.00  0.00    +0.000 N 
ATOM      7  C   UNL     1       4.999   4.649  19.249  0.00  0.00    +0.000 C 
ATOM      8  C   UNL     1       3.558   4.978  19.714  0.00  0.00    +0.000 C 
ATOM      9  N   UNL     1       2.473   4.359  18.928  0.00  0.00    +0.000 NA
ATOM     10  H   UNL     1       4.975   3.204  17.790  0.00  0.00    +0.000 HD
ATOM     11  H   UNL     1       2.690   4.385  17.934  0.00  0.00    +0.000 HD
ENDROOT
TORSDOF 0
ENDMDL
MODEL 6
REMARK VINA RESULT:      -4.7      1.871      3.271
REMARK  Name = 
REMARK  1 active torsions:
REMARK  status: ('A' for Active; 'I' for Inactive)
REMARK    1  A    between atoms: C_1  and  C_2
REMARK                            x       y       z     vdW  Elec       q    Type
REMARK                         _______ _______ _______ _____ _____    ______ ____
ROOT
ATOM      1  C   UNL     1       6.231   4.452  13.991  0.00  0.00    +0.000 C 
ATOM      2  C   UNL     1       6.058   4.942  15.431  0.00  0.00    +0.000 C 
ATOM      3  C   UNL     1       5.509   3.803  16.308  0.00  0.00    +0.000 C 
ATOM      4  C   UNL     1       5.349   4.310  17.719  0.00  0.00    +0.000 C 
ATOM      5  O   UNL     1       4.343   4.878  18.123  0.00  0.00    +0.000 OA
ATOM      6  N   UNL     1       6.558   4.294  18.400  0.00  0.00    +0.000 N 
ATOM      7  C   UNL     1       7.255   5.567  18.436  0.00  0.00    +0.000 C 
ATOM      8  C   UNL     1       7.242   6.326  17.085  0.00  0.00    +0.000 C 
ATOM      9  N   UNL     1       7.358   5.486  15.878  0.00  0.00    +0.000 NA
ATOM     10  H   UNL     1       7.169   3.539  18.127  0.00  0.00    +0.000 HD
ATOM     11  H   UNL     1       8.036   4.742  16.021  0.00  0.00    +0.000 HD
ENDROOT
TORSDOF 0
ENDMDL
MODEL 7
REMARK VINA RESULT:      -4.6      3.874      4.994
REMARK  Name = 
REMARK  1 active torsions:
REMARK  status: ('A' for Active; 'I' for Inactive)
REMARK    1  A    between atoms: C_1  and  C_2
REMARK                            x       y       z     vdW  Elec       q    Type
REMARK                         _______ _______ _______ _____ _____    ______ ____
ROOT
ATOM      1  C   UNL     1       1.226   4.552  20.581  0.00  0.00    +0.000 C 
ATOM      2  C   UNL     1       2.693   4.205  20.317  0.00  0.00    +0.000 C 
ATOM      3  C   UNL     1       2.804   2.757  19.809  0.00  0.00    +0.000 C 
ATOM      4  C   UNL     1       4.257   2.441  19.556  0.00  0.00    +0.000 C 
ATOM      5  O   UNL     1       5.017   2.019  20.417  0.00  0.00    +0.000 OA
ATOM      6  N   UNL     1       4.675   2.937  18.329  0.00  0.00    +0.000 N 
ATOM      7  C   UNL     1       5.365   4.213  18.388  0.00  0.00    +0.000 C 
ATOM      8  C   UNL     1       4.708   5.235  19.350  0.00  0.00    +0.000 C 
ATOM      9  N   UNL     1       3.234   5.222  19.390  0.00  0.00    +0.000 NA
ATOM     10  H   UNL     1       3.954   2.932  17.621  0.00  0.00    +0.000 HD
ATOM     11  H   UNL     1       2.849   5.106  18.455  0.00  0.00    +0.000 HD
ENDROOT
TORSDOF 0
ENDMDL
MODEL 8
REMARK VINA RESULT:      -4.6      1.692      1.796
REMARK  Name = 
REMARK  1 active torsions:
REMARK  status: ('A' for Active; 'I' for Inactive)
REMARK    1  A    between atoms: C_1  and  C_2
REMARK                            x       y       z     vdW  Elec       q    Type
REMARK                         _______ _______ _______ _____ _____    ______ ____
ROOT
ATOM      1  C   UNL     1       7.712   7.785  17.574  0.00  0.00    +0.000 C 
ATOM      2  C   UNL     1       7.226   6.337  17.478  0.00  0.00    +0.000 C 
ATOM      3  C   UNL     1       5.862   6.196  18.175  0.00  0.00    +0.000 C 
ATOM      4  C   UNL     1       5.405   4.763  18.066  0.00  0.00    +0.000 C 
ATOM      5  O   UNL     1       5.716   3.891  18.867  0.00  0.00    +0.000 OA
ATOM      6  N   UNL     1       4.833   4.509  16.827  0.00  0.00    +0.000 N 
ATOM      7  C   UNL     1       5.722   3.893  15.859  0.00  0.00    +0.000 C 
ATOM      8  C   UNL     1       7.147   4.501  15.841  0.00  0.00    +0.000 C 
ATOM      9  N   UNL     1       7.224   5.959  16.048  0.00  0.00    +0.000 NA
ATOM     10  H   UNL     1       4.342   5.300  16.436  0.00  0.00    +0.000 HD
ATOM     11  H   UNL     1       6.477   6.434  15.546  0.00  0.00    +0.000 HD
ENDROOT
TORSDOF 0
ENDMDL
MODEL 9
REMARK VINA RESULT:      -4.6      1.939      3.892
REMARK  Name = 
REMARK  1 active torsions:
REMARK  status: ('A' for Active; 'I' for Inactive)
REMARK    1  A    between atoms: C_1  and  C_2
REMARK                            x       y       z     vdW  Elec       q    Type
REMARK                         _______ _______ _______ _____ _____    ______ ____
ROOT
ATOM      1  C   UNL     1       3.981   3.024  17.917  0.00  0.00    +0.000 C 
ATOM      2  C   UNL     1       4.962   4.018  17.291  0.00  0.00    +0.000 C 
ATOM      3  C   UNL     1       4.268   5.374  17.081  0.00  0.00    +0.000 C 
ATOM      4  C   UNL     1       5.254   6.334  16.465  0.00  0.00    +0.000 C 
ATOM      5  O   UNL     1       5.439   6.433  15.258  0.00  0.00    +0.000 OA
ATOM      6  N   UNL     1       6.095   6.879  17.425  0.00  0.00    +0.000 N 
ATOM      7  C   UNL     1       7.389   6.232  17.540  0.00  0.00    +0.000 C 
ATOM      8  C   UNL     1       7.323   4.685  17.489  0.00  0.00    +0.000 C 
ATOM      9  N   UNL     1       6.159   4.071  18.157  0.00  0.00    +0.000 NA
ATOM     10  H   UNL     1       5.656   7.005  18.326  0.00  0.00    +0.000 HD
ATOM     11  H   UNL     1       5.956   4.546  19.033  0.00  0.00    +0.000 HD
ENDROOT
TORSDOF 0
ENDMDL
