MODEL 1
REMARK VINA RESULT:      -9.1      0.000      0.000
REMARK  Name = 
REMARK  5 active torsions:
REMARK  status: ('A' for Active; 'I' for Inactive)
REMARK    1  A    between atoms: C_1  and  C_2
REMARK    2  A    between atoms: C_2  and  C_3
REMARK    3  A    between atoms: C_8  and  C_9
REMARK    4  A    between atoms: C_9  and  C_11
REMARK    5  A    between atoms: C_17  and  O_18
REMARK                            x       y       z     vdW  Elec       q    Type
REMARK                         _______ _______ _______ _____ _____    ______ ____
ROOT
ATOM      1  C   UNL     1       1.281   2.738  20.827  0.00  0.00    +0.000 C 
ATOM      2  C   UNL     1       1.949   3.859  20.019  0.00  0.00    +0.000 C 
ATOM      3  C   UNL     1       1.739   5.190  20.758  0.00  0.00    +0.000 C 
ATOM      4  C   UNL     1       1.353   3.872  18.603  0.00  0.00    +0.000 C 
ATOM      5  C   UNL     1       2.086   4.862  17.712  0.00  0.00    +0.000 C 
ATOM      6  C   UNL     1       3.567   4.717  17.884  0.00  0.00    +0.000 A 
ATOM      7  C   UNL     1       4.429   5.244  16.915  0.00  0.00    +0.000 A 
ATOM      8  C   UNL     1       5.818   5.079  17.021  0.00  0.00    +0.000 A 
ATOM      9  C   UNL     1       6.344   4.470  18.164  0.00  0.00    +0.000 A 
ATOM     10  C   UNL     1       5.492   3.956  19.141  0.00  0.00    +0.000 A 
ATOM     11  C   UNL     1       4.109   4.081  19.003  0.00  0.00    +0.000 A 
ATOM     12  O   UNL     1       3.354   3.544  20.008  0.00  0.00    +0.000 OA
ENDROOT
BRANCH   8  13
ATOM     13  C   UNL     1       6.715   5.534  15.922  0.00  0.00    +0.000 C 
ATOM     14  O   UNL     1       7.490   6.460  16.135  0.00  0.00    +0.000 OA
BRANCH  13  15
ATOM     15  C   UNL     1       6.676   4.863  14.589  0.00  0.00    +0.000 A 
ATOM     16  C   UNL     1       5.705   3.897  14.297  0.00  0.00    +0.000 A 
ATOM     17  C   UNL     1       5.609   3.359  13.013  0.00  0.00    +0.000 A 
ATOM     18  C   UNL     1       6.510   3.755  12.028  0.00  0.00    +0.000 A 
ATOM     19  C   UNL     1       7.517   4.673  12.328  0.00  0.00    +0.000 A 
ATOM     20  C   UNL     1       7.606   5.229  13.609  0.00  0.00    +0.000 A 
ENDBRANCH  13  15
ENDBRANCH   8  13
BRANCH   9  21
ATOM     21  O   UNL     1       7.689   4.347  18.389  0.00  0.00    +0.000 OA
ATOM     22  H   UNL     1       8.049   3.743  17.701  0.00  0.00    +0.000 HD
ENDBRANCH   9  21
TORSDOF 3
ENDMDL
MODEL 2
REMARK VINA RESULT:      -9.0      0.133      1.061
REMARK  Name = 
REMARK  5 active torsions:
REMARK  status: ('A' for Active; 'I' for Inactive)
REMARK    1  A    between atoms: C_1  and  C_2
REMARK    2  A    between atoms: C_2  and  C_3
REMARK    3  A    between atoms: C_8  and  C_9
REMARK    4  A    between atoms: C_9  and  C_11
REMARK    5  A    between atoms: C_17  and  O_18
REMARK                            x       y       z     vdW  Elec       q    Type
REMARK                         _______ _______ _______ _____ _____    ______ ____
ROOT
ATOM      1  C   UNL     1       1.304   2.850  20.874  0.00  0.00    +0.000 C 
ATOM      2  C   UNL     1       1.975   3.951  20.041  0.00  0.00    +0.000 C 
ATOM      3  C   UNL     1       1.796   5.293  20.766  0.00  0.00    +0.000 C 
ATOM      4  C   UNL     1       1.355   3.954  18.635  0.00  0.00    +0.000 C 
ATOM      5  C   UNL     1       2.087   4.921  17.719  0.00  0.00    +0.000 C 
ATOM      6  C   UNL     1       3.568   4.757  17.869  0.00  0.00    +0.000 A 
ATOM      7  C   UNL     1       4.421   5.260  16.878  0.00  0.00    +0.000 A 
ATOM      8  C   UNL     1       5.809   5.076  16.963  0.00  0.00    +0.000 A 
ATOM      9  C   UNL     1       6.345   4.474  18.106  0.00  0.00    +0.000 A 
ATOM     10  C   UNL     1       5.503   3.985  19.103  0.00  0.00    +0.000 A 
ATOM     11  C   UNL     1       4.120   4.128  18.986  0.00  0.00    +0.000 A 
ATOM     12  O   UNL     1       3.375   3.615  20.011  0.00  0.00    +0.000 OA
ENDROOT
BRANCH   8  13
ATOM     13  C   UNL     1       6.694   5.505  15.843  0.00  0.00    +0.000 C 
ATOM     14  O   UNL     1       7.539   6.368  16.053  0.00  0.00    +0.000 OA
BRANCH  13  15
ATOM     15  C   UNL     1       6.559   4.880  14.494  0.00  0.00    +0.000 A 
ATOM     16  C   UNL     1       7.496   5.135  13.485  0.00  0.00    +0.000 A 
ATOM     17  C   UNL     1       7.422   4.460  12.267  0.00  0.00    +0.000 A 
ATOM     18  C   UNL     1       6.386   3.558  12.037  0.00  0.00    +0.000 A 
ATOM     19  C   UNL     1       5.415   3.344  13.016  0.00  0.00    +0.000 A 
ATOM     20  C   UNL     1       5.495   4.005  14.247  0.00  0.00    +0.000 A 
ENDBRANCH  13  15
ENDBRANCH   8  13
BRANCH   9  21
ATOM     21  O   UNL     1       7.693   4.335  18.309  0.00  0.00    +0.000 OA
ATOM     22  H   UNL     1       7.848   4.351  19.281  0.00  0.00    +0.000 HD
ENDBRANCH   9  21
TORSDOF 3
ENDMDL
MODEL 3
REMARK VINA RESULT:      -8.1      1.260      2.025
REMARK  Name = 
REMARK  5 active torsions:
REMARK  status: ('A' for Active; 'I' for Inactive)
REMARK    1  A    between atoms: C_1  and  C_2
REMARK    2  A    between atoms: C_2  and  C_3
REMARK    3  A    between atoms: C_8  and  C_9
REMARK    4  A    between atoms: C_9  and  C_11
REMARK    5  A    between atoms: C_17  and  O_18
REMARK                            x       y       z     vdW  Elec       q    Type
REMARK                         _______ _______ _______ _____ _____    ______ ____
ROOT
ATOM      1  C   UNL     1       1.562   2.743  21.199  0.00  0.00    +0.000 C 
ATOM      2  C   UNL     1       2.018   2.915  19.744  0.00  0.00    +0.000 C 
ATOM      3  C   UNL     1       0.774   2.954  18.841  0.00  0.00    +0.000 C 
ATOM      4  C   UNL     1       2.971   1.765  19.384  0.00  0.00    +0.000 C 
ATOM      5  C   UNL     1       3.574   1.969  18.004  0.00  0.00    +0.000 C 
ATOM      6  C   UNL     1       4.037   3.384  17.844  0.00  0.00    +0.000 A 
ATOM      7  C   UNL     1       4.943   3.703  16.825  0.00  0.00    +0.000 A 
ATOM      8  C   UNL     1       5.436   5.008  16.682  0.00  0.00    +0.000 A 
ATOM      9  C   UNL     1       4.930   6.018  17.506  0.00  0.00    +0.000 A 
ATOM     10  C   UNL     1       4.015   5.712  18.513  0.00  0.00    +0.000 A 
ATOM     11  C   UNL     1       3.568   4.400  18.679  0.00  0.00    +0.000 A 
ATOM     12  O   UNL     1       2.675   4.195  19.693  0.00  0.00    +0.000 OA
ENDROOT
BRANCH   8  13
ATOM     13  C   UNL     1       6.494   5.306  15.676  0.00  0.00    +0.000 C 
ATOM     14  O   UNL     1       7.439   6.015  16.003  0.00  0.00    +0.000 OA
BRANCH  13  15
ATOM     15  C   UNL     1       6.407   4.738  14.298  0.00  0.00    +0.000 A 
ATOM     16  C   UNL     1       7.471   4.866  13.398  0.00  0.00    +0.000 A 
ATOM     17  C   UNL     1       7.423   4.235  12.154  0.00  0.00    +0.000 A 
ATOM     18  C   UNL     1       6.292   3.509  11.790  0.00  0.00    +0.000 A 
ATOM     19  C   UNL     1       5.203   3.427  12.660  0.00  0.00    +0.000 A 
ATOM     20  C   UNL     1       5.255   4.042  13.915  0.00  0.00    +0.000 A 
ENDBRANCH  13  15
ENDBRANCH   8  13
BRANCH   9  21
ATOM     21  O   UNL     1       5.291   7.333  17.376  0.00  0.00    +0.000 OA
ATOM     22  H   UNL     1       6.042   7.496  17.991  0.00  0.00    +0.000 HD
ENDBRANCH   9  21
TORSDOF 3
ENDMDL
MODEL 4
REMARK VINA RESULT:      -8.0      1.578      2.326
REMARK  Name = 
REMARK  5 active torsions:
REMARK  status: ('A' for Active; 'I' for Inactive)
REMARK    1  A    between atoms: C_1  and  C_2
REMARK    2  A    between atoms: C_2  and  C_3
REMARK    3  A    between atoms: C_8  and  C_9
REMARK    4  A    between atoms: C_9  and  C_11
REMARK    5  A    between atoms: C_17  and  O_18
REMARK                            x       y       z     vdW  Elec       q    Type
REMARK                         _______ _______ _______ _____ _____    ______ ____
ROOT
ATOM      1  C   UNL     1       2.178   3.730  21.072  0.00  0.00    +0.000 C 
ATOM      2  C   UNL     1       2.453   3.557  19.572  0.00  0.00    +0.000 C 
ATOM      3  C   UNL     1       1.108   3.490  18.831  0.00  0.00    +0.000 C 
ATOM      4  C   UNL     1       3.302   2.293  19.366  0.00  0.00    +0.000 C 
ATOM      5  C   UNL     1       3.734   2.157  17.915  0.00  0.00    +0.000 C 
ATOM      6  C   UNL     1       4.233   3.470  17.397  0.00  0.00    +0.000 A 
ATOM      7  C   UNL     1       5.017   3.501  16.237  0.00  0.00    +0.000 A 
ATOM      8  C   UNL     1       5.543   4.709  15.756  0.00  0.00    +0.000 A 
ATOM      9  C   UNL     1       5.190   5.904  16.390  0.00  0.00    +0.000 A 
ATOM     10  C   UNL     1       4.398   5.883  17.537  0.00  0.00    +0.000 A 
ATOM     11  C   UNL     1       3.919   4.670  18.037  0.00  0.00    +0.000 A 
ATOM     12  O   UNL     1       3.153   4.748  19.167  0.00  0.00    +0.000 OA
ENDROOT
BRANCH   8  13
ATOM     13  C   UNL     1       6.477   4.712  14.595  0.00  0.00    +0.000 C 
ATOM     14  O   UNL     1       7.538   5.319  14.690  0.00  0.00    +0.000 OA
BRANCH  13  15
ATOM     15  C   UNL     1       6.128   3.976  13.343  0.00  0.00    +0.000 A 
ATOM     16  C   UNL     1       7.108   3.292  12.613  0.00  0.00    +0.000 A 
ATOM     17  C   UNL     1       6.751   2.516  11.510  0.00  0.00    +0.000 A 
ATOM     18  C   UNL     1       5.419   2.455  11.107  0.00  0.00    +0.000 A 
ATOM     19  C   UNL     1       4.447   3.183  11.795  0.00  0.00    +0.000 A 
ATOM     20  C   UNL     1       4.797   3.948  12.914  0.00  0.00    +0.000 A 
ENDBRANCH  13  15
ENDBRANCH   8  13
BRANCH   9  21
ATOM     21  O   UNL     1       5.588   7.132  15.935  0.00  0.00    +0.000 OA
ATOM     22  H   UNL     1       6.329   6.988  15.303  0.00  0.00    +0.000 HD
ENDBRANCH   9  21
TORSDOF 3
ENDMDL
MODEL 5
REMARK VINA RESULT:      -8.0      1.265      1.695
REMARK  Name = 
REMARK  5 active torsions:
REMARK  status: ('A' for Active; 'I' for Inactive)
REMARK    1  A    between atoms: C_1  and  C_2
REMARK    2  A    between atoms: C_2  and  C_3
REMARK    3  A    between atoms: C_8  and  C_9
REMARK    4  A    between atoms: C_9  and  C_11
REMARK    5  A    between atoms: C_17  and  O_18
REMARK                            x       y       z     vdW  Elec       q    Type
REMARK                         _______ _______ _______ _____ _____    ______ ____
ROOT
ATOM      1  C   UNL     1       1.669   2.714  21.195  0.00  0.00    +0.000 C 
ATOM      2  C   UNL     1       2.088   2.936  19.734  0.00  0.00    +0.000 C 
ATOM      3  C   UNL     1       0.820   3.047  18.872  0.00  0.00    +0.000 C 
ATOM      4  C   UNL     1       2.996   1.776  19.298  0.00  0.00    +0.000 C 
ATOM      5  C   UNL     1       3.564   2.021  17.910  0.00  0.00    +0.000 C 
ATOM      6  C   UNL     1       4.064   3.428  17.795  0.00  0.00    +0.000 A 
ATOM      7  C   UNL     1       4.950   3.763  16.764  0.00  0.00    +0.000 A 
ATOM      8  C   UNL     1       5.476   5.059  16.661  0.00  0.00    +0.000 A 
ATOM      9  C   UNL     1       5.024   6.048  17.540  0.00  0.00    +0.000 A 
ATOM     10  C   UNL     1       4.130   5.725  18.561  0.00  0.00    +0.000 A 
ATOM     11  C   UNL     1       3.649   4.420  18.686  0.00  0.00    +0.000 A 
ATOM     12  O   UNL     1       2.780   4.198  19.717  0.00  0.00    +0.000 OA
ENDROOT
BRANCH   8  13
ATOM     13  C   UNL     1       6.512   5.370  15.636  0.00  0.00    +0.000 C 
ATOM     14  O   UNL     1       7.394   6.177  15.911  0.00  0.00    +0.000 OA
BRANCH  13  15
ATOM     15  C   UNL     1       6.482   4.698  14.303  0.00  0.00    +0.000 A 
ATOM     16  C   UNL     1       5.401   3.890  13.928  0.00  0.00    +0.000 A 
ATOM     17  C   UNL     1       5.331   3.360  12.640  0.00  0.00    +0.000 A 
ATOM     18  C   UNL     1       6.362   3.600  11.735  0.00  0.00    +0.000 A 
ATOM     19  C   UNL     1       7.471   4.355  12.122  0.00  0.00    +0.000 A 
ATOM     20  C   UNL     1       7.537   4.905  13.407  0.00  0.00    +0.000 A 
ENDBRANCH  13  15
ENDBRANCH   8  13
BRANCH   9  21
ATOM     21  O   UNL     1       5.419   7.356  17.454  0.00  0.00    +0.000 OA
ATOM     22  H   UNL     1       5.695   7.641  18.354  0.00  0.00    +0.000 HD
ENDBRANCH   9  21
TORSDOF 3
ENDMDL
MODEL 6
REMARK VINA RESULT:      -7.6      1.348      1.862
REMARK  Name = 
REMARK  5 active torsions:
REMARK  status: ('A' for Active; 'I' for Inactive)
REMARK    1  A    between atoms: C_1  and  C_2
REMARK    2  A    between atoms: C_2  and  C_3
REMARK    3  A    between atoms: C_8  and  C_9
REMARK    4  A    between atoms: C_9  and  C_11
REMARK    5  A    between atoms: C_17  and  O_18
REMARK                            x       y       z     vdW  Elec       q    Type
REMARK                         _______ _______ _______ _____ _____    ______ ____
ROOT
ATOM      1  C   UNL     1       2.868   2.765  21.147  0.00  0.00    +0.000 C 
ATOM      2  C   UNL     1       2.955   3.378  19.742  0.00  0.00    +0.000 C 
ATOM      3  C   UNL     1       1.907   4.495  19.628  0.00  0.00    +0.000 C 
ATOM      4  C   UNL     1       2.745   2.265  18.703  0.00  0.00    +0.000 C 
ATOM      5  C   UNL     1       2.973   2.787  17.293  0.00  0.00    +0.000 C 
ATOM      6  C   UNL     1       4.220   3.614  17.242  0.00  0.00    +0.000 A 
ATOM      7  C   UNL     1       4.822   3.877  16.005  0.00  0.00    +0.000 A 
ATOM      8  C   UNL     1       6.019   4.604  15.928  0.00  0.00    +0.000 A 
ATOM      9  C   UNL     1       6.554   5.157  17.096  0.00  0.00    +0.000 A 
ATOM     10  C   UNL     1       5.952   4.912  18.329  0.00  0.00    +0.000 A 
ATOM     11  C   UNL     1       4.787   4.145  18.401  0.00  0.00    +0.000 A 
ATOM     12  O   UNL     1       4.271   3.956  19.652  0.00  0.00    +0.000 OA
ENDROOT
BRANCH   8  13
ATOM     13  C   UNL     1       6.715   4.770  14.621  0.00  0.00    +0.000 C 
ATOM     14  O   UNL     1       7.683   5.521  14.556  0.00  0.00    +0.000 OA
BRANCH  13  15
ATOM     15  C   UNL     1       6.246   4.023  13.416  0.00  0.00    +0.000 A 
ATOM     16  C   UNL     1       7.137   3.263  12.648  0.00  0.00    +0.000 A 
ATOM     17  C   UNL     1       6.668   2.481  11.592  0.00  0.00    +0.000 A 
ATOM     18  C   UNL     1       5.312   2.487  11.275  0.00  0.00    +0.000 A 
ATOM     19  C   UNL     1       4.428   3.289  12.000  0.00  0.00    +0.000 A 
ATOM     20  C   UNL     1       4.891   4.061  13.070  0.00  0.00    +0.000 A 
ENDBRANCH  13  15
ENDBRANCH   8  13
BRANCH   9  21
ATOM     21  O   UNL     1       7.669   5.952  17.098  0.00  0.00    +0.000 OA
ATOM     22  H   UNL     1       7.810   6.260  18.022  0.00  0.00    +0.000 HD
ENDBRANCH   9  21
TORSDOF 3
ENDMDL
MODEL 7
REMARK VINA RESULT:      -7.5      4.397      7.056
REMARK  Name = 
REMARK  5 active torsions:
REMARK  status: ('A' for Active; 'I' for Inactive)
REMARK    1  A    between atoms: C_1  and  C_2
REMARK    2  A    between atoms: C_2  and  C_3
REMARK    3  A    between atoms: C_8  and  C_9
REMARK    4  A    between atoms: C_9  and  C_11
REMARK    5  A    between atoms: C_17  and  O_18
REMARK                            x       y       z     vdW  Elec       q    Type
REMARK                         _______ _______ _______ _____ _____    ______ ____
ROOT
ATOM      1  C   UNL     1      -0.061  12.978  19.231  0.00  0.00    +0.000 C 
ATOM      2  C   UNL     1      -0.130  11.448  19.345  0.00  0.00    +0.000 C 
ATOM      3  C   UNL     1      -1.465  10.972  18.753  0.00  0.00    +0.000 C 
ATOM      4  C   UNL     1       0.035  11.053  20.820  0.00  0.00    +0.000 C 
ATOM      5  C   UNL     1       0.128   9.544  20.974  0.00  0.00    +0.000 C 
ATOM      6  C   UNL     1       1.065   8.976  19.953  0.00  0.00    +0.000 A 
ATOM      7  C   UNL     1       1.589   7.691  20.137  0.00  0.00    +0.000 A 
ATOM      8  C   UNL     1       2.509   7.152  19.226  0.00  0.00    +0.000 A 
ATOM      9  C   UNL     1       2.821   7.872  18.069  0.00  0.00    +0.000 A 
ATOM     10  C   UNL     1       2.291   9.147  17.871  0.00  0.00    +0.000 A 
ATOM     11  C   UNL     1       1.414   9.696  18.808  0.00  0.00    +0.000 A 
ATOM     12  O   UNL     1       0.949  10.950  18.531  0.00  0.00    +0.000 OA
ENDROOT
BRANCH   8  13
ATOM     13  C   UNL     1       3.154   5.836  19.499  0.00  0.00    +0.000 C 
ATOM     14  O   UNL     1       4.367   5.795  19.670  0.00  0.00    +0.000 OA
BRANCH  13  15
ATOM     15  C   UNL     1       2.330   4.593  19.575  0.00  0.00    +0.000 A 
ATOM     16  C   UNL     1       1.942   3.915  18.413  0.00  0.00    +0.000 A 
ATOM     17  C   UNL     1       1.270   2.695  18.500  0.00  0.00    +0.000 A 
ATOM     18  C   UNL     1       0.946   2.170  19.749  0.00  0.00    +0.000 A 
ATOM     19  C   UNL     1       1.279   2.871  20.909  0.00  0.00    +0.000 A 
ATOM     20  C   UNL     1       1.969   4.085  20.828  0.00  0.00    +0.000 A 
ENDBRANCH  13  15
ENDBRANCH   8  13
BRANCH   9  21
ATOM     21  O   UNL     1       3.640   7.383  17.087  0.00  0.00    +0.000 OA
ATOM     22  H   UNL     1       3.186   7.522  16.226  0.00  0.00    +0.000 HD
ENDBRANCH   9  21
TORSDOF 3
ENDMDL
MODEL 8
REMARK VINA RESULT:      -7.4      4.170      6.737
REMARK  Name = 
REMARK  5 active torsions:
REMARK  status: ('A' for Active; 'I' for Inactive)
REMARK    1  A    between atoms: C_1  and  C_2
REMARK    2  A    between atoms: C_2  and  C_3
REMARK    3  A    between atoms: C_8  and  C_9
REMARK    4  A    between atoms: C_9  and  C_11
REMARK    5  A    between atoms: C_17  and  O_18
REMARK                            x       y       z     vdW  Elec       q    Type
REMARK                         _______ _______ _______ _____ _____    ______ ____
ROOT
ATOM      1  C   UNL     1       0.004  12.514  19.035  0.00  0.00    +0.000 C 
ATOM      2  C   UNL     1       0.008  10.992  19.236  0.00  0.00    +0.000 C 
ATOM      3  C   UNL     1      -1.331  10.428  18.735  0.00  0.00    +0.000 C 
ATOM      4  C   UNL     1       0.255  10.690  20.722  0.00  0.00    +0.000 C 
ATOM      5  C   UNL     1       0.422   9.197  20.954  0.00  0.00    +0.000 C 
ATOM      6  C   UNL     1       1.336   8.611  19.922  0.00  0.00    +0.000 A 
ATOM      7  C   UNL     1       1.924   7.361  20.152  0.00  0.00    +0.000 A 
ATOM      8  C   UNL     1       2.825   6.809  19.230  0.00  0.00    +0.000 A 
ATOM      9  C   UNL     1       3.053   7.475  18.022  0.00  0.00    +0.000 A 
ATOM     10  C   UNL     1       2.459   8.713  17.779  0.00  0.00    +0.000 A 
ATOM     11  C   UNL     1       1.602   9.278  18.725  0.00  0.00    +0.000 A 
ATOM     12  O   UNL     1       1.069  10.494  18.401  0.00  0.00    +0.000 OA
ENDROOT
BRANCH   8  13
ATOM     13  C   UNL     1       3.539   5.539  19.544  0.00  0.00    +0.000 C 
ATOM     14  O   UNL     1       4.753   5.569  19.715  0.00  0.00    +0.000 OA
BRANCH  13  15
ATOM     15  C   UNL     1       2.783   4.257  19.660  0.00  0.00    +0.000 A 
ATOM     16  C   UNL     1       2.222   3.860  20.880  0.00  0.00    +0.000 A 
ATOM     17  C   UNL     1       1.424   2.717  20.950  0.00  0.00    +0.000 A 
ATOM     18  C   UNL     1       1.218   1.946  19.809  0.00  0.00    +0.000 A 
ATOM     19  C   UNL     1       1.823   2.304  18.603  0.00  0.00    +0.000 A 
ATOM     20  C   UNL     1       2.609   3.459  18.524  0.00  0.00    +0.000 A 
ENDBRANCH  13  15
ENDBRANCH   8  13
BRANCH   9  21
ATOM     21  O   UNL     1       3.848   6.964  17.030  0.00  0.00    +0.000 OA
ATOM     22  H   UNL     1       3.889   5.989  17.157  0.00  0.00    +0.000 HD
ENDBRANCH   9  21
TORSDOF 3
ENDMDL
MODEL 9
REMARK VINA RESULT:      -7.4      4.048      5.869
REMARK  Name = 
REMARK  5 active torsions:
REMARK  status: ('A' for Active; 'I' for Inactive)
REMARK    1  A    between atoms: C_1  and  C_2
REMARK    2  A    between atoms: C_2  and  C_3
REMARK    3  A    between atoms: C_8  and  C_9
REMARK    4  A    between atoms: C_9  and  C_11
REMARK    5  A    between atoms: C_17  and  O_18
REMARK                            x       y       z     vdW  Elec       q    Type
REMARK                         _______ _______ _______ _____ _____    ______ ____
ROOT
ATOM      1  C   UNL     1      -1.206  11.674  20.871  0.00  0.00    +0.000 C 
ATOM      2  C   UNL     1       0.091  11.100  20.281  0.00  0.00    +0.000 C 
ATOM      3  C   UNL     1       1.268  11.975  20.740  0.00  0.00    +0.000 C 
ATOM      4  C   UNL     1      -0.042  11.048  18.751  0.00  0.00    +0.000 C 
ATOM      5  C   UNL     1       1.152  10.347  18.125  0.00  0.00    +0.000 C 
ATOM      6  C   UNL     1       1.470   9.092  18.878  0.00  0.00    +0.000 A 
ATOM      7  C   UNL     1       2.267   8.110  18.277  0.00  0.00    +0.000 A 
ATOM      8  C   UNL     1       2.540   6.903  18.935  0.00  0.00    +0.000 A 
ATOM      9  C   UNL     1       2.093   6.729  20.248  0.00  0.00    +0.000 A 
ATOM     10  C   UNL     1       1.311   7.709  20.859  0.00  0.00    +0.000 A 
ATOM     11  C   UNL     1       1.003   8.887  20.177  0.00  0.00    +0.000 A 
ATOM     12  O   UNL     1       0.230   9.787  20.855  0.00  0.00    +0.000 OA
ENDROOT
BRANCH   8  13
ATOM     13  C   UNL     1       3.284   5.816  18.236  0.00  0.00    +0.000 C 
ATOM     14  O   UNL     1       2.651   4.893  17.735  0.00  0.00    +0.000 OA
BRANCH  13  15
ATOM     15  C   UNL     1       4.773   5.863  18.139  0.00  0.00    +0.000 A 
ATOM     16  C   UNL     1       5.578   5.396  19.185  0.00  0.00    +0.000 A 
ATOM     17  C   UNL     1       6.964   5.341  19.037  0.00  0.00    +0.000 A 
ATOM     18  C   UNL     1       7.554   5.790  17.858  0.00  0.00    +0.000 A 
ATOM     19  C   UNL     1       6.760   6.311  16.834  0.00  0.00    +0.000 A 
ATOM     20  C   UNL     1       5.369   6.352  16.971  0.00  0.00    +0.000 A 
ENDBRANCH  13  15
ENDBRANCH   8  13
BRANCH   9  21
ATOM     21  O   UNL     1       2.389   5.619  20.994  0.00  0.00    +0.000 OA
ATOM     22  H   UNL     1       2.028   4.838  20.517  0.00  0.00    +0.000 HD
ENDBRANCH   9  21
TORSDOF 3
ENDMDL
