MODEL 1
REMARK VINA RESULT:      -7.6      0.000      0.000
REMARK  Name = 
REMARK  3 active torsions:
REMARK  status: ('A' for Active; 'I' for Inactive)
REMARK    1  A    between atoms: C_1  and  O_2
REMARK    2  A    between atoms: O_2  and  C_3
REMARK    3  A    between atoms: N_9  and  C_10
REMARK                            x       y       z     vdW  Elec       q    Type
REMARK                         _______ _______ _______ _____ _____    ______ ____
ROOT
ATOM      1  C   UNL     1      -1.416  11.544  19.702  0.00  0.00    +0.000 A 
ATOM      2  C   UNL     1      -1.095  11.355  18.354  0.00  0.00    +0.000 A 
ATOM      3  C   UNL     1      -0.117  10.440  17.991  0.00  0.00    +0.000 A 
ATOM      4  C   UNL     1       0.529   9.695  18.980  0.00  0.00    +0.000 A 
ATOM      5  C   UNL     1       1.584   8.737  18.579  0.00  0.00    +0.000 A 
ATOM      6  O   UNL     1       2.079   8.842  17.465  0.00  0.00    +0.000 OA
ATOM      7  N   UNL     1       1.931   7.751  19.520  0.00  0.00    +0.000 N 
ATOM      8  C   UNL     1       1.653   7.980  20.860  0.00  0.00    +0.000 A 
ATOM      9  C   UNL     1       0.876   8.983  21.308  0.00  0.00    +0.000 A 
ATOM     10  C   UNL     1       0.213   9.851  20.334  0.00  0.00    +0.000 A 
ATOM     11  C   UNL     1      -0.733  10.820  20.709  0.00  0.00    +0.000 A 
ATOM     12  C   UNL     1      -0.960  11.161  22.158  0.00  0.00    +0.000 C 
ATOM     13  C   UNL     1      -0.466  10.150  23.189  0.00  0.00    +0.000 C 
ATOM     14  C   UNL     1       0.670   9.215  22.775  0.00  0.00    +0.000 C 
ENDROOT
BRANCH   7  15
ATOM     15  C   UNL     1       2.885   6.681  19.112  0.00  0.00    +0.000 C 
ATOM     16  C   UNL     1       2.496   5.940  17.779  0.00  0.00    +0.000 C 
ATOM     17  N   UNL     1       2.449   4.459  17.911  0.00  0.00    +0.000 NA
ATOM     18  C   UNL     1       3.772   3.970  18.332  0.00  0.00    +0.000 C 
ATOM     19  C   UNL     1       4.215   4.614  19.651  0.00  0.00    +0.000 C 
ATOM     20  C   UNL     1       3.114   5.556  20.171  0.00  0.00    +0.000 C 
ATOM     21  C   UNL     1       1.826   4.724  20.309  0.00  0.00    +0.000 C 
ATOM     22  C   UNL     1       1.445   4.137  18.944  0.00  0.00    +0.000 C 
ENDBRANCH   7  15
BRANCH   1  24
ATOM     23  C   UNL     1      -3.661  12.282  19.538  0.00  0.00    +0.000 C 
ATOM     24  O   UNL     1      -2.366  12.446  20.117  0.00  0.00    +0.000 OA
ENDBRANCH   1  24
TORSDOF 2
ENDMDL
MODEL 2
REMARK VINA RESULT:      -7.5      1.501      1.782
REMARK  Name = 
REMARK  3 active torsions:
REMARK  status: ('A' for Active; 'I' for Inactive)
REMARK    1  A    between atoms: C_1  and  O_2
REMARK    2  A    between atoms: O_2  and  C_3
REMARK    3  A    between atoms: N_9  and  C_10
REMARK                            x       y       z     vdW  Elec       q    Type
REMARK                         _______ _______ _______ _____ _____    ______ ____
ROOT
ATOM      1  C   UNL     1       0.553  11.169  19.112  0.00  0.00    +0.000 A 
ATOM      2  C   UNL     1       1.227  10.862  17.926  0.00  0.00    +0.000 A 
ATOM      3  C   UNL     1       1.886   9.647  17.793  0.00  0.00    +0.000 A 
ATOM      4  C   UNL     1       1.853   8.727  18.843  0.00  0.00    +0.000 A 
ATOM      5  C   UNL     1       2.576   7.445  18.693  0.00  0.00    +0.000 A 
ATOM      6  O   UNL     1       3.426   7.349  17.817  0.00  0.00    +0.000 OA
ATOM      7  N   UNL     1       2.215   6.410  19.574  0.00  0.00    +0.000 N 
ATOM      8  C   UNL     1       1.594   6.740  20.771  0.00  0.00    +0.000 A 
ATOM      9  C   UNL     1       1.113   7.963  21.059  0.00  0.00    +0.000 A 
ATOM     10  C   UNL     1       1.168   9.003  20.032  0.00  0.00    +0.000 A 
ATOM     11  C   UNL     1       0.552  10.255  20.193  0.00  0.00    +0.000 A 
ATOM     12  C   UNL     1      -0.021  10.671  21.522  0.00  0.00    +0.000 C 
ATOM     13  C   UNL     1      -0.294   9.560  22.532  0.00  0.00    +0.000 C 
ATOM     14  C   UNL     1       0.513   8.269  22.399  0.00  0.00    +0.000 C 
ENDROOT
BRANCH   7  15
ATOM     15  C   UNL     1       2.814   5.060  19.373  0.00  0.00    +0.000 C 
ATOM     16  C   UNL     1       2.318   4.319  18.076  0.00  0.00    +0.000 C 
ATOM     17  N   UNL     1       1.799   2.949  18.333  0.00  0.00    +0.000 NA
ATOM     18  C   UNL     1       2.864   2.136  18.941  0.00  0.00    +0.000 C 
ATOM     19  C   UNL     1       3.381   2.768  20.239  0.00  0.00    +0.000 C 
ATOM     20  C   UNL     1       2.594   4.054  20.547  0.00  0.00    +0.000 C 
ATOM     21  C   UNL     1       1.103   3.675  20.613  0.00  0.00    +0.000 C 
ATOM     22  C   UNL     1       0.666   3.072  19.271  0.00  0.00    +0.000 C 
ENDBRANCH   7  15
BRANCH   1  24
ATOM     23  C   UNL     1      -0.785  12.875  18.157  0.00  0.00    +0.000 C 
ATOM     24  O   UNL     1      -0.104  12.362  19.302  0.00  0.00    +0.000 OA
ENDBRANCH   1  24
TORSDOF 2
ENDMDL
MODEL 3
REMARK VINA RESULT:      -7.4      2.019      6.891
REMARK  Name = 
REMARK  3 active torsions:
REMARK  status: ('A' for Active; 'I' for Inactive)
REMARK    1  A    between atoms: C_1  and  O_2
REMARK    2  A    between atoms: O_2  and  C_3
REMARK    3  A    between atoms: N_9  and  C_10
REMARK                            x       y       z     vdW  Elec       q    Type
REMARK                         _______ _______ _______ _____ _____    ______ ____
ROOT
ATOM      1  C   UNL     1       4.666   5.078  17.316  0.00  0.00    +0.000 A 
ATOM      2  C   UNL     1       4.747   6.243  16.546  0.00  0.00    +0.000 A 
ATOM      3  C   UNL     1       3.964   7.344  16.864  0.00  0.00    +0.000 A 
ATOM      4  C   UNL     1       3.111   7.287  17.969  0.00  0.00    +0.000 A 
ATOM      5  C   UNL     1       2.268   8.463  18.282  0.00  0.00    +0.000 A 
ATOM      6  O   UNL     1       2.099   9.311  17.417  0.00  0.00    +0.000 OA
ATOM      7  N   UNL     1       1.728   8.523  19.580  0.00  0.00    +0.000 N 
ATOM      8  C   UNL     1       1.608   7.347  20.308  0.00  0.00    +0.000 A 
ATOM      9  C   UNL     1       2.169   6.178  19.950  0.00  0.00    +0.000 A 
ATOM     10  C   UNL     1       3.027   6.140  18.766  0.00  0.00    +0.000 A 
ATOM     11  C   UNL     1       3.772   5.003  18.411  0.00  0.00    +0.000 A 
ATOM     12  C   UNL     1       3.565   3.690  19.117  0.00  0.00    +0.000 C 
ATOM     13  C   UNL     1       2.861   3.739  20.471  0.00  0.00    +0.000 C 
ATOM     14  C   UNL     1       1.943   4.928  20.747  0.00  0.00    +0.000 C 
ENDROOT
BRANCH   7  15
ATOM     15  C   UNL     1       0.990   9.752  19.989  0.00  0.00    +0.000 C 
ATOM     16  C   UNL     1       1.585  10.473  21.255  0.00  0.00    +0.000 C 
ATOM     17  N   UNL     1       0.581  10.725  22.324  0.00  0.00    +0.000 NA
ATOM     18  C   UNL     1      -0.497  11.569  21.785  0.00  0.00    +0.000 C 
ATOM     19  C   UNL     1      -1.161  10.920  20.565  0.00  0.00    +0.000 C 
ATOM     20  C   UNL     1      -0.528   9.545  20.291  0.00  0.00    +0.000 C 
ATOM     21  C   UNL     1      -0.676   8.708  21.575  0.00  0.00    +0.000 C 
ATOM     22  C   UNL     1       0.034   9.417  22.736  0.00  0.00    +0.000 C 
ENDBRANCH   7  15
BRANCH   1  24
ATOM     23  C   UNL     1       6.078   3.960  15.777  0.00  0.00    +0.000 C 
ATOM     24  O   UNL     1       5.408   3.955  17.038  0.00  0.00    +0.000 OA
ENDBRANCH   1  24
TORSDOF 2
ENDMDL
MODEL 4
REMARK VINA RESULT:      -7.2      2.237      7.254
REMARK  Name = 
REMARK  3 active torsions:
REMARK  status: ('A' for Active; 'I' for Inactive)
REMARK    1  A    between atoms: C_1  and  O_2
REMARK    2  A    between atoms: O_2  and  C_3
REMARK    3  A    between atoms: N_9  and  C_10
REMARK                            x       y       z     vdW  Elec       q    Type
REMARK                         _______ _______ _______ _____ _____    ______ ____
ROOT
ATOM      1  C   UNL     1       2.943   3.705  19.482  0.00  0.00    +0.000 A 
ATOM      2  C   UNL     1       2.098   3.946  20.571  0.00  0.00    +0.000 A 
ATOM      3  C   UNL     1       1.673   5.237  20.851  0.00  0.00    +0.000 A 
ATOM      4  C   UNL     1       2.077   6.289  20.026  0.00  0.00    +0.000 A 
ATOM      5  C   UNL     1       1.631   7.663  20.349  0.00  0.00    +0.000 A 
ATOM      6  O   UNL     1       1.200   7.891  21.472  0.00  0.00    +0.000 OA
ATOM      7  N   UNL     1       1.723   8.615  19.318  0.00  0.00    +0.000 N 
ATOM      8  C   UNL     1       2.606   8.383  18.273  0.00  0.00    +0.000 A 
ATOM      9  C   UNL     1       3.226   7.208  18.056  0.00  0.00    +0.000 A 
ATOM     10  C   UNL     1       2.905   6.071  18.919  0.00  0.00    +0.000 A 
ATOM     11  C   UNL     1       3.386   4.775  18.668  0.00  0.00    +0.000 A 
ATOM     12  C   UNL     1       4.433   4.528  17.614  0.00  0.00    +0.000 C 
ATOM     13  C   UNL     1       4.626   5.621  16.567  0.00  0.00    +0.000 C 
ATOM     14  C   UNL     1       4.220   7.044  16.946  0.00  0.00    +0.000 C 
ENDROOT
BRANCH   7  15
ATOM     15  C   UNL     1       1.158   9.974  19.550  0.00  0.00    +0.000 C 
ATOM     16  C   UNL     1      -0.123   9.995  20.464  0.00  0.00    +0.000 C 
ATOM     17  N   UNL     1      -1.277  10.713  19.858  0.00  0.00    +0.000 NA
ATOM     18  C   UNL     1      -0.890  12.107  19.587  0.00  0.00    +0.000 C 
ATOM     19  C   UNL     1       0.334  12.181  18.667  0.00  0.00    +0.000 C 
ATOM     20  C   UNL     1       0.771  10.762  18.259  0.00  0.00    +0.000 C 
ATOM     21  C   UNL     1      -0.441  10.082  17.597  0.00  0.00    +0.000 C 
ATOM     22  C   UNL     1      -1.608  10.030  18.591  0.00  0.00    +0.000 C 
ENDBRANCH   7  15
BRANCH   1  24
ATOM     23  C   UNL     1       4.446   1.951  20.008  0.00  0.00    +0.000 C 
ATOM     24  O   UNL     1       3.404   2.449  19.167  0.00  0.00    +0.000 OA
ENDBRANCH   1  24
TORSDOF 2
ENDMDL
MODEL 5
REMARK VINA RESULT:      -7.1      1.423      2.017
REMARK  Name = 
REMARK  3 active torsions:
REMARK  status: ('A' for Active; 'I' for Inactive)
REMARK    1  A    between atoms: C_1  and  O_2
REMARK    2  A    between atoms: O_2  and  C_3
REMARK    3  A    between atoms: N_9  and  C_10
REMARK                            x       y       z     vdW  Elec       q    Type
REMARK                         _______ _______ _______ _____ _____    ______ ____
ROOT
ATOM      1  C   UNL     1       0.676  11.063  18.808  0.00  0.00    +0.000 A 
ATOM      2  C   UNL     1       1.409  10.536  17.739  0.00  0.00    +0.000 A 
ATOM      3  C   UNL     1       2.003   9.286  17.850  0.00  0.00    +0.000 A 
ATOM      4  C   UNL     1       1.845   8.551  19.027  0.00  0.00    +0.000 A 
ATOM      5  C   UNL     1       2.501   7.229  19.137  0.00  0.00    +0.000 A 
ATOM      6  O   UNL     1       3.400   6.953  18.354  0.00  0.00    +0.000 OA
ATOM      7  N   UNL     1       2.021   6.368  20.140  0.00  0.00    +0.000 N 
ATOM      8  C   UNL     1       1.341   6.916  21.219  0.00  0.00    +0.000 A 
ATOM      9  C   UNL     1       0.914   8.190  21.274  0.00  0.00    +0.000 A 
ATOM     10  C   UNL     1       1.100   9.047  20.102  0.00  0.00    +0.000 A 
ATOM     11  C   UNL     1       0.548  10.337  20.016  0.00  0.00    +0.000 A 
ATOM     12  C   UNL     1      -0.088  10.988  21.215  0.00  0.00    +0.000 C 
ATOM     13  C   UNL     1      -0.493  10.069  22.364  0.00  0.00    +0.000 C 
ATOM     14  C   UNL     1       0.244   8.737  22.498  0.00  0.00    +0.000 C 
ENDROOT
BRANCH   7  15
ATOM     15  C   UNL     1       2.552   4.977  20.201  0.00  0.00    +0.000 C 
ATOM     16  C   UNL     1       3.864   4.748  19.363  0.00  0.00    +0.000 C 
ATOM     17  N   UNL     1       3.776   3.605  18.416  0.00  0.00    +0.000 NA
ATOM     18  C   UNL     1       3.499   2.372  19.170  0.00  0.00    +0.000 C 
ATOM     19  C   UNL     1       2.208   2.494  19.989  0.00  0.00    +0.000 C 
ATOM     20  C   UNL     1       1.556   3.866  19.741  0.00  0.00    +0.000 C 
ATOM     21  C   UNL     1       1.322   3.994  18.224  0.00  0.00    +0.000 C 
ATOM     22  C   UNL     1       2.663   3.883  17.486  0.00  0.00    +0.000 C 
ENDBRANCH   7  15
BRANCH   1  24
ATOM     23  C   UNL     1      -1.145  12.359  18.023  0.00  0.00    +0.000 C 
ATOM     24  O   UNL     1       0.079  12.300  18.757  0.00  0.00    +0.000 OA
ENDBRANCH   1  24
TORSDOF 2
ENDMDL
MODEL 6
REMARK VINA RESULT:      -7.0      1.980      3.409
REMARK  Name = 
REMARK  3 active torsions:
REMARK  status: ('A' for Active; 'I' for Inactive)
REMARK    1  A    between atoms: C_1  and  O_2
REMARK    2  A    between atoms: O_2  and  C_3
REMARK    3  A    between atoms: N_9  and  C_10
REMARK                            x       y       z     vdW  Elec       q    Type
REMARK                         _______ _______ _______ _____ _____    ______ ____
ROOT
ATOM      1  C   UNL     1       0.274  10.517  21.904  0.00  0.00    +0.000 A 
ATOM      2  C   UNL     1       0.190   9.348  22.668  0.00  0.00    +0.000 A 
ATOM      3  C   UNL     1       0.603   8.135  22.134  0.00  0.00    +0.000 A 
ATOM      4  C   UNL     1       1.121   8.095  20.837  0.00  0.00    +0.000 A 
ATOM      5  C   UNL     1       1.539   6.791  20.276  0.00  0.00    +0.000 A 
ATOM      6  O   UNL     1       1.140   5.765  20.811  0.00  0.00    +0.000 OA
ATOM      7  N   UNL     1       2.392   6.830  19.157  0.00  0.00    +0.000 N 
ATOM      8  C   UNL     1       2.422   7.981  18.382  0.00  0.00    +0.000 A 
ATOM      9  C   UNL     1       1.857   9.148  18.741  0.00  0.00    +0.000 A 
ATOM     10  C   UNL     1       1.235   9.253  20.061  0.00  0.00    +0.000 A 
ATOM     11  C   UNL     1       0.761  10.472  20.576  0.00  0.00    +0.000 A 
ATOM     12  C   UNL     1       0.679  11.699  19.708  0.00  0.00    +0.000 C 
ATOM     13  C   UNL     1       1.505  11.692  18.425  0.00  0.00    +0.000 C 
ATOM     14  C   UNL     1       1.868  10.335  17.826  0.00  0.00    +0.000 C 
ENDROOT
BRANCH   7  15
ATOM     15  C   UNL     1       2.951   5.549  18.642  0.00  0.00    +0.000 C 
ATOM     16  C   UNL     1       3.776   4.729  19.703  0.00  0.00    +0.000 C 
ATOM     17  N   UNL     1       5.137   4.351  19.238  0.00  0.00    +0.000 NA
ATOM     18  C   UNL     1       5.021   3.530  18.022  0.00  0.00    +0.000 C 
ATOM     19  C   UNL     1       4.261   4.271  16.915  0.00  0.00    +0.000 C 
ATOM     20  C   UNL     1       3.881   5.684  17.395  0.00  0.00    +0.000 C 
ATOM     21  C   UNL     1       5.183   6.392  17.810  0.00  0.00    +0.000 C 
ATOM     22  C   UNL     1       5.865   5.598  18.932  0.00  0.00    +0.000 C 
ENDBRANCH   7  15
BRANCH   1  24
ATOM     23  C   UNL     1      -1.472  11.792  22.873  0.00  0.00    +0.000 C 
ATOM     24  O   UNL     1      -0.133  11.741  22.379  0.00  0.00    +0.000 OA
ENDBRANCH   1  24
TORSDOF 2
ENDMDL
MODEL 7
REMARK VINA RESULT:      -6.9      2.721      4.453
REMARK  Name = 
REMARK  3 active torsions:
REMARK  status: ('A' for Active; 'I' for Inactive)
REMARK    1  A    between atoms: C_1  and  O_2
REMARK    2  A    between atoms: O_2  and  C_3
REMARK    3  A    between atoms: N_9  and  C_10
REMARK                            x       y       z     vdW  Elec       q    Type
REMARK                         _______ _______ _______ _____ _____    ______ ____
ROOT
ATOM      1  C   UNL     1       0.478   8.492  21.101  0.00  0.00    +0.000 A 
ATOM      2  C   UNL     1       0.689   7.183  21.547  0.00  0.00    +0.000 A 
ATOM      3  C   UNL     1       1.515   6.327  20.831  0.00  0.00    +0.000 A 
ATOM      4  C   UNL     1       2.148   6.788  19.674  0.00  0.00    +0.000 A 
ATOM      5  C   UNL     1       3.009   5.857  18.911  0.00  0.00    +0.000 A 
ATOM      6  O   UNL     1       2.900   4.655  19.116  0.00  0.00    +0.000 OA
ATOM      7  N   UNL     1       3.914   6.436  18.003  0.00  0.00    +0.000 N 
ATOM      8  C   UNL     1       3.658   7.716  17.531  0.00  0.00    +0.000 A 
ATOM      9  C   UNL     1       2.722   8.535  18.043  0.00  0.00    +0.000 A 
ATOM     10  C   UNL     1       1.969   8.099  19.219  0.00  0.00    +0.000 A 
ATOM     11  C   UNL     1       1.087   8.949  19.907  0.00  0.00    +0.000 A 
ATOM     12  C   UNL     1       0.711  10.294  19.344  0.00  0.00    +0.000 C 
ATOM     13  C   UNL     1       1.622  10.867  18.263  0.00  0.00    +0.000 C 
ATOM     14  C   UNL     1       2.452   9.882  17.442  0.00  0.00    +0.000 C 
ENDROOT
BRANCH   7  15
ATOM     15  C   UNL     1       4.897   5.552  17.315  0.00  0.00    +0.000 C 
ATOM     16  C   UNL     1       5.667   4.570  18.275  0.00  0.00    +0.000 C 
ATOM     17  N   UNL     1       7.147   4.641  18.137  0.00  0.00    +0.000 NA
ATOM     18  C   UNL     1       7.520   4.308  16.753  0.00  0.00    +0.000 C 
ATOM     19  C   UNL     1       6.841   5.245  15.748  0.00  0.00    +0.000 C 
ATOM     20  C   UNL     1       5.998   6.295  16.495  0.00  0.00    +0.000 C 
ATOM     21  C   UNL     1       6.939   7.032  17.465  0.00  0.00    +0.000 C 
ATOM     22  C   UNL     1       7.556   6.026  18.446  0.00  0.00    +0.000 C 
ENDBRANCH   7  15
BRANCH   1  24
ATOM     23  C   UNL     1       0.024   9.648  23.117  0.00  0.00    +0.000 C 
ATOM     24  O   UNL     1      -0.339   9.377  21.763  0.00  0.00    +0.000 OA
ENDBRANCH   1  24
TORSDOF 2
ENDMDL
MODEL 8
REMARK VINA RESULT:      -6.7      2.369      7.198
REMARK  Name = 
REMARK  3 active torsions:
REMARK  status: ('A' for Active; 'I' for Inactive)
REMARK    1  A    between atoms: C_1  and  O_2
REMARK    2  A    between atoms: O_2  and  C_3
REMARK    3  A    between atoms: N_9  and  C_10
REMARK                            x       y       z     vdW  Elec       q    Type
REMARK                         _______ _______ _______ _____ _____    ______ ____
ROOT
ATOM      1  C   UNL     1       3.380   4.429  19.645  0.00  0.00    +0.000 A 
ATOM      2  C   UNL     1       2.521   4.430  20.749  0.00  0.00    +0.000 A 
ATOM      3  C   UNL     1       1.783   5.565  21.058  0.00  0.00    +0.000 A 
ATOM      4  C   UNL     1       1.890   6.697  20.247  0.00  0.00    +0.000 A 
ATOM      5  C   UNL     1       1.112   7.905  20.601  0.00  0.00    +0.000 A 
ATOM      6  O   UNL     1       0.656   7.999  21.733  0.00  0.00    +0.000 OA
ATOM      7  N   UNL     1       0.939   8.864  19.586  0.00  0.00    +0.000 N 
ATOM      8  C   UNL     1       1.834   8.880  18.526  0.00  0.00    +0.000 A 
ATOM      9  C   UNL     1       2.730   7.908  18.280  0.00  0.00    +0.000 A 
ATOM     10  C   UNL     1       2.726   6.714  19.126  0.00  0.00    +0.000 A 
ATOM     11  C   UNL     1       3.520   5.589  18.845  0.00  0.00    +0.000 A 
ATOM     12  C   UNL     1       4.576   5.634  17.773  0.00  0.00    +0.000 C 
ATOM     13  C   UNL     1       4.465   6.754  16.743  0.00  0.00    +0.000 C 
ATOM     14  C   UNL     1       3.714   8.020  17.154  0.00  0.00    +0.000 C 
ENDROOT
BRANCH   7  15
ATOM     15  C   UNL     1       0.048  10.029  19.851  0.00  0.00    +0.000 C 
ATOM     16  C   UNL     1      -0.473  10.753  18.554  0.00  0.00    +0.000 C 
ATOM     17  N   UNL     1      -0.225  12.219  18.549  0.00  0.00    +0.000 NA
ATOM     18  C   UNL     1      -0.897  12.827  19.709  0.00  0.00    +0.000 C 
ATOM     19  C   UNL     1      -0.417  12.204  21.025  0.00  0.00    +0.000 C 
ATOM     20  C   UNL     1       0.669  11.151  20.743  0.00  0.00    +0.000 C 
ATOM     21  C   UNL     1       1.795  11.851  19.961  0.00  0.00    +0.000 C 
ATOM     22  C   UNL     1       1.234  12.424  18.653  0.00  0.00    +0.000 C 
ENDBRANCH   7  15
BRANCH   1  24
ATOM     23  C   UNL     1       3.409   2.178  18.909  0.00  0.00    +0.000 C 
ATOM     24  O   UNL     1       4.142   3.338  19.301  0.00  0.00    +0.000 OA
ENDBRANCH   1  24
TORSDOF 2
ENDMDL
MODEL 9
REMARK VINA RESULT:      -6.7      1.911      3.299
REMARK  Name = 
REMARK  3 active torsions:
REMARK  status: ('A' for Active; 'I' for Inactive)
REMARK    1  A    between atoms: C_1  and  O_2
REMARK    2  A    between atoms: O_2  and  C_3
REMARK    3  A    between atoms: N_9  and  C_10
REMARK                            x       y       z     vdW  Elec       q    Type
REMARK                         _______ _______ _______ _____ _____    ______ ____
ROOT
ATOM      1  C   UNL     1       0.218  10.248  21.270  0.00  0.00    +0.000 A 
ATOM      2  C   UNL     1       0.024   9.247  22.229  0.00  0.00    +0.000 A 
ATOM      3  C   UNL     1       0.503   7.964  22.003  0.00  0.00    +0.000 A 
ATOM      4  C   UNL     1       1.197   7.685  20.823  0.00  0.00    +0.000 A 
ATOM      5  C   UNL     1       1.684   6.307  20.589  0.00  0.00    +0.000 A 
ATOM      6  O   UNL     1       1.210   5.396  21.255  0.00  0.00    +0.000 OA
ATOM      7  N   UNL     1       2.684   6.149  19.613  0.00  0.00    +0.000 N 
ATOM      8  C   UNL     1       2.825   7.128  18.639  0.00  0.00    +0.000 A 
ATOM      9  C   UNL     1       2.221   8.329  18.683  0.00  0.00    +0.000 A 
ATOM     10  C   UNL     1       1.421   8.674  19.859  0.00  0.00    +0.000 A 
ATOM     11  C   UNL     1       0.885   9.958  20.056  0.00  0.00    +0.000 A 
ATOM     12  C   UNL     1       0.929  10.991  18.962  0.00  0.00    +0.000 C 
ATOM     13  C   UNL     1       1.926  10.755  17.831  0.00  0.00    +0.000 C 
ATOM     14  C   UNL     1       2.363   9.316  17.563  0.00  0.00    +0.000 C 
ENDROOT
BRANCH   7  15
ATOM     15  C   UNL     1       3.304   4.806  19.439  0.00  0.00    +0.000 C 
ATOM     16  C   UNL     1       4.218   4.674  18.164  0.00  0.00    +0.000 C 
ATOM     17  N   UNL     1       3.867   3.518  17.296  0.00  0.00    +0.000 NA
ATOM     18  C   UNL     1       3.992   2.275  18.073  0.00  0.00    +0.000 C 
ATOM     19  C   UNL     1       3.101   2.301  19.321  0.00  0.00    +0.000 C 
ATOM     20  C   UNL     1       2.298   3.614  19.365  0.00  0.00    +0.000 C 
ATOM     21  C   UNL     1       1.500   3.708  18.052  0.00  0.00    +0.000 C 
ATOM     22  C   UNL     1       2.468   3.697  16.861  0.00  0.00    +0.000 C 
ENDBRANCH   7  15
BRANCH   1  24
ATOM     23  C   UNL     1      -1.108  11.730  22.557  0.00  0.00    +0.000 C 
ATOM     24  O   UNL     1      -0.246  11.531  21.436  0.00  0.00    +0.000 OA
ENDBRANCH   1  24
TORSDOF 2
ENDMDL
