MODEL 1
REMARK VINA RESULT:      -7.7      0.000      0.000
REMARK  Name = 
REMARK  2 active torsions:
REMARK  status: ('A' for Active; 'I' for Inactive)
REMARK    1  A    between atoms: C_4  and  C_5
REMARK    2  A    between atoms: N_9  and  C_10
REMARK                            x       y       z     vdW  Elec       q    Type
REMARK                         _______ _______ _______ _____ _____    ______ ____
ROOT
ATOM      1  C   UNL     1       3.665   5.856  18.036  0.00  0.00    +0.000 A 
ATOM      2  C   UNL     1       3.166   7.173  17.983  0.00  0.00    +0.000 A 
ATOM      3  C   UNL     1       2.362   7.494  19.080  0.00  0.00    +0.000 A 
ATOM      4  N   UNL     1       1.724   8.636  19.375  0.00  0.00    +0.000 NA
ATOM      5  N   UNL     1       1.124   8.425  20.581  0.00  0.00    +0.000 N 
ATOM      6  C   UNL     1       1.325   7.138  21.041  0.00  0.00    +0.000 A 
ATOM      7  C   UNL     1       2.111   6.536  20.103  0.00  0.00    +0.000 A 
ATOM      8  C   UNL     1       2.596   5.239  20.117  0.00  0.00    +0.000 A 
ATOM      9  N   UNL     1       3.388   4.926  19.040  0.00  0.00    +0.000 NA
ENDROOT
BRANCH   1  13
ATOM     10  C   UNL     1       6.135   4.366  14.833  0.00  0.00    +0.000 A 
ATOM     11  C   UNL     1       5.889   5.730  14.944  0.00  0.00    +0.000 A 
ATOM     12  C   UNL     1       5.112   6.215  15.999  0.00  0.00    +0.000 A 
ATOM     13  C   UNL     1       4.550   5.350  16.957  0.00  0.00    +0.000 A 
ATOM     14  C   UNL     1       4.843   3.980  16.840  0.00  0.00    +0.000 A 
ATOM     15  C   UNL     1       5.623   3.491  15.787  0.00  0.00    +0.000 A 
ENDBRANCH   1  13
BRANCH   5  16
ATOM     16  C   UNL     1       0.408   9.474  21.226  0.00  0.00    +0.000 A 
ATOM     17  C   UNL     1      -0.125   9.266  22.507  0.00  0.00    +0.000 A 
ATOM     18  C   UNL     1      -0.845  10.279  23.143  0.00  0.00    +0.000 A 
ATOM     19  C   UNL     1      -1.045  11.501  22.503  0.00  0.00    +0.000 A 
ATOM     20  C   UNL     1      -0.517  11.715  21.231  0.00  0.00    +0.000 A 
ATOM     21  C   UNL     1       0.212  10.709  20.592  0.00  0.00    +0.000 A 
ENDBRANCH   5  16
TORSDOF 2
ENDMDL
MODEL 2
REMARK VINA RESULT:      -7.7      0.050      1.055
REMARK  Name = 
REMARK  2 active torsions:
REMARK  status: ('A' for Active; 'I' for Inactive)
REMARK    1  A    between atoms: C_4  and  C_5
REMARK    2  A    between atoms: N_9  and  C_10
REMARK                            x       y       z     vdW  Elec       q    Type
REMARK                         _______ _______ _______ _____ _____    ______ ____
ROOT
ATOM      1  C   UNL     1       3.672   5.844  18.044  0.00  0.00    +0.000 A 
ATOM      2  C   UNL     1       3.166   7.158  17.991  0.00  0.00    +0.000 A 
ATOM      3  C   UNL     1       2.367   7.478  19.093  0.00  0.00    +0.000 A 
ATOM      4  N   UNL     1       1.725   8.616  19.390  0.00  0.00    +0.000 NA
ATOM      5  N   UNL     1       1.133   8.405  20.600  0.00  0.00    +0.000 N 
ATOM      6  C   UNL     1       1.343   7.120  21.061  0.00  0.00    +0.000 A 
ATOM      7  C   UNL     1       2.126   6.520  20.118  0.00  0.00    +0.000 A 
ATOM      8  C   UNL     1       2.618   5.226  20.132  0.00  0.00    +0.000 A 
ATOM      9  N   UNL     1       3.405   4.914  19.051  0.00  0.00    +0.000 NA
ENDROOT
BRANCH   1  13
ATOM     10  C   UNL     1       6.130   4.363  14.828  0.00  0.00    +0.000 A 
ATOM     11  C   UNL     1       5.892   5.728  14.949  0.00  0.00    +0.000 A 
ATOM     12  C   UNL     1       5.118   6.209  16.008  0.00  0.00    +0.000 A 
ATOM     13  C   UNL     1       4.552   5.340  16.961  0.00  0.00    +0.000 A 
ATOM     14  C   UNL     1       4.838   3.970  16.834  0.00  0.00    +0.000 A 
ATOM     15  C   UNL     1       5.614   3.484  15.776  0.00  0.00    +0.000 A 
ENDBRANCH   1  13
BRANCH   5  16
ATOM     16  C   UNL     1       0.416   9.451  21.247  0.00  0.00    +0.000 A 
ATOM     17  C   UNL     1       0.307  10.706  20.627  0.00  0.00    +0.000 A 
ATOM     18  C   UNL     1      -0.377  11.746  21.260  0.00  0.00    +0.000 A 
ATOM     19  C   UNL     1      -0.948  11.545  22.514  0.00  0.00    +0.000 A 
ATOM     20  C   UNL     1      -0.845  10.302  23.135  0.00  0.00    +0.000 A 
ATOM     21  C   UNL     1      -0.170   9.253  22.505  0.00  0.00    +0.000 A 
ENDBRANCH   5  16
TORSDOF 2
ENDMDL
MODEL 3
REMARK VINA RESULT:      -7.7      0.081      1.052
REMARK  Name = 
REMARK  2 active torsions:
REMARK  status: ('A' for Active; 'I' for Inactive)
REMARK    1  A    between atoms: C_4  and  C_5
REMARK    2  A    between atoms: N_9  and  C_10
REMARK                            x       y       z     vdW  Elec       q    Type
REMARK                         _______ _______ _______ _____ _____    ______ ____
ROOT
ATOM      1  C   UNL     1       3.614   5.899  18.034  0.00  0.00    +0.000 A 
ATOM      2  C   UNL     1       3.097   7.209  17.974  0.00  0.00    +0.000 A 
ATOM      3  C   UNL     1       2.318   7.536  19.087  0.00  0.00    +0.000 A 
ATOM      4  N   UNL     1       1.673   8.674  19.382  0.00  0.00    +0.000 NA
ATOM      5  N   UNL     1       1.107   8.474  20.606  0.00  0.00    +0.000 N 
ATOM      6  C   UNL     1       1.337   7.196  21.080  0.00  0.00    +0.000 A 
ATOM      7  C   UNL     1       2.106   6.590  20.130  0.00  0.00    +0.000 A 
ATOM      8  C   UNL     1       2.607   5.300  20.150  0.00  0.00    +0.000 A 
ATOM      9  N   UNL     1       3.375   4.980  19.058  0.00  0.00    +0.000 NA
ENDROOT
BRANCH   1  13
ATOM     10  C   UNL     1       6.218   4.428  14.929  0.00  0.00    +0.000 A 
ATOM     11  C   UNL     1       5.583   3.534  15.785  0.00  0.00    +0.000 A 
ATOM     12  C   UNL     1       4.717   4.010  16.773  0.00  0.00    +0.000 A 
ATOM     13  C   UNL     1       4.477   5.388  16.939  0.00  0.00    +0.000 A 
ATOM     14  C   UNL     1       5.106   6.266  16.039  0.00  0.00    +0.000 A 
ATOM     15  C   UNL     1       5.971   5.792  15.047  0.00  0.00    +0.000 A 
ENDBRANCH   1  13
BRANCH   5  16
ATOM     16  C   UNL     1       0.395   9.523  21.254  0.00  0.00    +0.000 A 
ATOM     17  C   UNL     1      -0.146   9.310  22.531  0.00  0.00    +0.000 A 
ATOM     18  C   UNL     1      -0.863  10.324  23.170  0.00  0.00    +0.000 A 
ATOM     19  C   UNL     1      -1.050  11.551  22.538  0.00  0.00    +0.000 A 
ATOM     20  C   UNL     1      -0.514  11.771  21.270  0.00  0.00    +0.000 A 
ATOM     21  C   UNL     1       0.212  10.764  20.629  0.00  0.00    +0.000 A 
ENDBRANCH   5  16
TORSDOF 2
ENDMDL
MODEL 4
REMARK VINA RESULT:      -7.6      0.099      1.489
REMARK  Name = 
REMARK  2 active torsions:
REMARK  status: ('A' for Active; 'I' for Inactive)
REMARK    1  A    between atoms: C_4  and  C_5
REMARK    2  A    between atoms: N_9  and  C_10
REMARK                            x       y       z     vdW  Elec       q    Type
REMARK                         _______ _______ _______ _____ _____    ______ ____
ROOT
ATOM      1  C   UNL     1       3.662   5.829  18.015  0.00  0.00    +0.000 A 
ATOM      2  C   UNL     1       3.166   7.148  17.977  0.00  0.00    +0.000 A 
ATOM      3  C   UNL     1       2.367   7.460  19.081  0.00  0.00    +0.000 A 
ATOM      4  N   UNL     1       1.733   8.600  19.389  0.00  0.00    +0.000 NA
ATOM      5  N   UNL     1       1.138   8.379  20.596  0.00  0.00    +0.000 N 
ATOM      6  C   UNL     1       1.339   7.087  21.043  0.00  0.00    +0.000 A 
ATOM      7  C   UNL     1       2.119   6.493  20.095  0.00  0.00    +0.000 A 
ATOM      8  C   UNL     1       2.601   5.195  20.095  0.00  0.00    +0.000 A 
ATOM      9  N   UNL     1       3.388   4.890  19.012  0.00  0.00    +0.000 NA
ENDROOT
BRANCH   1  13
ATOM     10  C   UNL     1       6.310   4.393  14.932  0.00  0.00    +0.000 A 
ATOM     11  C   UNL     1       5.638   3.489  15.747  0.00  0.00    +0.000 A 
ATOM     12  C   UNL     1       4.759   3.955  16.728  0.00  0.00    +0.000 A 
ATOM     13  C   UNL     1       4.541   5.332  16.927  0.00  0.00    +0.000 A 
ATOM     14  C   UNL     1       5.207   6.221  16.066  0.00  0.00    +0.000 A 
ATOM     15  C   UNL     1       6.086   5.758  15.082  0.00  0.00    +0.000 A 
ENDBRANCH   1  13
BRANCH   5  16
ATOM     16  C   UNL     1       0.428   9.423  21.254  0.00  0.00    +0.000 A 
ATOM     17  C   UNL     1       0.284  10.669  20.626  0.00  0.00    +0.000 A 
ATOM     18  C   UNL     1      -0.394  11.708  21.268  0.00  0.00    +0.000 A 
ATOM     19  C   UNL     1      -0.924  11.513  22.541  0.00  0.00    +0.000 A 
ATOM     20  C   UNL     1      -0.787  10.278  23.171  0.00  0.00    +0.000 A 
ATOM     21  C   UNL     1      -0.118   9.231  22.531  0.00  0.00    +0.000 A 
ENDBRANCH   5  16
TORSDOF 2
ENDMDL
MODEL 5
REMARK VINA RESULT:      -7.3      0.958      1.183
REMARK  Name = 
REMARK  2 active torsions:
REMARK  status: ('A' for Active; 'I' for Inactive)
REMARK    1  A    between atoms: C_4  and  C_5
REMARK    2  A    between atoms: N_9  and  C_10
REMARK                            x       y       z     vdW  Elec       q    Type
REMARK                         _______ _______ _______ _____ _____    ______ ____
ROOT
ATOM      1  C   UNL     1       3.054   6.578  18.491  0.00  0.00    +0.000 A 
ATOM      2  C   UNL     1       2.510   7.855  18.246  0.00  0.00    +0.000 A 
ATOM      3  C   UNL     1       1.721   8.320  19.303  0.00  0.00    +0.000 A 
ATOM      4  N   UNL     1       1.052   9.474  19.434  0.00  0.00    +0.000 NA
ATOM      5  N   UNL     1       0.487   9.437  20.674  0.00  0.00    +0.000 N 
ATOM      6  C   UNL     1       0.742   8.245  21.323  0.00  0.00    +0.000 A 
ATOM      7  C   UNL     1       1.526   7.527  20.469  0.00  0.00    +0.000 A 
ATOM      8  C   UNL     1       2.055   6.264  20.671  0.00  0.00    +0.000 A 
ATOM      9  N   UNL     1       2.832   5.809  19.635  0.00  0.00    +0.000 NA
ENDROOT
BRANCH   1  13
ATOM     10  C   UNL     1       5.504   4.710  15.475  0.00  0.00    +0.000 A 
ATOM     11  C   UNL     1       5.482   6.095  15.593  0.00  0.00    +0.000 A 
ATOM     12  C   UNL     1       4.710   6.699  16.589  0.00  0.00    +0.000 A 
ATOM     13  C   UNL     1       3.930   5.936  17.480  0.00  0.00    +0.000 A 
ATOM     14  C   UNL     1       3.998   4.536  17.360  0.00  0.00    +0.000 A 
ATOM     15  C   UNL     1       4.773   3.929  16.366  0.00  0.00    +0.000 A 
ENDBRANCH   1  13
BRANCH   5  16
ATOM     16  C   UNL     1      -0.248  10.553  21.168  0.00  0.00    +0.000 A 
ATOM     17  C   UNL     1      -0.566  10.626  22.532  0.00  0.00    +0.000 A 
ATOM     18  C   UNL     1      -1.303  11.705  23.026  0.00  0.00    +0.000 A 
ATOM     19  C   UNL     1      -1.734  12.710  22.162  0.00  0.00    +0.000 A 
ATOM     20  C   UNL     1      -1.422  12.643  20.806  0.00  0.00    +0.000 A 
ATOM     21  C   UNL     1      -0.676  11.572  20.306  0.00  0.00    +0.000 A 
ENDBRANCH   5  16
TORSDOF 2
ENDMDL
MODEL 6
REMARK VINA RESULT:      -7.3      0.936      8.000
REMARK  Name = 
REMARK  2 active torsions:
REMARK  status: ('A' for Active; 'I' for Inactive)
REMARK    1  A    between atoms: C_4  and  C_5
REMARK    2  A    between atoms: N_9  and  C_10
REMARK                            x       y       z     vdW  Elec       q    Type
REMARK                         _______ _______ _______ _____ _____    ______ ____
ROOT
ATOM      1  C   UNL     1       1.219   8.101  20.512  0.00  0.00    +0.000 A 
ATOM      2  C   UNL     1       1.977   8.358  19.352  0.00  0.00    +0.000 A 
ATOM      3  C   UNL     1       2.666   7.232  18.893  0.00  0.00    +0.000 A 
ATOM      4  N   UNL     1       3.474   7.090  17.833  0.00  0.00    +0.000 NA
ATOM      5  N   UNL     1       3.844   5.777  17.820  0.00  0.00    +0.000 N 
ATOM      6  C   UNL     1       3.324   5.083  18.896  0.00  0.00    +0.000 A 
ATOM      7  C   UNL     1       2.573   5.991  19.584  0.00  0.00    +0.000 A 
ATOM      8  C   UNL     1       1.838   5.773  20.737  0.00  0.00    +0.000 A 
ATOM      9  N   UNL     1       1.159   6.879  21.185  0.00  0.00    +0.000 NA
ENDROOT
BRANCH   1  13
ATOM     10  C   UNL     1      -1.023  11.298  22.340  0.00  0.00    +0.000 A 
ATOM     11  C   UNL     1      -0.692  11.363  20.990  0.00  0.00    +0.000 A 
ATOM     12  C   UNL     1       0.010  10.314  20.392  0.00  0.00    +0.000 A 
ATOM     13  C   UNL     1       0.411   9.183  21.129  0.00  0.00    +0.000 A 
ATOM     14  C   UNL     1       0.034   9.127  22.482  0.00  0.00    +0.000 A 
ATOM     15  C   UNL     1      -0.672  10.175  23.083  0.00  0.00    +0.000 A 
ENDBRANCH   1  13
BRANCH   5  16
ATOM     16  C   UNL     1       4.658   5.265  16.771  0.00  0.00    +0.000 A 
ATOM     17  C   UNL     1       5.200   6.143  15.820  0.00  0.00    +0.000 A 
ATOM     18  C   UNL     1       5.985   5.652  14.774  0.00  0.00    +0.000 A 
ATOM     19  C   UNL     1       6.227   4.285  14.667  0.00  0.00    +0.000 A 
ATOM     20  C   UNL     1       5.694   3.407  15.608  0.00  0.00    +0.000 A 
ATOM     21  C   UNL     1       4.916   3.891  16.662  0.00  0.00    +0.000 A 
ENDBRANCH   5  16
TORSDOF 2
ENDMDL
MODEL 7
REMARK VINA RESULT:      -7.2      0.996      1.952
REMARK  Name = 
REMARK  2 active torsions:
REMARK  status: ('A' for Active; 'I' for Inactive)
REMARK    1  A    between atoms: C_4  and  C_5
REMARK    2  A    between atoms: N_9  and  C_10
REMARK                            x       y       z     vdW  Elec       q    Type
REMARK                         _______ _______ _______ _____ _____    ______ ____
ROOT
ATOM      1  C   UNL     1       2.975   6.621  18.508  0.00  0.00    +0.000 A 
ATOM      2  C   UNL     1       2.486   7.921  18.267  0.00  0.00    +0.000 A 
ATOM      3  C   UNL     1       1.717   8.416  19.324  0.00  0.00    +0.000 A 
ATOM      4  N   UNL     1       1.098   9.597  19.458  0.00  0.00    +0.000 NA
ATOM      5  N   UNL     1       0.530   9.581  20.698  0.00  0.00    +0.000 N 
ATOM      6  C   UNL     1       0.733   8.376  21.343  0.00  0.00    +0.000 A 
ATOM      7  C   UNL     1       1.486   7.628  20.487  0.00  0.00    +0.000 A 
ATOM      8  C   UNL     1       1.960   6.343  20.686  0.00  0.00    +0.000 A 
ATOM      9  N   UNL     1       2.719   5.858  19.649  0.00  0.00    +0.000 NA
ENDROOT
BRANCH   1  13
ATOM     10  C   UNL     1       5.534   4.657  15.648  0.00  0.00    +0.000 A 
ATOM     11  C   UNL     1       4.698   3.904  16.466  0.00  0.00    +0.000 A 
ATOM     12  C   UNL     1       3.849   4.542  17.373  0.00  0.00    +0.000 A 
ATOM     13  C   UNL     1       3.824   5.945  17.495  0.00  0.00    +0.000 A 
ATOM     14  C   UNL     1       4.654   6.683  16.632  0.00  0.00    +0.000 A 
ATOM     15  C   UNL     1       5.503   6.046  15.721  0.00  0.00    +0.000 A 
ENDBRANCH   1  13
BRANCH   5  16
ATOM     16  C   UNL     1      -0.157  10.725  21.194  0.00  0.00    +0.000 A 
ATOM     17  C   UNL     1      -0.358  11.832  20.356  0.00  0.00    +0.000 A 
ATOM     18  C   UNL     1      -1.014  12.968  20.836  0.00  0.00    +0.000 A 
ATOM     19  C   UNL     1      -1.465  13.009  22.153  0.00  0.00    +0.000 A 
ATOM     20  C   UNL     1      -1.270  11.913  22.991  0.00  0.00    +0.000 A 
ATOM     21  C   UNL     1      -0.623  10.770  22.515  0.00  0.00    +0.000 A 
ENDBRANCH   5  16
TORSDOF 2
ENDMDL
MODEL 8
REMARK VINA RESULT:      -7.2      1.778      8.429
REMARK  Name = 
REMARK  2 active torsions:
REMARK  status: ('A' for Active; 'I' for Inactive)
REMARK    1  A    between atoms: C_4  and  C_5
REMARK    2  A    between atoms: N_9  and  C_10
REMARK                            x       y       z     vdW  Elec       q    Type
REMARK                         _______ _______ _______ _____ _____    ______ ____
ROOT
ATOM      1  C   UNL     1       2.738   7.026  18.882  0.00  0.00    +0.000 A 
ATOM      2  C   UNL     1       3.353   7.432  17.681  0.00  0.00    +0.000 A 
ATOM      3  C   UNL     1       4.056   6.398  17.055  0.00  0.00    +0.000 A 
ATOM      4  N   UNL     1       4.755   6.402  15.911  0.00  0.00    +0.000 NA
ATOM      5  N   UNL     1       5.198   5.123  15.742  0.00  0.00    +0.000 N 
ATOM      6  C   UNL     1       4.835   4.307  16.796  0.00  0.00    +0.000 A 
ATOM      7  C   UNL     1       4.108   5.099  17.635  0.00  0.00    +0.000 A 
ATOM      8  C   UNL     1       3.513   4.735  18.831  0.00  0.00    +0.000 A 
ATOM      9  N   UNL     1       2.820   5.751  19.443  0.00  0.00    +0.000 NA
ENDROOT
BRANCH   1  13
ATOM     10  C   UNL     1       0.308   9.785  21.135  0.00  0.00    +0.000 A 
ATOM     11  C   UNL     1       0.773   8.618  21.734  0.00  0.00    +0.000 A 
ATOM     12  C   UNL     1       1.583   7.739  21.012  0.00  0.00    +0.000 A 
ATOM     13  C   UNL     1       1.937   7.994  19.672  0.00  0.00    +0.000 A 
ATOM     14  C   UNL     1       1.482   9.197  19.104  0.00  0.00    +0.000 A 
ATOM     15  C   UNL     1       0.672  10.081  19.825  0.00  0.00    +0.000 A 
ENDBRANCH   1  13
BRANCH   5  16
ATOM     16  C   UNL     1       5.927   4.758  14.575  0.00  0.00    +0.000 A 
ATOM     17  C   UNL     1       7.171   5.354  14.319  0.00  0.00    +0.000 A 
ATOM     18  C   UNL     1       7.888   5.019  13.167  0.00  0.00    +0.000 A 
ATOM     19  C   UNL     1       7.366   4.098  12.263  0.00  0.00    +0.000 A 
ATOM     20  C   UNL     1       6.131   3.502  12.511  0.00  0.00    +0.000 A 
ATOM     21  C   UNL     1       5.412   3.824  13.665  0.00  0.00    +0.000 A 
ENDBRANCH   5  16
TORSDOF 2
ENDMDL
MODEL 9
REMARK VINA RESULT:      -7.1      1.018      1.116
REMARK  Name = 
REMARK  2 active torsions:
REMARK  status: ('A' for Active; 'I' for Inactive)
REMARK    1  A    between atoms: C_4  and  C_5
REMARK    2  A    between atoms: N_9  and  C_10
REMARK                            x       y       z     vdW  Elec       q    Type
REMARK                         _______ _______ _______ _____ _____    ______ ____
ROOT
ATOM      1  C   UNL     1       4.113   6.253  17.965  0.00  0.00    +0.000 A 
ATOM      2  C   UNL     1       3.495   7.485  17.671  0.00  0.00    +0.000 A 
ATOM      3  C   UNL     1       2.566   7.871  18.641  0.00  0.00    +0.000 A 
ATOM      4  N   UNL     1       1.794   8.965  18.708  0.00  0.00    +0.000 NA
ATOM      5  N   UNL     1       1.108   8.866  19.882  0.00  0.00    +0.000 N 
ATOM      6  C   UNL     1       1.391   7.689  20.548  0.00  0.00    +0.000 A 
ATOM      7  C   UNL     1       2.315   7.048  19.776  0.00  0.00    +0.000 A 
ATOM      8  C   UNL     1       2.921   5.829  20.026  0.00  0.00    +0.000 A 
ATOM      9  N   UNL     1       3.837   5.453  19.075  0.00  0.00    +0.000 NA
ENDROOT
BRANCH   1  13
ATOM     10  C   UNL     1       7.034   4.532  15.302  0.00  0.00    +0.000 A 
ATOM     11  C   UNL     1       5.946   5.227  14.785  0.00  0.00    +0.000 A 
ATOM     12  C   UNL     1       5.015   5.809  15.649  0.00  0.00    +0.000 A 
ATOM     13  C   UNL     1       5.139   5.698  17.047  0.00  0.00    +0.000 A 
ATOM     14  C   UNL     1       6.267   5.019  17.542  0.00  0.00    +0.000 A 
ATOM     15  C   UNL     1       7.202   4.438  16.680  0.00  0.00    +0.000 A 
ENDBRANCH   1  13
BRANCH   5  16
ATOM     16  C   UNL     1       0.237   9.912  20.301  0.00  0.00    +0.000 A 
ATOM     17  C   UNL     1       0.161  10.249  21.661  0.00  0.00    +0.000 A 
ATOM     18  C   UNL     1      -0.703  11.259  22.089  0.00  0.00    +0.000 A 
ATOM     19  C   UNL     1      -1.501  11.932  21.166  0.00  0.00    +0.000 A 
ATOM     20  C   UNL     1      -1.430  11.603  19.814  0.00  0.00    +0.000 A 
ATOM     21  C   UNL     1      -0.561  10.600  19.377  0.00  0.00    +0.000 A 
ENDBRANCH   5  16
TORSDOF 2
ENDMDL
