MODEL 1
REMARK VINA RESULT:      -7.7      0.000      0.000
REMARK  Name = 
REMARK  5 active torsions:
REMARK  status: ('A' for Active; 'I' for Inactive)
REMARK    1  A    between atoms: C_1  and  O_2
REMARK    2  A    between atoms: O_2  and  C_3
REMARK    3  A    between atoms: C_3  and  C_5
REMARK    4  A    between atoms: C_10  and  C_12
REMARK    5  A    between atoms: C_12  and  C_14
REMARK                            x       y       z     vdW  Elec       q    Type
REMARK                         _______ _______ _______ _____ _____    ______ ____
ROOT
ATOM      1  C   UNL     1       4.237   3.964  19.116  0.00  0.00    +0.000 C 
ATOM      2  O   UNL     1       5.123   3.442  19.792  0.00  0.00    +0.000 OA
ENDROOT
BRANCH   1   3
ATOM      3  C   UNL     1       3.298   4.934  19.674  0.00  0.00    +0.000 A 
ATOM      4  C   UNL     1       2.588   4.745  20.850  0.00  0.00    +0.000 A 
ATOM      5  N   UNL     1       1.869   5.879  21.106  0.00  0.00    +0.000 N 
ATOM      6  C   UNL     1       2.050   6.795  20.096  0.00  0.00    +0.000 A 
ATOM      7  C   UNL     1       1.500   8.073  19.933  0.00  0.00    +0.000 A 
ATOM      8  C   UNL     1       1.843   8.785  18.780  0.00  0.00    +0.000 A 
ATOM      9  C   UNL     1       2.704   8.241  17.833  0.00  0.00    +0.000 A 
ATOM     10  C   UNL     1       3.256   6.969  18.020  0.00  0.00    +0.000 A 
ATOM     11  C   UNL     1       2.933   6.226  19.176  0.00  0.00    +0.000 A 
ATOM     12  H   UNL     1       1.282   6.029  21.916  0.00  0.00    +0.000 HD
ENDBRANCH   1   3
BRANCH   1  18
ATOM     13  C   UNL     1       6.080   5.343  17.110  0.00  0.00    +0.000 C 
ATOM     14  C   UNL     1       6.114   6.195  15.840  0.00  0.00    +0.000 C 
ATOM     15  C   UNL     1       5.900   5.179  14.720  0.00  0.00    +0.000 C 
ATOM     16  C   UNL     1       4.991   4.126  15.336  0.00  0.00    +0.000 C 
ATOM     17  N   UNL     1       5.067   4.340  16.765  0.00  0.00    +0.000 N 
ATOM     18  C   UNL     1       4.206   3.659  17.615  0.00  0.00    +0.000 C 
ATOM     19  O   UNL     1       3.390   2.838  17.203  0.00  0.00    +0.000 OA
BRANCH  13  20
ATOM     20  C   UNL     1       7.410   4.636  17.432  0.00  0.00    +0.000 C 
ATOM     21  O   UNL     1       8.125   4.108  16.587  0.00  0.00    +0.000 OA
BRANCH  20  23
ATOM     22  C   UNL     1       7.823   5.936  19.345  0.00  0.00    +0.000 C 
ATOM     23  O   UNL     1       7.675   4.637  18.767  0.00  0.00    +0.000 OA
ENDBRANCH  20  23
ENDBRANCH  13  20
ENDBRANCH   1  18
TORSDOF 4
ENDMDL
MODEL 2
REMARK VINA RESULT:      -7.6      2.508      5.421
REMARK  Name = 
REMARK  5 active torsions:
REMARK  status: ('A' for Active; 'I' for Inactive)
REMARK    1  A    between atoms: C_1  and  O_2
REMARK    2  A    between atoms: O_2  and  C_3
REMARK    3  A    between atoms: C_3  and  C_5
REMARK    4  A    between atoms: C_10  and  C_12
REMARK    5  A    between atoms: C_12  and  C_14
REMARK                            x       y       z     vdW  Elec       q    Type
REMARK                         _______ _______ _______ _____ _____    ______ ____
ROOT
ATOM      1  C   UNL     1       5.578   5.225  19.070  0.00  0.00    +0.000 C 
ATOM      2  O   UNL     1       6.214   4.874  20.063  0.00  0.00    +0.000 OA
ENDROOT
BRANCH   1   3
ATOM      3  C   UNL     1       6.226   5.550  17.802  0.00  0.00    +0.000 A 
ATOM      4  C   UNL     1       7.123   6.594  17.629  0.00  0.00    +0.000 A 
ATOM      5  N   UNL     1       7.585   6.556  16.343  0.00  0.00    +0.000 N 
ATOM      6  C   UNL     1       6.974   5.539  15.648  0.00  0.00    +0.000 A 
ATOM      7  C   UNL     1       7.125   5.146  14.312  0.00  0.00    +0.000 A 
ATOM      8  C   UNL     1       6.346   4.078  13.857  0.00  0.00    +0.000 A 
ATOM      9  C   UNL     1       5.457   3.427  14.707  0.00  0.00    +0.000 A 
ATOM     10  C   UNL     1       5.332   3.823  16.043  0.00  0.00    +0.000 A 
ATOM     11  C   UNL     1       6.105   4.896  16.534  0.00  0.00    +0.000 A 
ATOM     12  H   UNL     1       8.272   7.185  15.950  0.00  0.00    +0.000 HD
ENDBRANCH   1   3
BRANCH   1  18
ATOM     13  C   UNL     1       3.951   2.642  19.020  0.00  0.00    +0.000 C 
ATOM     14  C   UNL     1       2.844   1.890  18.280  0.00  0.00    +0.000 C 
ATOM     15  C   UNL     1       1.560   2.512  18.824  0.00  0.00    +0.000 C 
ATOM     16  C   UNL     1       1.934   3.961  19.102  0.00  0.00    +0.000 C 
ATOM     17  N   UNL     1       3.380   3.991  19.111  0.00  0.00    +0.000 N 
ATOM     18  C   UNL     1       4.049   5.206  19.154  0.00  0.00    +0.000 C 
ATOM     19  O   UNL     1       3.454   6.280  19.226  0.00  0.00    +0.000 OA
BRANCH  13  20
ATOM     20  C   UNL     1       4.237   2.112  20.437  0.00  0.00    +0.000 C 
ATOM     21  O   UNL     1       3.562   2.394  21.421  0.00  0.00    +0.000 OA
BRANCH  20  23
ATOM     22  C   UNL     1       5.630   0.746  21.747  0.00  0.00    +0.000 C 
ATOM     23  O   UNL     1       5.349   1.327  20.471  0.00  0.00    +0.000 OA
ENDBRANCH  20  23
ENDBRANCH  13  20
ENDBRANCH   1  18
TORSDOF 4
ENDMDL
MODEL 3
REMARK VINA RESULT:      -7.5      2.436      5.489
REMARK  Name = 
REMARK  5 active torsions:
REMARK  status: ('A' for Active; 'I' for Inactive)
REMARK    1  A    between atoms: C_1  and  O_2
REMARK    2  A    between atoms: O_2  and  C_3
REMARK    3  A    between atoms: C_3  and  C_5
REMARK    4  A    between atoms: C_10  and  C_12
REMARK    5  A    between atoms: C_12  and  C_14
REMARK                            x       y       z     vdW  Elec       q    Type
REMARK                         _______ _______ _______ _____ _____    ______ ____
ROOT
ATOM      1  C   UNL     1       5.311   5.561  18.694  0.00  0.00    +0.000 C 
ATOM      2  O   UNL     1       5.813   5.383  19.803  0.00  0.00    +0.000 OA
ENDROOT
BRANCH   1   3
ATOM      3  C   UNL     1       6.118   5.715  17.486  0.00  0.00    +0.000 A 
ATOM      4  C   UNL     1       7.187   6.591  17.368  0.00  0.00    +0.000 A 
ATOM      5  N   UNL     1       7.753   6.417  16.136  0.00  0.00    +0.000 N 
ATOM      6  C   UNL     1       7.049   5.479  15.418  0.00  0.00    +0.000 A 
ATOM      7  C   UNL     1       7.256   5.003  14.117  0.00  0.00    +0.000 A 
ATOM      8  C   UNL     1       6.358   4.053  13.623  0.00  0.00    +0.000 A 
ATOM      9  C   UNL     1       5.299   3.597  14.401  0.00  0.00    +0.000 A 
ATOM     10  C   UNL     1       5.117   4.071  15.704  0.00  0.00    +0.000 A 
ATOM     11  C   UNL     1       6.009   5.029  16.234  0.00  0.00    +0.000 A 
ATOM     12  H   UNL     1       8.568   6.907  15.793  0.00  0.00    +0.000 HD
ENDBRANCH   1   3
BRANCH   1  18
ATOM     13  C   UNL     1       3.745   2.941  18.776  0.00  0.00    +0.000 C 
ATOM     14  C   UNL     1       2.758   2.063  18.005  0.00  0.00    +0.000 C 
ATOM     15  C   UNL     1       1.404   2.708  18.291  0.00  0.00    +0.000 C 
ATOM     16  C   UNL     1       1.715   4.192  18.420  0.00  0.00    +0.000 C 
ATOM     17  N   UNL     1       3.147   4.270  18.612  0.00  0.00    +0.000 N 
ATOM     18  C   UNL     1       3.785   5.503  18.580  0.00  0.00    +0.000 C 
ATOM     19  O   UNL     1       3.169   6.556  18.431  0.00  0.00    +0.000 OA
BRANCH  13  20
ATOM     20  C   UNL     1       3.848   2.609  20.276  0.00  0.00    +0.000 C 
ATOM     21  O   UNL     1       4.651   1.809  20.745  0.00  0.00    +0.000 OA
BRANCH  20  23
ATOM     22  C   UNL     1       2.034   2.442  21.760  0.00  0.00    +0.000 C 
ATOM     23  O   UNL     1       2.918   3.280  21.010  0.00  0.00    +0.000 OA
ENDBRANCH  20  23
ENDBRANCH  13  20
ENDBRANCH   1  18
TORSDOF 4
ENDMDL
MODEL 4
REMARK VINA RESULT:      -7.5      1.075      1.129
REMARK  Name = 
REMARK  5 active torsions:
REMARK  status: ('A' for Active; 'I' for Inactive)
REMARK    1  A    between atoms: C_1  and  O_2
REMARK    2  A    between atoms: O_2  and  C_3
REMARK    3  A    between atoms: C_3  and  C_5
REMARK    4  A    between atoms: C_10  and  C_12
REMARK    5  A    between atoms: C_12  and  C_14
REMARK                            x       y       z     vdW  Elec       q    Type
REMARK                         _______ _______ _______ _____ _____    ______ ____
ROOT
ATOM      1  C   UNL     1       4.730   4.758  19.258  0.00  0.00    +0.000 C 
ATOM      2  O   UNL     1       5.810   4.856  19.838  0.00  0.00    +0.000 OA
ENDROOT
BRANCH   1   3
ATOM      3  C   UNL     1       3.558   5.537  19.650  0.00  0.00    +0.000 A 
ATOM      4  C   UNL     1       2.730   5.216  20.716  0.00  0.00    +0.000 A 
ATOM      5  N   UNL     1       1.785   6.196  20.838  0.00  0.00    +0.000 N 
ATOM      6  C   UNL     1       1.941   7.133  19.842  0.00  0.00    +0.000 A 
ATOM      7  C   UNL     1       1.196   8.287  19.571  0.00  0.00    +0.000 A 
ATOM      8  C   UNL     1       1.567   9.053  18.462  0.00  0.00    +0.000 A 
ATOM      9  C   UNL     1       2.643   8.681  17.662  0.00  0.00    +0.000 A 
ATOM     10  C   UNL     1       3.385   7.533  17.959  0.00  0.00    +0.000 A 
ATOM     11  C   UNL     1       3.038   6.739  19.073  0.00  0.00    +0.000 A 
ATOM     12  H   UNL     1       1.069   6.232  21.550  0.00  0.00    +0.000 HD
ENDBRANCH   1   3
BRANCH   1  18
ATOM     13  C   UNL     1       5.756   5.658  16.526  0.00  0.00    +0.000 C 
ATOM     14  C   UNL     1       5.360   5.883  15.066  0.00  0.00    +0.000 C 
ATOM     15  C   UNL     1       5.415   4.483  14.459  0.00  0.00    +0.000 C 
ATOM     16  C   UNL     1       5.005   3.562  15.600  0.00  0.00    +0.000 C 
ATOM     17  N   UNL     1       5.139   4.356  16.802  0.00  0.00    +0.000 N 
ATOM     18  C   UNL     1       4.664   3.869  18.012  0.00  0.00    +0.000 C 
ATOM     19  O   UNL     1       4.159   2.753  18.117  0.00  0.00    +0.000 OA
BRANCH  13  20
ATOM     20  C   UNL     1       7.275   5.564  16.761  0.00  0.00    +0.000 C 
ATOM     21  O   UNL     1       7.851   4.536  17.101  0.00  0.00    +0.000 OA
BRANCH  20  23
ATOM     22  C   UNL     1       7.644   7.720  17.617  0.00  0.00    +0.000 C 
ATOM     23  O   UNL     1       7.892   6.764  16.583  0.00  0.00    +0.000 OA
ENDBRANCH  20  23
ENDBRANCH  13  20
ENDBRANCH   1  18
TORSDOF 4
ENDMDL
MODEL 5
REMARK VINA RESULT:      -7.4      2.351      3.984
REMARK  Name = 
REMARK  5 active torsions:
REMARK  status: ('A' for Active; 'I' for Inactive)
REMARK    1  A    between atoms: C_1  and  O_2
REMARK    2  A    between atoms: O_2  and  C_3
REMARK    3  A    between atoms: C_3  and  C_5
REMARK    4  A    between atoms: C_10  and  C_12
REMARK    5  A    between atoms: C_12  and  C_14
REMARK                            x       y       z     vdW  Elec       q    Type
REMARK                         _______ _______ _______ _____ _____    ______ ____
ROOT
ATOM      1  C   UNL     1       2.838   6.737  18.442  0.00  0.00    +0.000 C 
ATOM      2  O   UNL     1       2.426   7.748  19.009  0.00  0.00    +0.000 OA
ENDROOT
BRANCH   1   3
ATOM      3  C   UNL     1       2.157   5.449  18.547  0.00  0.00    +0.000 A 
ATOM      4  C   UNL     1       1.523   4.814  17.490  0.00  0.00    +0.000 A 
ATOM      5  N   UNL     1       1.063   3.603  17.928  0.00  0.00    +0.000 N 
ATOM      6  C   UNL     1       1.335   3.448  19.268  0.00  0.00    +0.000 A 
ATOM      7  C   UNL     1       1.035   2.385  20.128  0.00  0.00    +0.000 A 
ATOM      8  C   UNL     1       1.414   2.506  21.468  0.00  0.00    +0.000 A 
ATOM      9  C   UNL     1       2.070   3.644  21.925  0.00  0.00    +0.000 A 
ATOM     10  C   UNL     1       2.377   4.689  21.048  0.00  0.00    +0.000 A 
ATOM     11  C   UNL     1       2.011   4.596  19.688  0.00  0.00    +0.000 A 
ATOM     12  H   UNL     1       0.585   2.918  17.358  0.00  0.00    +0.000 HD
ENDBRANCH   1   3
BRANCH   1  18
ATOM     13  C   UNL     1       5.530   5.406  18.998  0.00  0.00    +0.000 C 
ATOM     14  C   UNL     1       7.023   5.668  19.203  0.00  0.00    +0.000 C 
ATOM     15  C   UNL     1       7.560   5.819  17.782  0.00  0.00    +0.000 C 
ATOM     16  C   UNL     1       6.409   6.450  17.011  0.00  0.00    +0.000 C 
ATOM     17  N   UNL     1       5.239   6.254  17.838  0.00  0.00    +0.000 N 
ATOM     18  C   UNL     1       4.044   6.880  17.507  0.00  0.00    +0.000 C 
ATOM     19  O   UNL     1       3.924   7.575  16.501  0.00  0.00    +0.000 OA
BRANCH  13  20
ATOM     20  C   UNL     1       5.186   3.943  18.661  0.00  0.00    +0.000 C 
ATOM     21  O   UNL     1       4.815   3.566  17.554  0.00  0.00    +0.000 OA
BRANCH  20  23
ATOM     22  C   UNL     1       4.586   1.898  19.650  0.00  0.00    +0.000 C 
ATOM     23  O   UNL     1       5.305   3.130  19.746  0.00  0.00    +0.000 OA
ENDBRANCH  20  23
ENDBRANCH  13  20
ENDBRANCH   1  18
TORSDOF 4
ENDMDL
MODEL 6
REMARK VINA RESULT:      -7.4      2.039      3.582
REMARK  Name = 
REMARK  5 active torsions:
REMARK  status: ('A' for Active; 'I' for Inactive)
REMARK    1  A    between atoms: C_1  and  O_2
REMARK    2  A    between atoms: O_2  and  C_3
REMARK    3  A    between atoms: C_3  and  C_5
REMARK    4  A    between atoms: C_10  and  C_12
REMARK    5  A    between atoms: C_12  and  C_14
REMARK                            x       y       z     vdW  Elec       q    Type
REMARK                         _______ _______ _______ _____ _____    ______ ____
ROOT
ATOM      1  C   UNL     1       5.898   4.664  19.039  0.00  0.00    +0.000 C 
ATOM      2  O   UNL     1       6.058   5.578  19.847  0.00  0.00    +0.000 OA
ENDROOT
BRANCH   1   3
ATOM      3  C   UNL     1       4.743   3.771  19.087  0.00  0.00    +0.000 A 
ATOM      4  C   UNL     1       4.751   2.461  18.630  0.00  0.00    +0.000 A 
ATOM      5  N   UNL     1       3.532   1.904  18.899  0.00  0.00    +0.000 N 
ATOM      6  C   UNL     1       2.701   2.835  19.479  0.00  0.00    +0.000 A 
ATOM      7  C   UNL     1       1.372   2.713  19.900  0.00  0.00    +0.000 A 
ATOM      8  C   UNL     1       0.755   3.846  20.440  0.00  0.00    +0.000 A 
ATOM      9  C   UNL     1       1.444   5.049  20.556  0.00  0.00    +0.000 A 
ATOM     10  C   UNL     1       2.778   5.147  20.145  0.00  0.00    +0.000 A 
ATOM     11  C   UNL     1       3.430   4.021  19.598  0.00  0.00    +0.000 A 
ATOM     12  H   UNL     1       3.269   0.949  18.699  0.00  0.00    +0.000 HD
ENDBRANCH   1   3
BRANCH   1  18
ATOM     13  C   UNL     1       5.098   5.046  16.117  0.00  0.00    +0.000 C 
ATOM     14  C   UNL     1       5.075   4.378  14.742  0.00  0.00    +0.000 C 
ATOM     15  C   UNL     1       6.498   4.575  14.222  0.00  0.00    +0.000 C 
ATOM     16  C   UNL     1       7.364   4.529  15.473  0.00  0.00    +0.000 C 
ATOM     17  N   UNL     1       6.452   4.721  16.580  0.00  0.00    +0.000 N 
ATOM     18  C   UNL     1       6.897   4.547  17.883  0.00  0.00    +0.000 C 
ATOM     19  O   UNL     1       8.065   4.269  18.146  0.00  0.00    +0.000 OA
BRANCH  13  20
ATOM     20  C   UNL     1       4.925   6.576  16.080  0.00  0.00    +0.000 C 
ATOM     21  O   UNL     1       5.003   7.248  15.057  0.00  0.00    +0.000 OA
BRANCH  20  23
ATOM     22  C   UNL     1       3.368   7.501  17.577  0.00  0.00    +0.000 C 
ATOM     23  O   UNL     1       4.715   7.093  17.322  0.00  0.00    +0.000 OA
ENDBRANCH  20  23
ENDBRANCH  13  20
ENDBRANCH   1  18
TORSDOF 4
ENDMDL
MODEL 7
REMARK VINA RESULT:      -7.3      1.756      2.706
REMARK  Name = 
REMARK  5 active torsions:
REMARK  status: ('A' for Active; 'I' for Inactive)
REMARK    1  A    between atoms: C_1  and  O_2
REMARK    2  A    between atoms: O_2  and  C_3
REMARK    3  A    between atoms: C_3  and  C_5
REMARK    4  A    between atoms: C_10  and  C_12
REMARK    5  A    between atoms: C_12  and  C_14
REMARK                            x       y       z     vdW  Elec       q    Type
REMARK                         _______ _______ _______ _____ _____    ______ ____
ROOT
ATOM      1  C   UNL     1       2.807   5.940  19.140  0.00  0.00    +0.000 C 
ATOM      2  O   UNL     1       3.203   5.529  20.230  0.00  0.00    +0.000 OA
ENDROOT
BRANCH   1   3
ATOM      3  C   UNL     1       2.378   7.321  18.934  0.00  0.00    +0.000 A 
ATOM      4  C   UNL     1       2.620   8.048  17.778  0.00  0.00    +0.000 A 
ATOM      5  N   UNL     1       2.016   9.268  17.902  0.00  0.00    +0.000 N 
ATOM      6  C   UNL     1       1.422   9.381  19.138  0.00  0.00    +0.000 A 
ATOM      7  C   UNL     1       0.714  10.450  19.701  0.00  0.00    +0.000 A 
ATOM      8  C   UNL     1       0.236  10.298  21.005  0.00  0.00    +0.000 A 
ATOM      9  C   UNL     1       0.456   9.121  21.715  0.00  0.00    +0.000 A 
ATOM     10  C   UNL     1       1.151   8.057  21.131  0.00  0.00    +0.000 A 
ATOM     11  C   UNL     1       1.644   8.178  19.814  0.00  0.00    +0.000 A 
ATOM     12  H   UNL     1       2.006   9.990  17.195  0.00  0.00    +0.000 HD
ENDBRANCH   1   3
BRANCH   1  18
ATOM     13  C   UNL     1       5.384   5.444  17.578  0.00  0.00    +0.000 C 
ATOM     14  C   UNL     1       6.023   5.509  16.190  0.00  0.00    +0.000 C 
ATOM     15  C   UNL     1       5.542   4.229  15.512  0.00  0.00    +0.000 C 
ATOM     16  C   UNL     1       4.155   3.994  16.094  0.00  0.00    +0.000 C 
ATOM     17  N   UNL     1       4.089   4.825  17.276  0.00  0.00    +0.000 N 
ATOM     18  C   UNL     1       2.882   4.985  17.944  0.00  0.00    +0.000 C 
ATOM     19  O   UNL     1       1.855   4.411  17.590  0.00  0.00    +0.000 OA
BRANCH  13  20
ATOM     20  C   UNL     1       6.149   4.565  18.585  0.00  0.00    +0.000 C 
ATOM     21  O   UNL     1       5.606   3.790  19.365  0.00  0.00    +0.000 OA
BRANCH  20  23
ATOM     22  C   UNL     1       7.946   5.905  19.290  0.00  0.00    +0.000 C 
ATOM     23  O   UNL     1       7.492   4.782  18.530  0.00  0.00    +0.000 OA
ENDBRANCH  20  23
ENDBRANCH  13  20
ENDBRANCH   1  18
TORSDOF 4
ENDMDL
MODEL 8
REMARK VINA RESULT:      -7.3      2.509      3.922
REMARK  Name = 
REMARK  5 active torsions:
REMARK  status: ('A' for Active; 'I' for Inactive)
REMARK    1  A    between atoms: C_1  and  O_2
REMARK    2  A    between atoms: O_2  and  C_3
REMARK    3  A    between atoms: C_3  and  C_5
REMARK    4  A    between atoms: C_10  and  C_12
REMARK    5  A    between atoms: C_12  and  C_14
REMARK                            x       y       z     vdW  Elec       q    Type
REMARK                         _______ _______ _______ _____ _____    ______ ____
ROOT
ATOM      1  C   UNL     1       3.834   4.499  17.298  0.00  0.00    +0.000 C 
ATOM      2  O   UNL     1       3.550   4.003  16.208  0.00  0.00    +0.000 OA
ENDROOT
BRANCH   1   3
ATOM      3  C   UNL     1       3.846   3.719  18.533  0.00  0.00    +0.000 A 
ATOM      4  C   UNL     1       4.953   3.033  19.010  0.00  0.00    +0.000 A 
ATOM      5  N   UNL     1       4.629   2.481  20.218  0.00  0.00    +0.000 N 
ATOM      6  C   UNL     1       3.315   2.747  20.525  0.00  0.00    +0.000 A 
ATOM      7  C   UNL     1       2.559   2.367  21.641  0.00  0.00    +0.000 A 
ATOM      8  C   UNL     1       1.218   2.761  21.681  0.00  0.00    +0.000 A 
ATOM      9  C   UNL     1       0.660   3.506  20.648  0.00  0.00    +0.000 A 
ATOM     10  C   UNL     1       1.435   3.890  19.549  0.00  0.00    +0.000 A 
ATOM     11  C   UNL     1       2.793   3.512  19.479  0.00  0.00    +0.000 A 
ATOM     12  H   UNL     1       5.257   1.949  20.805  0.00  0.00    +0.000 HD
ENDBRANCH   1   3
BRANCH   1  18
ATOM     13  C   UNL     1       6.779   5.302  17.210  0.00  0.00    +0.000 C 
ATOM     14  C   UNL     1       7.877   6.068  17.950  0.00  0.00    +0.000 C 
ATOM     15  C   UNL     1       7.623   7.523  17.562  0.00  0.00    +0.000 C 
ATOM     16  C   UNL     1       6.112   7.611  17.401  0.00  0.00    +0.000 C 
ATOM     17  N   UNL     1       5.656   6.242  17.293  0.00  0.00    +0.000 N 
ATOM     18  C   UNL     1       4.298   5.959  17.321  0.00  0.00    +0.000 C 
ATOM     19  O   UNL     1       3.445   6.841  17.397  0.00  0.00    +0.000 OA
BRANCH  13  20
ATOM     20  C   UNL     1       7.096   5.014  15.731  0.00  0.00    +0.000 C 
ATOM     21  O   UNL     1       7.776   5.748  15.023  0.00  0.00    +0.000 OA
BRANCH  20  23
ATOM     22  C   UNL     1       6.185   3.852  13.903  0.00  0.00    +0.000 C 
ATOM     23  O   UNL     1       6.500   3.869  15.298  0.00  0.00    +0.000 OA
ENDBRANCH  20  23
ENDBRANCH  13  20
ENDBRANCH   1  18
TORSDOF 4
ENDMDL
MODEL 9
REMARK VINA RESULT:      -7.3      2.012      5.604
REMARK  Name = 
REMARK  5 active torsions:
REMARK  status: ('A' for Active; 'I' for Inactive)
REMARK    1  A    between atoms: C_1  and  O_2
REMARK    2  A    between atoms: O_2  and  C_3
REMARK    3  A    between atoms: C_3  and  C_5
REMARK    4  A    between atoms: C_10  and  C_12
REMARK    5  A    between atoms: C_12  and  C_14
REMARK                            x       y       z     vdW  Elec       q    Type
REMARK                         _______ _______ _______ _____ _____    ______ ____
ROOT
ATOM      1  C   UNL     1       5.304   4.665  19.162  0.00  0.00    +0.000 C 
ATOM      2  O   UNL     1       5.248   5.642  19.908  0.00  0.00    +0.000 OA
ENDROOT
BRANCH   1   3
ATOM      3  C   UNL     1       6.199   4.611  18.010  0.00  0.00    +0.000 A 
ATOM      4  C   UNL     1       7.583   4.654  18.095  0.00  0.00    +0.000 A 
ATOM      5  N   UNL     1       8.097   4.506  16.837  0.00  0.00    +0.000 N 
ATOM      6  C   UNL     1       7.079   4.416  15.915  0.00  0.00    +0.000 A 
ATOM      7  C   UNL     1       7.138   4.276  14.523  0.00  0.00    +0.000 A 
ATOM      8  C   UNL     1       5.929   4.236  13.823  0.00  0.00    +0.000 A 
ATOM      9  C   UNL     1       4.712   4.329  14.491  0.00  0.00    +0.000 A 
ATOM     10  C   UNL     1       4.672   4.451  15.884  0.00  0.00    +0.000 A 
ATOM     11  C   UNL     1       5.876   4.492  16.621  0.00  0.00    +0.000 A 
ATOM     12  H   UNL     1       9.081   4.471  16.607  0.00  0.00    +0.000 HD
ENDBRANCH   1   3
BRANCH   1  18
ATOM     13  C   UNL     1       2.273   4.742  19.529  0.00  0.00    +0.000 C 
ATOM     14  C   UNL     1       1.138   4.468  20.516  0.00  0.00    +0.000 C 
ATOM     15  C   UNL     1       0.938   2.957  20.423  0.00  0.00    +0.000 C 
ATOM     16  C   UNL     1       2.330   2.410  20.141  0.00  0.00    +0.000 C 
ATOM     17  N   UNL     1       3.108   3.548  19.702  0.00  0.00    +0.000 N 
ATOM     18  C   UNL     1       4.481   3.428  19.539  0.00  0.00    +0.000 C 
ATOM     19  O   UNL     1       5.073   2.366  19.718  0.00  0.00    +0.000 OA
BRANCH  13  20
ATOM     20  C   UNL     1       1.823   4.844  18.060  0.00  0.00    +0.000 C 
ATOM     21  O   UNL     1       1.633   3.873  17.336  0.00  0.00    +0.000 OA
BRANCH  20  23
ATOM     22  C   UNL     1       2.710   7.017  18.157  0.00  0.00    +0.000 C 
ATOM     23  O   UNL     1       1.701   6.138  17.655  0.00  0.00    +0.000 OA
ENDBRANCH  20  23
ENDBRANCH  13  20
ENDBRANCH   1  18
TORSDOF 4
ENDMDL
