MODEL 1
REMARK VINA RESULT:      -7.1      0.000      0.000
REMARK  Name = 
REMARK  7 active torsions:
REMARK  status: ('A' for Active; 'I' for Inactive)
REMARK    1  A    between atoms: C_1  and  C_2
REMARK    2  A    between atoms: N_4  and  C_5
REMARK    3  A    between atoms: N_4  and  C_21
REMARK    4  A    between atoms: C_6  and  N_7
REMARK    5  A    between atoms: N_7  and  C_8
REMARK    6  A    between atoms: C_8  and  C_9
REMARK    7  A    between atoms: C_9  and  O_10
REMARK                            x       y       z     vdW  Elec       q    Type
REMARK                         _______ _______ _______ _____ _____    ______ ____
ROOT
ATOM      1  C   UNL     1       2.641   6.380  18.864  0.00  0.00    +0.000 C 
ATOM      2  C   UNL     1       2.161   6.376  20.126  0.00  0.00    +0.000 C 
ATOM      3  C   UNL     1       1.380   7.550  20.657  0.00  0.00    +0.000 C 
ATOM      4  O   UNL     1       0.783   7.453  21.727  0.00  0.00    +0.000 OA
ATOM      5  C   UNL     1       1.423   8.818  19.920  0.00  0.00    +0.000 A 
ATOM      6  C   UNL     1       0.903   9.983  20.501  0.00  0.00    +0.000 A 
ATOM      7  C   UNL     1       0.993  11.199  19.828  0.00  0.00    +0.000 A 
ATOM      8  C   UNL     1       1.600  11.255  18.567  0.00  0.00    +0.000 A 
ATOM      9  C   UNL     1       2.097  10.090  17.984  0.00  0.00    +0.000 A 
ATOM     10  C   UNL     1       2.006   8.866  18.664  0.00  0.00    +0.000 A 
ATOM     11  C   UNL     1       2.486   7.631  18.023  0.00  0.00    +0.000 C 
ATOM     12  O   UNL     1       2.714   7.658  16.818  0.00  0.00    +0.000 OA
ENDROOT
BRANCH   1  16
ATOM     13  C   UNL     1       1.202   4.155  17.390  0.00  0.00    +0.000 C 
ATOM     14  C   UNL     1       2.633   4.076  17.885  0.00  0.00    +0.000 C 
ATOM     15  O   UNL     1       3.207   2.982  17.861  0.00  0.00    +0.000 OA
ATOM     16  N   UNL     1       3.281   5.269  18.267  0.00  0.00    +0.000 N 
BRANCH  16  17
ATOM     17  C   UNL     1       4.699   5.280  18.068  0.00  0.00    +0.000 A 
ATOM     18  C   UNL     1       5.575   5.512  19.143  0.00  0.00    +0.000 A 
ATOM     19  C   UNL     1       6.956   5.548  18.933  0.00  0.00    +0.000 A 
ATOM     20  C   UNL     1       7.467   5.392  17.644  0.00  0.00    +0.000 A 
ATOM     21  C   UNL     1       6.602   5.177  16.576  0.00  0.00    +0.000 A 
ATOM     22 BR   UNL     1       7.293   5.043  14.820  0.00  0.00    +0.000 Br
ATOM     23  C   UNL     1       5.227   5.090  16.782  0.00  0.00    +0.000 A 
ENDBRANCH  16  17
ENDBRANCH   1  16
BRANCH   2  24
ATOM     24  N   UNL     1       2.306   5.348  21.062  0.00  0.00    +0.000 N 
ATOM     25  H   UNL     1       3.300   5.151  21.220  0.00  0.00    +0.000 HD
BRANCH  24  26
ATOM     26  C   UNL     1       1.497   4.122  21.063  0.00  0.00    +0.000 C 
BRANCH  26  27
ATOM     27  C   UNL     1       2.293   2.937  21.615  0.00  0.00    +0.000 C 
BRANCH  27  28
ATOM     28  O   UNL     1       3.436   2.669  20.805  0.00  0.00    +0.000 OA
ATOM     29  H   UNL     1       3.146   2.107  20.066  0.00  0.00    +0.000 HD
ENDBRANCH  27  28
ENDBRANCH  26  27
ENDBRANCH  24  26
ENDBRANCH   2  24
TORSDOF 6
ENDMDL
MODEL 2
REMARK VINA RESULT:      -6.8      1.090      1.423
REMARK  Name = 
REMARK  7 active torsions:
REMARK  status: ('A' for Active; 'I' for Inactive)
REMARK    1  A    between atoms: C_1  and  C_2
REMARK    2  A    between atoms: N_4  and  C_5
REMARK    3  A    between atoms: N_4  and  C_21
REMARK    4  A    between atoms: C_6  and  N_7
REMARK    5  A    between atoms: N_7  and  C_8
REMARK    6  A    between atoms: C_8  and  C_9
REMARK    7  A    between atoms: C_9  and  O_10
REMARK                            x       y       z     vdW  Elec       q    Type
REMARK                         _______ _______ _______ _____ _____    ______ ____
ROOT
ATOM      1  C   UNL     1       2.630   6.662  18.824  0.00  0.00    +0.000 C 
ATOM      2  C   UNL     1       2.168   6.585  20.091  0.00  0.00    +0.000 C 
ATOM      3  C   UNL     1       1.344   7.702  20.678  0.00  0.00    +0.000 C 
ATOM      4  O   UNL     1       0.767   7.535  21.751  0.00  0.00    +0.000 OA
ATOM      5  C   UNL     1       1.321   8.999  19.993  0.00  0.00    +0.000 A 
ATOM      6  C   UNL     1       0.759  10.115  20.627  0.00  0.00    +0.000 A 
ATOM      7  C   UNL     1       0.787  11.360  20.003  0.00  0.00    +0.000 A 
ATOM      8  C   UNL     1       1.373  11.493  18.738  0.00  0.00    +0.000 A 
ATOM      9  C   UNL     1       1.912  10.376  18.102  0.00  0.00    +0.000 A 
ATOM     10  C   UNL     1       1.884   9.123  18.733  0.00  0.00    +0.000 A 
ATOM     11  C   UNL     1       2.409   7.937  18.037  0.00  0.00    +0.000 C 
ATOM     12  O   UNL     1       2.619   8.023  16.831  0.00  0.00    +0.000 OA
ENDROOT
BRANCH   1  16
ATOM     13  C   UNL     1       1.266   4.352  17.410  0.00  0.00    +0.000 C 
ATOM     14  C   UNL     1       2.726   4.372  17.817  0.00  0.00    +0.000 C 
ATOM     15  O   UNL     1       3.374   3.322  17.743  0.00  0.00    +0.000 OA
ATOM     16  N   UNL     1       3.310   5.605  18.175  0.00  0.00    +0.000 N 
BRANCH  16  17
ATOM     17  C   UNL     1       4.709   5.719  17.891  0.00  0.00    +0.000 A 
ATOM     18  C   UNL     1       5.165   5.865  16.569  0.00  0.00    +0.000 A 
ATOM     19  C   UNL     1       6.534   5.948  16.301  0.00  0.00    +0.000 A 
ATOM     20  C   UNL     1       7.454   5.848  17.344  0.00  0.00    +0.000 A 
ATOM     21  C   UNL     1       7.006   5.690  18.653  0.00  0.00    +0.000 A 
ATOM     22 BR   UNL     1       8.258   5.477  20.054  0.00  0.00    +0.000 Br
ATOM     23  C   UNL     1       5.643   5.655  18.936  0.00  0.00    +0.000 A 
ENDBRANCH  16  17
ENDBRANCH   1  16
BRANCH   2  24
ATOM     24  N   UNL     1       2.371   5.528  20.982  0.00  0.00    +0.000 N 
ATOM     25  H   UNL     1       3.372   5.328  21.071  0.00  0.00    +0.000 HD
BRANCH  24  26
ATOM     26  C   UNL     1       1.563   4.302  20.994  0.00  0.00    +0.000 C 
BRANCH  26  27
ATOM     27  C   UNL     1       2.342   3.134  21.605  0.00  0.00    +0.000 C 
BRANCH  27  28
ATOM     28  O   UNL     1       3.284   2.607  20.673  0.00  0.00    +0.000 OA
ATOM     29  H   UNL     1       4.054   3.202  20.665  0.00  0.00    +0.000 HD
ENDBRANCH  27  28
ENDBRANCH  26  27
ENDBRANCH  24  26
ENDBRANCH   2  24
TORSDOF 6
ENDMDL
MODEL 3
REMARK VINA RESULT:      -6.6      5.669      8.572
REMARK  Name = 
REMARK  7 active torsions:
REMARK  status: ('A' for Active; 'I' for Inactive)
REMARK    1  A    between atoms: C_1  and  C_2
REMARK    2  A    between atoms: N_4  and  C_5
REMARK    3  A    between atoms: N_4  and  C_21
REMARK    4  A    between atoms: C_6  and  N_7
REMARK    5  A    between atoms: N_7  and  C_8
REMARK    6  A    between atoms: C_8  and  C_9
REMARK    7  A    between atoms: C_9  and  O_10
REMARK                            x       y       z     vdW  Elec       q    Type
REMARK                         _______ _______ _______ _____ _____    ______ ____
ROOT
ATOM      1  C   UNL     1      -2.260  12.174  19.072  0.00  0.00    +0.000 C 
ATOM      2  C   UNL     1      -2.898  11.856  17.926  0.00  0.00    +0.000 C 
ATOM      3  C   UNL     1      -4.394  11.999  17.812  0.00  0.00    +0.000 C 
ATOM      4  O   UNL     1      -4.935  11.898  16.713  0.00  0.00    +0.000 OA
ATOM      5  C   UNL     1      -5.182  12.170  19.037  0.00  0.00    +0.000 A 
ATOM      6  C   UNL     1      -6.580  12.074  18.989  0.00  0.00    +0.000 A 
ATOM      7  C   UNL     1      -7.328  12.180  20.160  0.00  0.00    +0.000 A 
ATOM      8  C   UNL     1      -6.680  12.387  21.384  0.00  0.00    +0.000 A 
ATOM      9  C   UNL     1      -5.291  12.502  21.424  0.00  0.00    +0.000 A 
ATOM     10  C   UNL     1      -4.540  12.395  20.245  0.00  0.00    +0.000 A 
ATOM     11  C   UNL     1      -3.079  12.567  20.285  0.00  0.00    +0.000 C 
ATOM     12  O   UNL     1      -2.584  13.055  21.296  0.00  0.00    +0.000 OA
ENDROOT
BRANCH   1  16
ATOM     13  C   UNL     1      -0.526  14.662  19.044  0.00  0.00    +0.000 C 
ATOM     14  C   UNL     1      -0.009  13.249  18.865  0.00  0.00    +0.000 C 
ATOM     15  O   UNL     1       1.162  13.090  18.501  0.00  0.00    +0.000 OA
ATOM     16  N   UNL     1      -0.852  12.172  19.209  0.00  0.00    +0.000 N 
BRANCH  16  17
ATOM     17  C   UNL     1      -0.179  10.996  19.671  0.00  0.00    +0.000 A 
ATOM     18  C   UNL     1      -0.181  10.653  21.034  0.00  0.00    +0.000 A 
ATOM     19  C   UNL     1       0.502   9.518  21.477  0.00  0.00    +0.000 A 
ATOM     20  C   UNL     1       1.223   8.742  20.569  0.00  0.00    +0.000 A 
ATOM     21  C   UNL     1       1.239   9.086  19.221  0.00  0.00    +0.000 A 
ATOM     22 BR   UNL     1       2.279   8.076  18.006  0.00  0.00    +0.000 Br
ATOM     23  C   UNL     1       0.521  10.187  18.761  0.00  0.00    +0.000 A 
ENDBRANCH  16  17
ENDBRANCH   1  16
BRANCH   2  24
ATOM     24  N   UNL     1      -2.304  11.381  16.753  0.00  0.00    +0.000 N 
ATOM     25  H   UNL     1      -2.464  12.039  15.984  0.00  0.00    +0.000 HD
BRANCH  24  26
ATOM     26  C   UNL     1      -2.380   9.985  16.304  0.00  0.00    +0.000 C 
BRANCH  26  27
ATOM     27  C   UNL     1      -2.800   9.900  14.835  0.00  0.00    +0.000 C 
BRANCH  27  28
ATOM     28  O   UNL     1      -4.202  10.117  14.693  0.00  0.00    +0.000 OA
ATOM     29  H   UNL     1      -4.425   9.992  13.753  0.00  0.00    +0.000 HD
ENDBRANCH  27  28
ENDBRANCH  26  27
ENDBRANCH  24  26
ENDBRANCH   2  24
TORSDOF 6
ENDMDL
MODEL 4
REMARK VINA RESULT:      -6.5      5.612      8.616
REMARK  Name = 
REMARK  7 active torsions:
REMARK  status: ('A' for Active; 'I' for Inactive)
REMARK    1  A    between atoms: C_1  and  C_2
REMARK    2  A    between atoms: N_4  and  C_5
REMARK    3  A    between atoms: N_4  and  C_21
REMARK    4  A    between atoms: C_6  and  N_7
REMARK    5  A    between atoms: N_7  and  C_8
REMARK    6  A    between atoms: C_8  and  C_9
REMARK    7  A    between atoms: C_9  and  O_10
REMARK                            x       y       z     vdW  Elec       q    Type
REMARK                         _______ _______ _______ _____ _____    ______ ____
ROOT
ATOM      1  C   UNL     1      -1.649  12.443  21.200  0.00  0.00    +0.000 C 
ATOM      2  C   UNL     1      -2.589  12.541  20.235  0.00  0.00    +0.000 C 
ATOM      3  C   UNL     1      -4.015  12.886  20.581  0.00  0.00    +0.000 C 
ATOM      4  O   UNL     1      -4.810  13.166  19.686  0.00  0.00    +0.000 OA
ATOM      5  C   UNL     1      -4.444  12.793  21.981  0.00  0.00    +0.000 A 
ATOM      6  C   UNL     1      -5.806  12.880  22.302  0.00  0.00    +0.000 A 
ATOM      7  C   UNL     1      -6.222  12.736  23.624  0.00  0.00    +0.000 A 
ATOM      8  C   UNL     1      -5.276  12.508  24.631  0.00  0.00    +0.000 A 
ATOM      9  C   UNL     1      -3.921  12.443  24.310  0.00  0.00    +0.000 A 
ATOM     10  C   UNL     1      -3.504  12.588  22.978  0.00  0.00    +0.000 A 
ATOM     11  C   UNL     1      -2.069  12.569  22.650  0.00  0.00    +0.000 C 
ATOM     12  O   UNL     1      -1.266  12.687  23.571  0.00  0.00    +0.000 OA
ENDROOT
BRANCH   1  16
ATOM     13  C   UNL     1       0.475  14.601  21.356  0.00  0.00    +0.000 C 
ATOM     14  C   UNL     1       0.656  13.262  20.670  0.00  0.00    +0.000 C 
ATOM     15  O   UNL     1       1.658  13.089  19.966  0.00  0.00    +0.000 OA
ATOM     16  N   UNL     1      -0.276  12.237  20.935  0.00  0.00    +0.000 N 
BRANCH  16  17
ATOM     17  C   UNL     1       0.247  10.906  20.860  0.00  0.00    +0.000 A 
ATOM     18  C   UNL     1       0.349  10.106  22.011  0.00  0.00    +0.000 A 
ATOM     19  C   UNL     1       0.887   8.819  21.931  0.00  0.00    +0.000 A 
ATOM     20  C   UNL     1       1.361   8.339  20.710  0.00  0.00    +0.000 A 
ATOM     21  C   UNL     1       1.275   9.133  19.571  0.00  0.00    +0.000 A 
ATOM     22 BR   UNL     1       1.989   8.508  17.934  0.00  0.00    +0.000 Br
ATOM     23  C   UNL     1       0.696  10.398  19.630  0.00  0.00    +0.000 A 
ENDBRANCH  16  17
ENDBRANCH   1  16
BRANCH   2  24
ATOM     24  N   UNL     1      -2.389  12.353  18.864  0.00  0.00    +0.000 N 
ATOM     25  H   UNL     1      -2.828  13.113  18.336  0.00  0.00    +0.000 HD
BRANCH  24  26
ATOM     26  C   UNL     1      -2.534  11.058  18.187  0.00  0.00    +0.000 C 
BRANCH  26  27
ATOM     27  C   UNL     1      -3.331  11.202  16.888  0.00  0.00    +0.000 C 
BRANCH  27  28
ATOM     28  O   UNL     1      -2.464  11.449  15.783  0.00  0.00    +0.000 OA
ATOM     29  H   UNL     1      -2.088  12.339  15.899  0.00  0.00    +0.000 HD
ENDBRANCH  27  28
ENDBRANCH  26  27
ENDBRANCH  24  26
ENDBRANCH   2  24
TORSDOF 6
ENDMDL
MODEL 5
REMARK VINA RESULT:      -6.4      4.329      8.009
REMARK  Name = 
REMARK  7 active torsions:
REMARK  status: ('A' for Active; 'I' for Inactive)
REMARK    1  A    between atoms: C_1  and  C_2
REMARK    2  A    between atoms: N_4  and  C_5
REMARK    3  A    between atoms: N_4  and  C_21
REMARK    4  A    between atoms: C_6  and  N_7
REMARK    5  A    between atoms: N_7  and  C_8
REMARK    6  A    between atoms: C_8  and  C_9
REMARK    7  A    between atoms: C_9  and  O_10
REMARK                            x       y       z     vdW  Elec       q    Type
REMARK                         _______ _______ _______ _____ _____    ______ ____
ROOT
ATOM      1  C   UNL     1       0.279  10.497  19.332  0.00  0.00    +0.000 C 
ATOM      2  C   UNL     1       0.110  10.056  20.598  0.00  0.00    +0.000 C 
ATOM      3  C   UNL     1       0.917   8.897  21.123  0.00  0.00    +0.000 C 
ATOM      4  O   UNL     1       0.899   8.635  22.324  0.00  0.00    +0.000 OA
ATOM      5  C   UNL     1       1.640   8.050  20.169  0.00  0.00    +0.000 A 
ATOM      6  C   UNL     1       2.206   6.840  20.595  0.00  0.00    +0.000 A 
ATOM      7  C   UNL     1       2.844   6.006  19.680  0.00  0.00    +0.000 A 
ATOM      8  C   UNL     1       2.925   6.382  18.333  0.00  0.00    +0.000 A 
ATOM      9  C   UNL     1       2.380   7.596  17.917  0.00  0.00    +0.000 A 
ATOM     10  C   UNL     1       1.736   8.434  18.840  0.00  0.00    +0.000 A 
ATOM     11  C   UNL     1       1.207   9.737  18.407  0.00  0.00    +0.000 C 
ATOM     12  O   UNL     1       1.567  10.172  17.318  0.00  0.00    +0.000 OA
ENDROOT
BRANCH   1  16
ATOM     13  C   UNL     1       1.669  13.134  18.779  0.00  0.00    +0.000 C 
ATOM     14  C   UNL     1       0.167  12.954  18.868  0.00  0.00    +0.000 C 
ATOM     15  O   UNL     1      -0.548  13.962  18.902  0.00  0.00    +0.000 OA
ATOM     16  N   UNL     1      -0.361  11.647  18.814  0.00  0.00    +0.000 N 
BRANCH  16  17
ATOM     17  C   UNL     1      -1.666  11.542  18.235  0.00  0.00    +0.000 A 
ATOM     18  C   UNL     1      -2.812  11.866  18.981  0.00  0.00    +0.000 A 
ATOM     19  C   UNL     1      -4.083  11.734  18.415  0.00  0.00    +0.000 A 
ATOM     20  C   UNL     1      -4.218  11.240  17.118  0.00  0.00    +0.000 A 
ATOM     21  C   UNL     1      -3.085  10.905  16.381  0.00  0.00    +0.000 A 
ATOM     22 BR   UNL     1      -3.276  10.163  14.651  0.00  0.00    +0.000 Br
ATOM     23  C   UNL     1      -1.813  11.079  16.918  0.00  0.00    +0.000 A 
ENDBRANCH  16  17
ENDBRANCH   1  16
BRANCH   2  24
ATOM     24  N   UNL     1      -0.777  10.578  21.544  0.00  0.00    +0.000 N 
ATOM     25  H   UNL     1      -1.741  10.507  21.202  0.00  0.00    +0.000 HD
BRANCH  24  26
ATOM     26  C   UNL     1      -0.546  11.827  22.279  0.00  0.00    +0.000 C 
BRANCH  26  27
ATOM     27  C   UNL     1      -1.824  12.668  22.353  0.00  0.00    +0.000 C 
BRANCH  27  28
ATOM     28  O   UNL     1      -1.642  13.928  21.711  0.00  0.00    +0.000 OA
ATOM     29  H   UNL     1      -0.719  14.200  21.855  0.00  0.00    +0.000 HD
ENDBRANCH  27  28
ENDBRANCH  26  27
ENDBRANCH  24  26
ENDBRANCH   2  24
TORSDOF 6
ENDMDL
MODEL 6
REMARK VINA RESULT:      -6.4      5.971      9.242
REMARK  Name = 
REMARK  7 active torsions:
REMARK  status: ('A' for Active; 'I' for Inactive)
REMARK    1  A    between atoms: C_1  and  C_2
REMARK    2  A    between atoms: N_4  and  C_5
REMARK    3  A    between atoms: N_4  and  C_21
REMARK    4  A    between atoms: C_6  and  N_7
REMARK    5  A    between atoms: N_7  and  C_8
REMARK    6  A    between atoms: C_8  and  C_9
REMARK    7  A    between atoms: C_9  and  O_10
REMARK                            x       y       z     vdW  Elec       q    Type
REMARK                         _______ _______ _______ _____ _____    ______ ____
ROOT
ATOM      1  C   UNL     1      -2.129  12.577  19.643  0.00  0.00    +0.000 C 
ATOM      2  C   UNL     1      -2.087  11.855  18.502  0.00  0.00    +0.000 C 
ATOM      3  C   UNL     1      -3.357  11.480  17.781  0.00  0.00    +0.000 C 
ATOM      4  O   UNL     1      -3.298  11.001  16.651  0.00  0.00    +0.000 OA
ATOM      5  C   UNL     1      -4.636  11.617  18.486  0.00  0.00    +0.000 A 
ATOM      6  C   UNL     1      -5.801  11.066  17.936  0.00  0.00    +0.000 A 
ATOM      7  C   UNL     1      -7.006  11.144  18.630  0.00  0.00    +0.000 A 
ATOM      8  C   UNL     1      -7.052  11.780  19.877  0.00  0.00    +0.000 A 
ATOM      9  C   UNL     1      -5.895  12.345  20.411  0.00  0.00    +0.000 A 
ATOM     10  C   UNL     1      -4.683  12.264  19.711  0.00  0.00    +0.000 A 
ATOM     11  C   UNL     1      -3.475  12.906  20.255  0.00  0.00    +0.000 C 
ATOM     12  O   UNL     1      -3.613  13.711  21.171  0.00  0.00    +0.000 OA
ENDROOT
BRANCH   1  16
ATOM     13  C   UNL     1      -0.622  11.058  21.792  0.00  0.00    +0.000 C 
ATOM     14  C   UNL     1      -0.468  12.541  21.515  0.00  0.00    +0.000 C 
ATOM     15  O   UNL     1       0.168  13.229  22.321  0.00  0.00    +0.000 OA
ATOM     16  N   UNL     1      -0.976  13.058  20.305  0.00  0.00    +0.000 N 
BRANCH  16  17
ATOM     17  C   UNL     1      -0.268  14.188  19.783  0.00  0.00    +0.000 A 
ATOM     18  C   UNL     1      -0.885  15.449  19.705  0.00  0.00    +0.000 A 
ATOM     19  C   UNL     1      -0.194  16.539  19.168  0.00  0.00    +0.000 A 
ATOM     20  C   UNL     1       1.098  16.367  18.672  0.00  0.00    +0.000 A 
ATOM     21  C   UNL     1       1.706  15.117  18.736  0.00  0.00    +0.000 A 
ATOM     22 BR   UNL     1       3.428  14.871  17.992  0.00  0.00    +0.000 Br
ATOM     23  C   UNL     1       1.045  14.036  19.313  0.00  0.00    +0.000 A 
ENDBRANCH  16  17
ENDBRANCH   1  16
BRANCH   2  24
ATOM     24  N   UNL     1      -0.937  11.384  17.863  0.00  0.00    +0.000 N 
ATOM     25  H   UNL     1      -1.023  11.501  16.848  0.00  0.00    +0.000 HD
BRANCH  24  26
ATOM     26  C   UNL     1      -0.260  10.130  18.216  0.00  0.00    +0.000 C 
BRANCH  26  27
ATOM     27  C   UNL     1       1.217  10.372  18.536  0.00  0.00    +0.000 C 
BRANCH  27  28
ATOM     28  O   UNL     1       2.042  10.036  17.423  0.00  0.00    +0.000 OA
ATOM     29  H   UNL     1       2.151  10.839  16.885  0.00  0.00    +0.000 HD
ENDBRANCH  27  28
ENDBRANCH  26  27
ENDBRANCH  24  26
ENDBRANCH   2  24
TORSDOF 6
ENDMDL
MODEL 7
REMARK VINA RESULT:      -6.4      4.367      7.644
REMARK  Name = 
REMARK  7 active torsions:
REMARK  status: ('A' for Active; 'I' for Inactive)
REMARK    1  A    between atoms: C_1  and  C_2
REMARK    2  A    between atoms: N_4  and  C_5
REMARK    3  A    between atoms: N_4  and  C_21
REMARK    4  A    between atoms: C_6  and  N_7
REMARK    5  A    between atoms: N_7  and  C_8
REMARK    6  A    between atoms: C_8  and  C_9
REMARK    7  A    between atoms: C_9  and  O_10
REMARK                            x       y       z     vdW  Elec       q    Type
REMARK                         _______ _______ _______ _____ _____    ______ ____
ROOT
ATOM      1  C   UNL     1       0.604   9.917  19.035  0.00  0.00    +0.000 C 
ATOM      2  C   UNL     1       0.377   9.302  20.216  0.00  0.00    +0.000 C 
ATOM      3  C   UNL     1       1.261   8.171  20.677  0.00  0.00    +0.000 C 
ATOM      4  O   UNL     1       1.169   7.756  21.830  0.00  0.00    +0.000 OA
ATOM      5  C   UNL     1       2.154   7.532  19.705  0.00  0.00    +0.000 A 
ATOM      6  C   UNL     1       2.813   6.340  20.038  0.00  0.00    +0.000 A 
ATOM      7  C   UNL     1       3.617   5.700  19.098  0.00  0.00    +0.000 A 
ATOM      8  C   UNL     1       3.771   6.253  17.821  0.00  0.00    +0.000 A 
ATOM      9  C   UNL     1       3.131   7.450  17.501  0.00  0.00    +0.000 A 
ATOM     10  C   UNL     1       2.321   8.092  18.448  0.00  0.00    +0.000 A 
ATOM     11  C   UNL     1       1.688   9.381  18.123  0.00  0.00    +0.000 C 
ATOM     12  O   UNL     1       2.089   9.986  17.134  0.00  0.00    +0.000 OA
ENDROOT
BRANCH   1  16
ATOM     13  C   UNL     1       1.830  12.654  18.584  0.00  0.00    +0.000 C 
ATOM     14  C   UNL     1       0.343  12.385  18.705  0.00  0.00    +0.000 C 
ATOM     15  O   UNL     1      -0.424  13.348  18.813  0.00  0.00    +0.000 OA
ATOM     16  N   UNL     1      -0.113  11.055  18.597  0.00  0.00    +0.000 N 
BRANCH  16  17
ATOM     17  C   UNL     1      -1.428  10.906  18.050  0.00  0.00    +0.000 A 
ATOM     18  C   UNL     1      -1.632  10.204  16.849  0.00  0.00    +0.000 A 
ATOM     19  C   UNL     1      -2.916  10.089  16.310  0.00  0.00    +0.000 A 
ATOM     20  C   UNL     1      -3.995  10.705  16.944  0.00  0.00    +0.000 A 
ATOM     21  C   UNL     1      -3.793  11.412  18.126  0.00  0.00    +0.000 A 
ATOM     22 BR   UNL     1      -5.245  12.310  18.942  0.00  0.00    +0.000 Br
ATOM     23  C   UNL     1      -2.526  11.492  18.698  0.00  0.00    +0.000 A 
ENDBRANCH  16  17
ENDBRANCH   1  16
BRANCH   2  24
ATOM     24  N   UNL     1      -0.641   9.605  21.124  0.00  0.00    +0.000 N 
ATOM     25  H   UNL     1      -1.557   9.471  20.686  0.00  0.00    +0.000 HD
BRANCH  24  26
ATOM     26  C   UNL     1      -0.623  10.775  22.012  0.00  0.00    +0.000 C 
BRANCH  26  27
ATOM     27  C   UNL     1      -0.766  10.356  23.478  0.00  0.00    +0.000 C 
BRANCH  27  28
ATOM     28  O   UNL     1       0.397   9.663  23.926  0.00  0.00    +0.000 OA
ATOM     29  H   UNL     1       0.773  10.171  24.666  0.00  0.00    +0.000 HD
ENDBRANCH  27  28
ENDBRANCH  26  27
ENDBRANCH  24  26
ENDBRANCH   2  24
TORSDOF 6
ENDMDL
MODEL 8
REMARK VINA RESULT:      -6.4      4.031      7.562
REMARK  Name = 
REMARK  7 active torsions:
REMARK  status: ('A' for Active; 'I' for Inactive)
REMARK    1  A    between atoms: C_1  and  C_2
REMARK    2  A    between atoms: N_4  and  C_5
REMARK    3  A    between atoms: N_4  and  C_21
REMARK    4  A    between atoms: C_6  and  N_7
REMARK    5  A    between atoms: N_7  and  C_8
REMARK    6  A    between atoms: C_8  and  C_9
REMARK    7  A    between atoms: C_9  and  O_10
REMARK                            x       y       z     vdW  Elec       q    Type
REMARK                         _______ _______ _______ _____ _____    ______ ____
ROOT
ATOM      1  C   UNL     1       0.508  10.262  19.070  0.00  0.00    +0.000 C 
ATOM      2  C   UNL     1       0.243   9.638  20.239  0.00  0.00    +0.000 C 
ATOM      3  C   UNL     1       1.071   8.462  20.688  0.00  0.00    +0.000 C 
ATOM      4  O   UNL     1       0.950   8.032  21.834  0.00  0.00    +0.000 OA
ATOM      5  C   UNL     1       1.944   7.798  19.713  0.00  0.00    +0.000 A 
ATOM      6  C   UNL     1       2.545   6.573  20.032  0.00  0.00    +0.000 A 
ATOM      7  C   UNL     1       3.328   5.913  19.088  0.00  0.00    +0.000 A 
ATOM      8  C   UNL     1       3.518   6.479  17.821  0.00  0.00    +0.000 A 
ATOM      9  C   UNL     1       2.935   7.708  17.516  0.00  0.00    +0.000 A 
ATOM     10  C   UNL     1       2.146   8.371  18.467  0.00  0.00    +0.000 A 
ATOM     11  C   UNL     1       1.575   9.692  18.158  0.00  0.00    +0.000 C 
ATOM     12  O   UNL     1       2.012  10.294  17.183  0.00  0.00    +0.000 OA
ENDROOT
BRANCH   1  16
ATOM     13  C   UNL     1       1.859  12.947  18.673  0.00  0.00    +0.000 C 
ATOM     14  C   UNL     1       0.361  12.743  18.778  0.00  0.00    +0.000 C 
ATOM     15  O   UNL     1      -0.364  13.738  18.896  0.00  0.00    +0.000 OA
ATOM     16  N   UNL     1      -0.154  11.437  18.645  0.00  0.00    +0.000 N 
BRANCH  16  17
ATOM     17  C   UNL     1      -1.469  11.356  18.085  0.00  0.00    +0.000 A 
ATOM     18  C   UNL     1      -2.598  11.709  18.846  0.00  0.00    +0.000 A 
ATOM     19  C   UNL     1      -3.879  11.600  18.299  0.00  0.00    +0.000 A 
ATOM     20  C   UNL     1      -4.043  11.102  17.006  0.00  0.00    +0.000 A 
ATOM     21  C   UNL     1      -2.929  10.739  16.256  0.00  0.00    +0.000 A 
ATOM     22 BR   UNL     1      -3.160   9.992  14.533  0.00  0.00    +0.000 Br
ATOM     23  C   UNL     1      -1.645  10.889  16.773  0.00  0.00    +0.000 A 
ENDBRANCH  16  17
ENDBRANCH   1  16
BRANCH   2  24
ATOM     24  N   UNL     1      -0.769   9.972  21.144  0.00  0.00    +0.000 N 
ATOM     25  H   UNL     1      -1.688   9.823  20.716  0.00  0.00    +0.000 HD
BRANCH  24  26
ATOM     26  C   UNL     1      -0.744  11.171  21.991  0.00  0.00    +0.000 C 
BRANCH  26  27
ATOM     27  C   UNL     1      -1.057  10.821  23.449  0.00  0.00    +0.000 C 
BRANCH  27  28
ATOM     28  O   UNL     1      -0.322   9.673  23.866  0.00  0.00    +0.000 OA
ATOM     29  H   UNL     1      -0.702   9.372  24.710  0.00  0.00    +0.000 HD
ENDBRANCH  27  28
ENDBRANCH  26  27
ENDBRANCH  24  26
ENDBRANCH   2  24
TORSDOF 6
ENDMDL
MODEL 9
REMARK VINA RESULT:      -6.3      6.337      9.404
REMARK  Name = 
REMARK  7 active torsions:
REMARK  status: ('A' for Active; 'I' for Inactive)
REMARK    1  A    between atoms: C_1  and  C_2
REMARK    2  A    between atoms: N_4  and  C_5
REMARK    3  A    between atoms: N_4  and  C_21
REMARK    4  A    between atoms: C_6  and  N_7
REMARK    5  A    between atoms: N_7  and  C_8
REMARK    6  A    between atoms: C_8  and  C_9
REMARK    7  A    between atoms: C_9  and  O_10
REMARK                            x       y       z     vdW  Elec       q    Type
REMARK                         _______ _______ _______ _____ _____    ______ ____
ROOT
ATOM      1  C   UNL     1      -2.035  12.535  19.576  0.00  0.00    +0.000 C 
ATOM      2  C   UNL     1      -2.025  11.781  18.455  0.00  0.00    +0.000 C 
ATOM      3  C   UNL     1      -3.312  11.423  17.757  0.00  0.00    +0.000 C 
ATOM      4  O   UNL     1      -3.278  10.911  16.639  0.00  0.00    +0.000 OA
ATOM      5  C   UNL     1      -4.579  11.615  18.469  0.00  0.00    +0.000 A 
ATOM      6  C   UNL     1      -5.765  11.082  17.945  0.00  0.00    +0.000 A 
ATOM      7  C   UNL     1      -6.961  11.213  18.647  0.00  0.00    +0.000 A 
ATOM      8  C   UNL     1      -6.977  11.884  19.876  0.00  0.00    +0.000 A 
ATOM      9  C   UNL     1      -5.799  12.432  20.384  0.00  0.00    +0.000 A 
ATOM     10  C   UNL     1      -4.596  12.297  19.676  0.00  0.00    +0.000 A 
ATOM     11  C   UNL     1      -3.365  12.920  20.191  0.00  0.00    +0.000 C 
ATOM     12  O   UNL     1      -3.472  13.753  21.084  0.00  0.00    +0.000 OA
ENDROOT
BRANCH   1  16
ATOM     13  C   UNL     1      -0.594  11.072  21.807  0.00  0.00    +0.000 C 
ATOM     14  C   UNL     1      -0.378  12.529  21.451  0.00  0.00    +0.000 C 
ATOM     15  O   UNL     1       0.287  13.233  22.221  0.00  0.00    +0.000 OA
ATOM     16  N   UNL     1      -0.863  13.002  20.214  0.00  0.00    +0.000 N 
BRANCH  16  17
ATOM     17  C   UNL     1      -0.108  14.071  19.634  0.00  0.00    +0.000 A 
ATOM     18  C   UNL     1       1.214  13.867  19.202  0.00  0.00    +0.000 A 
ATOM     19  C   UNL     1       1.950  14.925  18.663  0.00  0.00    +0.000 A 
ATOM     20  C   UNL     1       1.386  16.199  18.588  0.00  0.00    +0.000 A 
ATOM     21  C   UNL     1       0.082  16.407  19.027  0.00  0.00    +0.000 A 
ATOM     22 BR   UNL     1      -0.653  18.150  18.995  0.00  0.00    +0.000 Br
ATOM     23  C   UNL     1      -0.677  15.349  19.521  0.00  0.00    +0.000 A 
ENDBRANCH  16  17
ENDBRANCH   1  16
BRANCH   2  24
ATOM     24  N   UNL     1      -0.894  11.261  17.819  0.00  0.00    +0.000 N 
ATOM     25  H   UNL     1      -0.991  11.343  16.802  0.00  0.00    +0.000 HD
BRANCH  24  26
ATOM     26  C   UNL     1      -0.243  10.004  18.208  0.00  0.00    +0.000 C 
BRANCH  26  27
ATOM     27  C   UNL     1       1.224  10.235  18.580  0.00  0.00    +0.000 C 
BRANCH  27  28
ATOM     28  O   UNL     1       2.028  10.387  17.413  0.00  0.00    +0.000 OA
ATOM     29  H   UNL     1       2.760   9.749  17.476  0.00  0.00    +0.000 HD
ENDBRANCH  27  28
ENDBRANCH  26  27
ENDBRANCH  24  26
ENDBRANCH   2  24
TORSDOF 6
ENDMDL
